15
Frame=0 idx=010440 GeodesicLength=0.0 rxn_smarts="[N:1]([C:2](=[O:3])[C:4]([N:5]1[C:6]([H:12])([H:13])[C:7]1([H:14])[H:15])([H:10])[H:11])([H:8])[H:9]>>[N:1]([C:2]([O:3][H:12])=[C:4]([H:10])[H:11])([H:8])[H:9].[N:5]1=[C:6]([H:13])[C:7]1([H:14])[H:15]"
N        1.67503770      -0.46944661      -1.11565655
C        1.10642293      -0.45945380       0.14302697
O        0.43355115      -1.52643978       0.47249376
C        1.00302525       0.66767291       0.92117133
N       -1.07420987       0.96009336       0.62253102
C       -1.72236270      -0.18910771       0.57201715
C       -1.57712858       0.51667231      -0.70199249
H        1.80822934      -1.38754819      -1.50385894
H        2.43353438       0.16962997      -1.27474893
H        0.77670618       0.55090966       1.96754414
H        1.45203391       1.60025306       0.60770436
H       -0.61775837      -1.19481872       0.57182657
H       -2.48985341      -0.52891742       1.25657128
H       -0.85943849       0.13188906      -1.41890378
H       -2.34778938       1.15861185      -1.11972589
15
Frame=1 idx=010440 GeodesicLength=0.1271190257474449 rxn_smarts="[N:1]([C:2](=[O:3])[C:4]([N:5]1[C:6]([H:12])([H:13])[C:7]1([H:14])[H:15])([H:10])[H:11])([H:8])[H:9]>>[N:1]([C:2]([O:3][H:12])=[C:4]([H:10])[H:11])([H:8])[H:9].[N:5]1=[C:6]([H:13])[C:7]1([H:14])[H:15]"
N        1.66657302      -0.46062832      -1.11460475
C        1.12761807      -0.47970628       0.15528376
O        0.44869399      -1.54681316       0.46939989
C        1.00908523       0.64221518       0.94476356
N       -1.04814889       0.98085257       0.57687968
C       -1.71970756      -0.15879025       0.57377587
C       -1.57776671       0.50242521      -0.72440043
H        1.84512512      -1.36921317      -1.50607786
H        2.34553053       0.25197644      -1.31428988
H        0.77424520       0.50585590       1.98781841
H        1.47374321       1.57695587       0.66275162
H       -0.62443568      -1.20498071       0.60346485
H       -2.48978898      -0.44953893       1.27789830
H       -0.88636944       0.06819360      -1.43873941
H       -2.34439711       1.14119603      -1.15392361
15
Frame=2 idx=010440 GeodesicLength=0.2532642760740995 rxn_smarts="[N:1]([C:2](=[O:3])[C:4]([N:5]1[C:6]([H:12])([H:13])[C:7]1([H:14])[H:15])([H:10])[H:11])([H:8])[H:9]>>[N:1]([C:2]([O:3][H:12])=[C:4]([H:10])[H:11])([H:8])[H:9].[N:5]1=[C:6]([H:13])[C:7]1([H:14])[H:15]"
N        1.66003996      -0.45099345      -1.11208899
C        1.15031235      -0.49943637       0.16752407
O        0.46600960      -1.56674549       0.46675376
C        1.01374851       0.61821022       0.96630081
N       -1.02164478       0.99876214       0.53233854
C       -1.71574781      -0.12937409       0.57413935
C       -1.57720823       0.48885270      -0.74548435
H        1.87763783      -1.34722688      -1.51129757
H        2.25341045       0.32448162      -1.34636955
H        0.77195371       0.46303931       2.00604618
H        1.49109894       1.55477367       0.71385807
H       -0.62985413      -1.21523910       0.63448369
H       -2.48766437      -0.37143917       1.29458426
H       -0.91239301       0.00752005      -1.45473259
H       -2.33969902       1.12481484      -1.18605568
15
Frame=3 idx=010440 GeodesicLength=0.378792633727449 rxn_smarts="[N:1]([C:2](=[O:3])[C:4]([N:5]1[C:6]([H:12])([H:13])[C:7]1([H:14])[H:15])([H:10])[H:11])([H:8])[H:9]>>[N:1]([C:2]([O:3][H:12])=[C:4]([H:10])[H:11])([H:8])[H:9].[N:5]1=[C:6]([H:13])[C:7]1([H:14])[H:15]"
N        1.65540962      -0.44037846      -1.10838891
C        1.17428013      -0.51831984       0.17940132
O        0.48560181      -1.58606438       0.46432806
C        1.01704774       0.59559701       0.98584943
N       -0.99509120       1.01412861       0.48894506
C       -1.71079297      -0.10083269       0.57331554
C       -1.57587167       0.47592111      -0.76530797
H        1.90546010      -1.32235888      -1.51923119
H        2.15946673       0.38721365      -1.37106756
H        0.76992355       0.42209686       2.02229208
H        1.50428133       1.53389031       0.76136712
H       -0.63421412      -1.22554646       0.66477118
H       -2.48366661      -0.29477843       1.30721807
H       -0.93764411      -0.04990447      -1.46725983
H       -2.33419034       1.10933605      -1.21623238
15
Frame=4 idx=010440 GeodesicLength=0.5040069344171939 rxn_smarts="[N:1]([C:2](=[O:3])[C:4]([N:5]1[C:6]([H:12])([H:13])[C:7]1([H:14])[H:15])([H:10])[H:11])([H:8])[H:9]>>[N:1]([C:2]([O:3][H:12])=[C:4]([H:10])[H:11])([H:8])[H:9].[N:5]1=[C:6]([H:13])[C:7]1([H:14])[H:15]"
N        1.65256974      -0.42872707      -1.10385761
C        1.19928923      -0.53611886       0.19065186
O        0.50745188      -1.60475506       0.46195555
C        1.01906003       0.57432625       1.00353446
N       -0.96881703       1.02727159       0.44679984
C       -1.70518211      -0.07316326       0.57153610
C       -1.57413239       0.46364514      -0.78395244
H        1.92862608      -1.29540055      -1.52949253
H        2.06581329       0.44058255      -1.38887943
H        0.76829372       0.38273928       2.03674897
H        1.51350108       1.51452886       0.80560505
H       -0.63778955      -1.23596497       0.69437667
H       -2.47811278      -0.21974839       1.31634309
H       -0.96228347      -0.10394686      -1.47675269
H       -2.32828772       1.09473135      -1.24461688
15
Frame=5 idx=010440 GeodesicLength=0.6291096075262995 rxn_smarts="[N:1]([C:2](=[O:3])[C:4]([N:5]1[C:6]([H:12])([H:13])[C:7]1([H:14])[H:15])([H:10])[H:11])([H:8])[H:9]>>[N:1]([C:2]([O:3][H:12])=[C:4]([H:10])[H:11])([H:8])[H:9].[N:5]1=[C:6]([H:13])[C:7]1([H:14])[H:15]"
N        1.65119392      -0.41616300      -1.09884048
C        1.22512114      -0.55265498       0.20115870
O        0.53152325      -1.62295041       0.45969013
C        1.01986835       0.55444880       1.01948235
N       -0.94318351       1.03852697       0.40620060
C       -1.69926721      -0.04646141       0.56898983
C       -1.57229029       0.45220231      -0.80149368
H        1.94740677      -1.26719035      -1.54154437
H        1.97434440       0.48507470      -1.40084611
H        0.76728899       0.34486966       2.04973365
H        1.51900314       1.49698974       0.84677736
H       -0.64086228      -1.24669362       0.72347398
H       -2.47144550      -0.14694244       1.32228903
H       -0.98637952      -0.15426752      -1.48371862
H       -2.32232165       1.08121156      -1.27135236
15
Frame=6 idx=010440 GeodesicLength=0.7540002551608682 rxn_smarts="[N:1]([C:2](=[O:3])[C:4]([N:5]1[C:6]([H:12])([H:13])[C:7]1([H:14])[H:15])([H:10])[H:11])([H:8])[H:9]>>[N:1]([C:2]([O:3][H:12])=[C:4]([H:10])[H:11])([H:8])[H:9].[N:5]1=[C:6]([H:13])[C:7]1([H:14])[H:15]"
N        1.65122314      -0.40274867      -1.09353838
C        1.25154556      -0.56785316       0.21062998
O        0.55773805      -1.64047737       0.45705870
C        1.01941975       0.53556579       1.03368216
N       -0.91834117       1.04811183       0.36697745
C       -1.69323851      -0.02043014       0.56591435
C       -1.57057731       0.44146728      -0.81783712
H        1.96290741      -1.23802166      -1.55470249
H        1.88584512       0.52153562      -1.40758331
H        0.76670868       0.30799043       2.06101422
H        1.52086932       1.48081605       0.88523535
H       -0.64363319      -1.25750958       0.75211556
H       -2.46381359      -0.07572540       1.32560865
H       -1.01014177      -0.20126164      -1.48821993
H       -2.31651149       1.06854063      -1.29635518
15
Frame=7 idx=010440 GeodesicLength=0.878812296453409 rxn_smarts="[N:1]([C:2](=[O:3])[C:4]([N:5]1[C:6]([H:12])([H:13])[C:7]1([H:14])[H:15])([H:10])[H:11])([H:8])[H:9]>>[N:1]([C:2]([O:3][H:12])=[C:4]([H:10])[H:11])([H:8])[H:9].[N:5]1=[C:6]([H:13])[C:7]1([H:14])[H:15]"
N        1.65233044      -0.38865249      -1.08822175
C        1.27837436      -0.58171373       0.21896187
O        0.58595901      -1.65745275       0.45389974
C        1.01778268       0.51748603       1.04621289
N       -0.89443818       1.05630835       0.32912176
C       -1.68734159       0.00506851       0.56249877
C       -1.56926147       0.43148244      -0.83302494
H        1.97634565      -1.20816892      -1.56827577
H        1.80105147       0.55072242      -1.41007636
H        0.76661155       0.27183337       2.07068092
H        1.51940899       1.46585255       0.92126861
H       -0.64638698      -1.26846318       0.78049884
H       -2.45544914      -0.00598750       1.32672502
H       -1.03385072      -0.24507032      -1.49052495
H       -2.31113607       1.05675523      -1.31974466
15
Frame=8 idx=010440 GeodesicLength=1.003725764541193 rxn_smarts="[N:1]([C:2](=[O:3])[C:4]([N:5]1[C:6]([H:12])([H:13])[C:7]1([H:14])[H:15])([H:10])[H:11])([H:8])[H:9]>>[N:1]([C:2]([O:3][H:12])=[C:4]([H:10])[H:11])([H:8])[H:9].[N:5]1=[C:6]([H:13])[C:7]1([H:14])[H:15]"
N        1.65416014      -0.37411009      -1.08314766
C        1.30545217      -0.59430448       0.22610887
O        0.61608596      -1.67407887       0.45009727
C        1.01502707       0.50003621       1.05718641
N       -0.87160785       1.06340847       0.29265933
C       -1.68178628       0.03017708       0.55891134
C       -1.56857570       0.42233112      -0.84712068
H        1.98916445      -1.17785653      -1.58163115
H        1.72027178       0.57337729      -1.40938558
H        0.76707593       0.23619294       2.07889703
H        1.51489710       1.45195246       0.95513758
H       -0.64937159      -1.27965361       0.80885521
H       -2.44656112       0.06239332       1.32600371
H       -1.05779823      -0.28584720      -1.49090561
H       -2.30643383       1.04598190      -1.34166607
15
Frame=9 idx=010440 GeodesicLength=1.1284914785549194 rxn_smarts="[N:1]([C:2](=[O:3])[C:4]([N:5]1[C:6]([H:12])([H:13])[C:7]1([H:14])[H:15])([H:10])[H:11])([H:8])[H:9]>>[N:1]([C:2]([O:3][H:12])=[C:4]([H:10])[H:11])([H:8])[H:9].[N:5]1=[C:6]([H:13])[C:7]1([H:14])[H:15]"
N        1.65627863      -0.35933643      -1.07850072
C        1.33257757      -0.60564042       0.23198070
O        0.64796842      -1.69033018       0.44551927
C        1.01111715       0.48298299       1.06651830
N       -0.84994771       1.06954832       0.25763884
C       -1.67673012       0.05504770       0.55532147
C       -1.56858071       0.41406722      -0.86001365
H        2.00289428      -1.14708041      -1.59415480
H        1.64371120       0.59005326      -1.40641898
H        0.76801509       0.20089400       2.08554083
H        1.50748686       1.43872067       0.98682008
H       -0.65286039      -1.29098044       0.83743399
H       -2.43740440       0.12950438       1.32368042
H       -1.08212911      -0.32369209      -1.48936815
H       -2.30239676       1.03624143      -1.36199760
15
Frame=10 idx=010440 GeodesicLength=1.253319405321336 rxn_smarts="[N:1]([C:2](=[O:3])[C:4]([N:5]1[C:6]([H:12])([H:13])[C:7]1([H:14])[H:15])([H:10])[H:11])([H:8])[H:9]>>[N:1]([C:2]([O:3][H:12])=[C:4]([H:10])[H:11])([H:8])[H:9].[N:5]1=[C:6]([H:13])[C:7]1([H:14])[H:15]"
N        1.65866831      -0.34443340      -1.07431681
C        1.35976652      -0.61582640       0.23665112
O        0.68165084      -1.70633749       0.44007498
C        1.00614714       0.46610677       1.07441414
N       -0.82943128       1.07492263       0.22387785
C       -1.67226011       0.07989416       0.55181123
C       -1.56935483       0.40656645      -0.87182907
H        2.01793101      -1.11569729      -1.60586531
H        1.57121286       0.60147025      -1.40174873
H        0.76936598       0.16572704       2.09074169
H        1.49746505       1.42593674       1.01677210
H       -0.65701166      -1.30245215       0.86647407
H       -2.42802333       0.19583915       1.32000957
H       -1.10702385      -0.35909003      -1.48601554
H       -2.29910264       1.02737357      -1.38105129
15
Frame=11 idx=010440 GeodesicLength=1.3781503896662148 rxn_smarts="[N:1]([C:2](=[O:3])[C:4]([N:5]1[C:6]([H:12])([H:13])[C:7]1([H:14])[H:15])([H:10])[H:11])([H:8])[H:9]>>[N:1]([C:2]([O:3][H:12])=[C:4]([H:10])[H:11])([H:8])[H:9].[N:5]1=[C:6]([H:13])[C:7]1([H:14])[H:15]"
N        1.66115390      -0.32949693      -1.07062978
C        1.38698469      -0.62490500       0.24016662
O        0.71716007      -1.72213947       0.43373429
C        1.00013679       0.44921317       1.08093220
N       -0.81003495       1.07964190       0.19130462
C       -1.66843160       0.10487263       0.54845325
C       -1.57085410       0.39976958      -0.88258662
H        2.03469890      -1.08356899      -1.61671588
H        1.50269769       0.60819316      -1.39592886
H        0.77104350       0.13054632       2.09451937
H        1.48498730       1.41331326       1.04517088
H       -0.66201619      -1.31400860       0.89626650
H       -2.41852639       0.26162761       1.31509706
H       -1.13254446      -0.39231725      -1.48082725
H       -2.29645516       1.01925861      -1.39895641
15
Frame=12 idx=010440 GeodesicLength=1.5030050267336126 rxn_smarts="[N:1]([C:2](=[O:3])[C:4]([N:5]1[C:6]([H:12])([H:13])[C:7]1([H:14])[H:15])([H:10])[H:11])([H:8])[H:9]>>[N:1]([C:2]([O:3][H:12])=[C:4]([H:10])[H:11])([H:8])[H:9].[N:5]1=[C:6]([H:13])[C:7]1([H:14])[H:15]"
N        1.66366526      -0.31459702      -1.06743734
C        1.41425384      -0.63292179       0.24260186
O        0.75460885      -1.73780237       0.42648029
C        0.99312296       0.43212646       1.08616448
N       -0.79172235       1.08381907       0.15984752
C       -1.66527848       0.13013504       0.54529011
C       -1.57302998       0.39361308      -0.89233817
H        2.05338157      -1.05055669      -1.62675321
H        1.43793923       0.61070699      -1.38944374
H        0.77298837       0.09521535       2.09693671
H        1.47019070       1.40061018       1.07223257
H       -0.66804058      -1.32560941       0.92711091
H       -2.40900243       0.32710073       1.30899512
H       -1.15871286      -0.42362758      -1.47379395
H       -2.29436411       1.01178795      -1.41589315
15
Frame=13 idx=010440 GeodesicLength=1.6278548807367883 rxn_smarts="[N:1]([C:2](=[O:3])[C:4]([N:5]1[C:6]([H:12])([H:13])[C:7]1([H:14])[H:15])([H:10])[H:11])([H:8])[H:9]>>[N:1]([C:2]([O:3][H:12])=[C:4]([H:10])[H:11])([H:8])[H:9].[N:5]1=[C:6]([H:13])[C:7]1([H:14])[H:15]"
N        1.66617788      -0.29975941      -1.06472111
C        1.44161057      -0.63989916       0.24401888
O        0.79415007      -1.75334342       0.41828175
C        0.98512131       0.41465856       1.09017540
N       -0.77442745       1.08752859       0.12942264
C       -1.66280548       0.15584031       0.54234883
C       -1.57579276       0.38800888      -0.90111600
H        2.07396961      -1.01645832      -1.63606997
H        1.37668775       0.60940108      -1.38266472
H        0.77511117       0.05958027       2.09800932
H        1.45316190       1.38756111       1.09815419
H       -0.67526770      -1.33716458       0.95931683
H       -2.39951158       0.39250361       1.30171051
H       -1.18549938      -0.45326186      -1.46484629
H       -2.29268591       1.00480434      -1.43202025
15
Frame=14 idx=010440 GeodesicLength=1.7527316329306601 rxn_smarts="[N:1]([C:2](=[O:3])[C:4]([N:5]1[C:6]([H:12])([H:13])[C:7]1([H:14])[H:15])([H:10])[H:11])([H:8])[H:9]>>[N:1]([C:2]([O:3][H:12])=[C:4]([H:10])[H:11])([H:8])[H:9].[N:5]1=[C:6]([H:13])[C:7]1([H:14])[H:15]"
N        1.66876285      -0.28493706      -1.06244432
C        1.46913760      -0.64584773       0.24448867
O        0.83600653      -1.76878437       0.40908569
C        0.97615878       0.39661086       1.09305410
N       -0.75805393       1.09083346       0.09991119
C       -1.66100160       0.18216163       0.53963560
C       -1.57905237       0.38283032      -0.90897440
H        2.09618517      -0.98103321      -1.64485504
H        1.31866619       0.60462508      -1.37583564
H        0.77732430       0.02344552       2.09777437
H        1.43398227       1.37391730       1.12319534
H       -0.68389158      -1.34858723       0.99320991
H       -2.39006789       0.45817138       1.29320251
H       -1.21287724      -0.48150753      -1.45388847
H       -2.29127909       0.99810158      -1.44755951
15
Frame=15 idx=010440 GeodesicLength=1.8776328431994482 rxn_smarts="[N:1]([C:2](=[O:3])[C:4]([N:5]1[C:6]([H:12])([H:13])[C:7]1([H:14])[H:15])([H:10])[H:11])([H:8])[H:9]>>[N:1]([C:2]([O:3][H:12])=[C:4]([H:10])[H:11])([H:8])[H:9].[N:5]1=[C:6]([H:13])[C:7]1([H:14])[H:15]"
N        1.67143942      -0.27008175      -1.06060011
C        1.49690378      -0.65076146       0.24404398
O        0.88043135      -1.78411908       0.39880311
C        0.96622932       0.37776526       1.09483407
N       -0.74251051       1.09378358       0.07121527
C       -1.65984510       0.20929041       0.53716045
C       -1.58272294       0.37796958      -0.91592915
H        2.11992385      -0.94401352      -1.65321136
H        1.26360018       0.59661644      -1.36919076
H        0.77954236      -0.01341159       2.09621528
H        1.41265989       1.35938649       1.14754963
H       -0.69415479      -1.35973951       1.02915114
H       -2.38067629       0.52441787       1.28340575
H       -1.24081484      -0.50858198      -1.44077787
H       -2.29000569       0.99147926      -1.46266943
15
Frame=16 idx=010440 GeodesicLength=2.0025691222944597 rxn_smarts="[N:1]([C:2](=[O:3])[C:4]([N:5]1[C:6]([H:12])([H:13])[C:7]1([H:14])[H:15])([H:10])[H:11])([H:8])[H:9]>>[N:1]([C:2]([O:3][H:12])=[C:4]([H:10])[H:11])([H:8])[H:9].[N:5]1=[C:6]([H:13])[C:7]1([H:14])[H:15]"
N        1.67422347      -0.25512858      -1.05919552
C        1.52498805      -0.65462658       0.24269854
O        0.92772738      -1.79933046       0.38730832
C        0.95531573       0.35787506       1.09552355
N       -0.72770043       1.09642434       0.04323277
C       -1.65930503       0.23744427       0.53492995
C       -1.58673498       0.37331638      -0.92197857
H        2.14514054      -0.90506611      -1.66120870
H        1.21120403       0.58551959      -1.36294172
H        0.78169220      -0.05126308       2.09328608
H        1.38916669       1.34364827       1.17140224
H       -0.70635406      -1.37044170       1.06755352
H       -2.37132862       0.59158678       1.27221481
H       -1.26928761      -0.53468148      -1.42532956
H       -2.28874737       0.98472329      -1.47749570
