13
Frame=0 idx=009846 GeodesicLength=0.0 rxn_smarts="[C:1]1([H:8])([H:9])[O:2][C@@:3]2([H:10])[C@@:4]3([H:11])[O:5][C@:6]1([H:12])[C@@:7]23[H:13]>>[C-:1]([O+:2]=[C:3]([C@@:4]1([H:11])[O:5][C:6]([H:12])=[C:7]1[H:13])[H:10])([H:8])[H:9]"
C        0.85895957       0.51693188       1.40100776
O        0.97724890      -0.73549635       0.92835852
C        0.14392228      -1.32003916       0.13181404
C       -0.98788033      -0.64778160      -0.56007596
O       -1.41214306       0.55500483       0.11145573
C       -0.33963974       1.19232675      -0.53901936
C       -0.08506848       0.18848748      -1.42380723
H        1.75385831       0.78053408       1.95165913
H       -0.09502136       0.79699786       1.81558718
H        0.50740696      -2.26847211      -0.24437349
H       -1.78798199      -1.29051064      -0.92141673
H       -0.16042655       2.25056865      -0.44839637
H        0.62676543      -0.01855164      -2.20279326
13
Frame=1 idx=009846 GeodesicLength=0.045114349730691096 rxn_smarts="[C:1]1([H:8])([H:9])[O:2][C@@:3]2([H:10])[C@@:4]3([H:11])[O:5][C@:6]1([H:12])[C@@:7]23[H:13]>>[C-:1]([O+:2]=[C:3]([C@@:4]1([H:11])[O:5][C:6]([H:12])=[C:7]1[H:13])[H:10])([H:8])[H:9]"
C        0.86044654       0.51457342       1.39451620
O        0.96347682      -0.74924992       0.94893214
C        0.14356479      -1.32195000       0.12534524
C       -0.98882436      -0.64943758      -0.56190165
O       -1.41970843       0.55250863       0.10875778
C       -0.33740297       1.19140153      -0.52439221
C       -0.06910211       0.18560365      -1.40881932
H        1.76565787       0.78781368       1.92369989
H       -0.08436185       0.80778442       1.82136247
H        0.49844948      -2.27801452      -0.23842308
H       -1.78415452      -1.28820761      -0.93915035
H       -0.18160467       2.25502215      -0.45050734
H        0.63356341      -0.00784786      -2.19941977
13
Frame=2 idx=009846 GeodesicLength=0.09018625485417847 rxn_smarts="[C:1]1([H:8])([H:9])[O:2][C@@:3]2([H:10])[C@@:4]3([H:11])[O:5][C@:6]1([H:12])[C@@:7]23[H:13]>>[C-:1]([O+:2]=[C:3]([C@@:4]1([H:11])[O:5][C:6]([H:12])=[C:7]1[H:13])[H:10])([H:8])[H:9]"
C        0.86184652       0.51212842       1.38828201
O        0.94884346      -0.76233074       0.96970242
C        0.14378027      -1.32352117       0.11898944
C       -0.98944749      -0.65115083      -0.56375800
O       -1.42727656       0.54996441       0.10578325
C       -0.33546337       1.19052146      -0.50985460
C       -0.05347199       0.18279672      -1.39387074
H        1.77716752       0.79343872       1.89593656
H       -0.07329553       0.81926654       1.82699263
H        0.48991316      -2.28705281      -0.23220271
H       -1.77969116      -1.28603329      -0.95671341
H       -0.20228766       2.25866300      -0.45301065
H        0.63938281       0.00330956      -2.19627620
13
Frame=3 idx=009846 GeodesicLength=0.13525615502739693 rxn_smarts="[C:1]1([H:8])([H:9])[O:2][C@@:3]2([H:10])[C@@:4]3([H:11])[O:5][C@:6]1([H:12])[C@@:7]23[H:13]>>[C-:1]([O+:2]=[C:3]([C@@:4]1([H:11])[O:5][C:6]([H:12])=[C:7]1[H:13])[H:10])([H:8])[H:9]"
C        0.86318525       0.50961929       1.38230855
O        0.93342333      -0.77470640       0.99055745
C        0.14455869      -1.32477053       0.11276065
C       -0.98977061      -0.65293728      -0.56566752
O       -1.43486618       0.54738759       0.10249665
C       -0.33381930       1.18969055      -0.49542146
C       -0.03818971       0.18005172      -1.37900896
H        1.78842514       0.79743768       1.86849887
H       -0.06179391       0.83141106       1.83247690
H        0.48176830      -2.29562784      -0.22570921
H       -1.77464609      -1.28401362      -0.97411722
H       -0.22250935       2.26155551      -0.45587804
H        0.64423443       0.01490228      -2.19329666
13
Frame=4 idx=009846 GeodesicLength=0.18021577151239146 rxn_smarts="[C:1]1([H:8])([H:9])[O:2][C@@:3]2([H:10])[C@@:4]3([H:11])[O:5][C@:6]1([H:12])[C@@:7]23[H:13]>>[C-:1]([O+:2]=[C:3]([C@@:4]1([H:11])[O:5][C:6]([H:12])=[C:7]1[H:13])[H:10])([H:8])[H:9]"
C        0.86439727       0.50699034       1.37650903
O        0.91719281      -0.78632462       1.01135149
C        0.14585033      -1.32566552       0.10668878
C       -0.98977653      -0.65477716      -0.56756994
O       -1.44244311       0.54471228       0.09894296
C       -0.33248111       1.18887867      -0.48105867
C       -0.02326509       0.17745096      -1.36418673
H        1.79932368       0.79986121       1.84118896
H       -0.04985579       0.84407056       1.83774540
H        0.47393555      -2.30363587      -0.21890934
H       -1.76894909      -1.28213109      -0.99127415
H       -0.24220669       2.26365480      -0.45905773
H        0.64827777       0.02691544      -2.19037005
13
Frame=5 idx=009846 GeodesicLength=0.22509567045266052 rxn_smarts="[C:1]1([H:8])([H:9])[O:2][C@@:3]2([H:10])[C@@:4]3([H:11])[O:5][C@:6]1([H:12])[C@@:7]23[H:13]>>[C-:1]([O+:2]=[C:3]([C@@:4]1([H:11])[O:5][C:6]([H:12])=[C:7]1[H:13])[H:10])([H:8])[H:9]"
C        0.86552507       0.50430813       1.37091233
O        0.90038177      -0.79713163       1.03186573
C        0.14763995      -1.32623112       0.10079976
C       -0.98949853      -0.65669456      -0.56949070
O       -1.45002061       0.54200444       0.09504746
C       -0.33140269       1.18807233      -0.46684422
C       -0.00872252       0.17487817      -1.34954291
H        1.80985859       0.80077882       1.81442009
H       -0.03751254       0.85717385       1.84282795
H        0.46644142      -2.31111644      -0.21186909
H       -1.76274535      -1.28040163      -1.00812020
H       -0.26133319       2.26504391      -0.46253855
H        0.65138864       0.03931573      -2.18746767
13
Frame=6 idx=009846 GeodesicLength=0.2699184040567707 rxn_smarts="[C:1]1([H:8])([H:9])[O:2][C@@:3]2([H:10])[C@@:4]3([H:11])[O:5][C@:6]1([H:12])[C@@:7]23[H:13]>>[C-:1]([O+:2]=[C:3]([C@@:4]1([H:11])[O:5][C:6]([H:12])=[C:7]1[H:13])[H:10])([H:8])[H:9]"
C        0.86656701       0.50155290       1.36552354
O        0.88305534      -0.80713419       1.05206028
C        0.14987811      -1.32651083       0.09511061
C       -0.98897685      -0.65868195      -0.57144009
O       -1.45762880       0.53927608       0.09081974
C       -0.33062467       1.18729841      -0.45273653
C        0.00541438       0.17239662      -1.33504821
H        1.82006089       0.80029252       1.78807113
H       -0.02473145       0.87065416       1.84774372
H        0.45923900      -2.31810861      -0.20459100
H       -1.75605217      -1.27884429      -1.02472065
H       -0.27993183       2.26577992      -0.46629279
H        0.65373102       0.05202927      -2.18449976
13
Frame=7 idx=009846 GeodesicLength=0.3147010990001377 rxn_smarts="[C:1]1([H:8])([H:9])[O:2][C@@:3]2([H:10])[C@@:4]3([H:11])[O:5][C@:6]1([H:12])[C@@:7]23[H:13]>>[C-:1]([O+:2]=[C:3]([C@@:4]1([H:11])[O:5][C:6]([H:12])=[C:7]1[H:13])[H:10])([H:8])[H:9]"
C        0.86751154       0.49872874       1.36029837
O        0.86526821      -0.81633859       1.07182346
C        0.15248588      -1.32651880       0.08963478
C       -0.98823789      -0.66074227      -0.57341200
O       -1.46527966       0.53649148       0.08628207
C       -0.33016658       1.18653517      -0.43871446
C        0.01914599       0.17001651      -1.32069664
H        1.82993362       0.79854836       1.76198592
H       -0.01149698       0.88442888       1.85248215
H        0.45223756      -2.32460118      -0.19707923
H       -1.74889434      -1.27743607      -1.04108789
H       -0.29802748       2.26586305      -0.47022178
H        0.65552014       0.06502472      -2.18129475
13
Frame=8 idx=009846 GeodesicLength=0.35944916996837806 rxn_smarts="[C:1]1([H:8])([H:9])[O:2][C@@:3]2([H:10])[C@@:4]3([H:11])[O:5][C@:6]1([H:12])[C@@:7]23[H:13]>>[C-:1]([O+:2]=[C:3]([C@@:4]1([H:11])[O:5][C:6]([H:12])=[C:7]1[H:13])[H:10])([H:8])[H:9]"
C        0.86837141       0.49584230       1.35522518
O        0.84709816      -0.82476469       1.09108469
C        0.15540874      -1.32628525       0.08440547
C       -0.98730774      -0.66287737      -0.57540713
O       -1.47298289       0.53365199       0.08143306
C       -0.33003660       1.18577558      -0.42477148
C        0.03247175       0.16772166      -1.30649667
H        1.83951529       0.79562278       1.73614687
H        0.00220187       0.89843707       1.85704366
H        0.44539755      -2.33062295      -0.18933741
H       -1.74131122      -1.27615802      -1.05724835
H       -0.31568834       2.26534705      -0.47433272
H        0.65686202       0.07830985      -2.17774516
13
Frame=9 idx=009846 GeodesicLength=0.40424008753980223 rxn_smarts="[C:1]1([H:8])([H:9])[O:2][C@@:3]2([H:10])[C@@:4]3([H:11])[O:5][C@:6]1([H:12])[C@@:7]23[H:13]>>[C-:1]([O+:2]=[C:3]([C@@:4]1([H:11])[O:5][C:6]([H:12])=[C:7]1[H:13])[H:10])([H:8])[H:9]"
C        0.86913872       0.49290011       1.35028102
O        0.82860063      -0.83246033       1.10981411
C        0.15856387      -1.32583469       0.07942829
C       -0.98622341      -0.66509120      -0.57742717
O       -1.48076079       0.53074162       0.07628359
C       -0.33024824       1.18501516      -0.41087091
C        0.04539607       0.16552704      -1.29241271
H        1.84880734       0.79166304       1.71038475
H        0.01636524       0.91264319       1.86143029
H        0.43867886      -2.33619744      -0.18139135
H       -1.73332726      -1.27501740      -1.07324047
H       -0.33290578       2.26425845      -0.47853682
H        0.65791475       0.09185244      -2.17374261
13
Frame=10 idx=009846 GeodesicLength=0.44901613514040895 rxn_smarts="[C:1]1([H:8])([H:9])[O:2][C@@:3]2([H:10])[C@@:4]3([H:11])[O:5][C@:6]1([H:12])[C@@:7]23[H:13]>>[C-:1]([O+:2]=[C:3]([C@@:4]1([H:11])[O:5][C:6]([H:12])=[C:7]1[H:13])[H:10])([H:8])[H:9]"
C        0.86983798       0.48990028       1.34543614
O        0.80987719      -0.83933673       1.12790976
C        0.16190456      -1.32519695       0.07472643
C       -0.98502118      -0.66738114      -0.57948631
O       -1.48863502       0.52774594       0.07083787
C       -0.33085059       1.18424054      -0.39701499
C        0.05788397       0.16343378      -1.27846324
H        1.85780069       0.78671665       1.68462513
H        0.03108657       0.92694199       1.86561977
H        0.43198552      -2.34129894      -0.17320980
H       -1.72498926      -1.27397155      -1.08910762
H       -0.34979789       2.26260904      -0.48278003
H        0.65891746       0.10559709      -2.16909310
13
Frame=11 idx=009846 GeodesicLength=0.4938030504122232 rxn_smarts="[C:1]1([H:8])([H:9])[O:2][C@@:3]2([H:10])[C@@:4]3([H:11])[O:5][C@:6]1([H:12])[C@@:7]23[H:13]>>[C-:1]([O+:2]=[C:3]([C@@:4]1([H:11])[O:5][C:6]([H:12])=[C:7]1[H:13])[H:10])([H:8])[H:9]"
C        0.87043679       0.48688793       1.34071332
O        0.79108157      -0.84550353       1.14533166
C        0.16536539      -1.32436383       0.07029242
C       -0.98372782      -0.66972439      -0.58153589
O       -1.49655194       0.52473585       0.06509231
C       -0.33175751       1.18342593      -0.38321402
C        0.06992074       0.16138229      -1.26466840
H        1.86638856       0.78095995       1.65914734
H        0.04621742       0.94125733       1.86964781
H        0.42547893      -2.34589429      -0.16499922
H       -1.71637152      -1.27301051      -1.10471062
H       -0.36614937       2.26041224      -0.48711558
H        0.65966876       0.11943504      -2.16398113
13
Frame=12 idx=009846 GeodesicLength=0.5385887258401851 rxn_smarts="[C:1]1([H:8])([H:9])[O:2][C@@:3]2([H:10])[C@@:4]3([H:11])[O:5][C@:6]1([H:12])[C@@:7]23[H:13]>>[C-:1]([O+:2]=[C:3]([C@@:4]1([H:11])[O:5][C:6]([H:12])=[C:7]1[H:13])[H:10])([H:8])[H:9]"
C        0.87095028       0.48386470       1.33607891
O        0.77227624      -0.85096244       1.16204877
C        0.16889927      -1.32339453       0.06613355
C       -0.98238796      -0.67213044      -0.58358646
O       -1.50455953       0.52170263       0.05905813
C       -0.33300803       1.18259319      -0.36945622
C        0.08151204       0.15940177      -1.25102237
H        1.87457610       0.77449679       1.63380233
H        0.06180380       0.95553590       1.87350375
H        0.41909990      -2.35003381      -0.15674138
H       -1.70753194      -1.27213256      -1.12009119
H       -0.38203027       2.25773273      -0.49145727
H        0.66040011       0.13332606      -2.15827054
13
Frame=13 idx=009846 GeodesicLength=0.5834095438446658 rxn_smarts="[C:1]1([H:8])([H:9])[O:2][C@@:3]2([H:10])[C@@:4]3([H:11])[O:5][C@:6]1([H:12])[C@@:7]23[H:13]>>[C-:1]([O+:2]=[C:3]([C@@:4]1([H:11])[O:5][C:6]([H:12])=[C:7]1[H:13])[H:10])([H:8])[H:9]"
C        0.87138035       0.48083820       1.33152777
O        0.75348981      -0.85575421       1.17809203
C        0.17245280      -1.32229881       0.06225270
C       -0.98102036      -0.67459495      -0.58564094
O       -1.51265472       0.51863800       0.05274168
C       -0.33460895       1.18172351      -0.35571991
C        0.09266306       0.15747950      -1.23750213
H        1.88237356       0.76740220       1.60851924
H        0.07785637       0.96976233       1.87718089
H        0.41283474      -2.35372921      -0.14844803
H       -1.69847622      -1.27131669      -1.13528588
H       -0.39746879       2.25458199      -0.49577739
H        0.66117835       0.14726815      -2.15194003
13
Frame=14 idx=009846 GeodesicLength=0.6282927326199985 rxn_smarts="[C:1]1([H:8])([H:9])[O:2][C@@:3]2([H:10])[C@@:4]3([H:11])[O:5][C@:6]1([H:12])[C@@:7]23[H:13]>>[C-:1]([O+:2]=[C:3]([C@@:4]1([H:11])[O:5][C:6]([H:12])=[C:7]1[H:13])[H:10])([H:8])[H:9]"
C        0.87173614       0.47780794       1.32706539
O        0.73472916      -0.85993148       1.19352795
C        0.17599705      -1.32109922       0.05865578
C       -0.97964512      -0.67711309      -0.58770692
O       -1.52086458       0.51554155       0.04614910
C       -0.33657690       1.18081415      -0.34198645
C        0.10338857       0.15561936      -1.22408998
H        1.88981317       0.75972049       1.58322066
H        0.09437842       0.98393840       1.88067355
H        0.40669597      -2.35701941      -0.14011125
H       -1.68921334      -1.27054583      -1.15033592
H       -0.41249943       2.25099739      -0.50005852
H        0.66206089       0.16126977      -2.14500337
13
Frame=15 idx=009846 GeodesicLength=0.6732841413488541 rxn_smarts="[C:1]1([H:8])([H:9])[O:2][C@@:3]2([H:10])[C@@:4]3([H:11])[O:5][C@:6]1([H:12])[C@@:7]23[H:13]>>[C-:1]([O+:2]=[C:3]([C@@:4]1([H:11])[O:5][C:6]([H:12])=[C:7]1[H:13])[H:10])([H:8])[H:9]"
C        0.87200409       0.47480006       1.32265981
O        0.71601783      -0.86349037       1.20832045
C        0.17947519      -1.31979574       0.05532714
C       -0.97825114      -0.67969261      -0.58979149
O       -1.52912332       0.51238789       0.03926831
C       -0.33888809       1.17984255      -0.32822954
C        0.11371670       0.15380644      -1.21074698
H        1.89681002       0.75157335       1.55780834
H        0.11141397       0.99803730       1.88396104
H        0.40059984      -2.35989760      -0.13174983
H       -1.67972188      -1.26981545      -1.16527260
H       -0.42712488       2.24696067      -0.50418472
H        0.66307166       0.17528350      -2.13736993
13
Frame=16 idx=009846 GeodesicLength=0.7183398132232386 rxn_smarts="[C:1]1([H:8])([H:9])[O:2][C@@:3]2([H:10])[C@@:4]3([H:11])[O:5][C@:6]1([H:12])[C@@:7]23[H:13]>>[C-:1]([O+:2]=[C:3]([C@@:4]1([H:11])[O:5][C:6]([H:12])=[C:7]1[H:13])[H:10])([H:8])[H:9]"
C        0.87219738       0.47181237       1.31832801
O        0.69742566      -0.86648497       1.22252175
C        0.18288640      -1.31841574       0.05226609
C       -0.97688211      -0.68231827      -0.59188243
O       -1.53748255       0.50921941       0.03211211
C       -0.34155494       1.17881695      -0.31446489
C        0.12362584       0.15203989      -1.19750649
H        1.90338600       0.74300643       1.53237000
H        0.12890339       1.01201038       1.88704941
H        0.39463672      -2.36239900      -0.12339741
H       -1.67007367      -1.26911033      -1.18005289
H       -0.44131433       2.24254083      -0.50819571
H        0.66424622       0.18928206      -2.12914755
