16
Frame=0 idx=006763 GeodesicLength=0.0 rxn_smarts="[C:1](/[N:2]=[C:3](/[O:4][C:5]([C:6]([O:7][H:16])([H:14])[H:15])([H:12])[H:13])[H:11])([H:8])([H:9])[H:10]>>[C:1](=[N:2][C:3]([O:4][C:5]([C:6]([O:7][H:16])([H:14])[H:15])([H:12])[H:13])([H:8])[H:11])([H:9])[H:10]"
C        2.01651068      -0.67533189      -0.67039674
N        0.93594901       0.04975391      -1.04251430
C        0.95408524       0.93898431      -0.01571968
O       -0.14043543       1.36520613       0.62763638
C       -1.17248839       0.46890503       1.05841891
C       -1.65121194      -0.57941844       0.06014418
O       -1.94130606      -0.05536967      -1.20530152
H        2.14711064       0.29807107       0.48152319
H        1.94640465      -1.33318335       0.19155210
H        2.71187271      -1.03466487      -1.43544206
H        1.63523496       1.77546740      -0.14789727
H       -0.84193261      -0.02570577       1.97930048
H       -1.99481657       1.13994950       1.30336150
H       -0.93724201      -1.40611175      -0.00879107
H       -2.57870342      -0.99034889       0.47033229
H       -1.08903139       0.06379721      -1.64620640
16
Frame=1 idx=006763 GeodesicLength=0.09248778286791849 rxn_smarts="[C:1](/[N:2]=[C:3](/[O:4][C:5]([C:6]([O:7][H:16])([H:14])[H:15])([H:12])[H:13])[H:11])([H:8])([H:9])[H:10]>>[C:1](=[N:2][C:3]([O:4][C:5]([C:6]([O:7][H:16])([H:14])[H:15])([H:12])[H:13])([H:8])[H:11])([H:9])[H:10]"
C        2.02827406      -0.66266580      -0.72457625
N        0.93950015       0.07681048      -1.03742448
C        0.96555143       0.92187829       0.02459413
O       -0.13333108       1.36650250       0.64649972
C       -1.20523592       0.50683668       1.04561958
C       -1.64663898      -0.59180599       0.08701970
O       -1.92730460      -0.13097299      -1.20488631
H        2.13569521       0.21561514       0.51396996
H        1.98666663      -1.39516836       0.07680839
H        2.72416710      -0.94540287      -1.52085704
H        1.66806835       1.74768763      -0.06618990
H       -0.94044707       0.06379346       2.01273889
H       -2.02914123       1.20307236       1.20164917
H       -0.91949177      -1.40972878       0.07051296
H       -2.57481609      -1.00141934       0.49767803
H       -1.07151620       0.03496759      -1.62315655
16
Frame=2 idx=006763 GeodesicLength=0.18063899142043213 rxn_smarts="[C:1](/[N:2]=[C:3](/[O:4][C:5]([C:6]([O:7][H:16])([H:14])[H:15])([H:12])[H:13])[H:11])([H:8])([H:9])[H:10]>>[C:1](=[N:2][C:3]([O:4][C:5]([C:6]([O:7][H:16])([H:14])[H:15])([H:12])[H:13])([H:8])[H:11])([H:9])[H:10]"
C        2.03800961      -0.64672346      -0.77816511
N        0.94308123       0.10525589      -1.03176328
C        0.97603885       0.90239615       0.06541572
O       -0.12485353       1.36597026       0.66875525
C       -1.23602009       0.54403640       1.03043471
C       -1.64131367      -0.60370214       0.11636602
O       -1.90865652      -0.20953491      -1.20019889
H        2.11904900       0.12608619       0.54064880
H        2.02321885      -1.44933963      -0.04607353
H        2.73473420      -0.85006809      -1.59773782
H        1.70066174       1.71408504       0.01886878
H       -1.04169201       0.15670658       2.03725046
H       -2.05500814       1.26127596       1.09316190
H       -0.90236217      -1.41037993       0.15393814
H       -2.57102881      -1.00972623       0.52750925
H       -1.05385855       0.00366192      -1.59841042
16
Frame=3 idx=006763 GeodesicLength=0.26586903033674525 rxn_smarts="[C:1](/[N:2]=[C:3](/[O:4][C:5]([C:6]([O:7][H:16])([H:14])[H:15])([H:12])[H:13])[H:11])([H:8])([H:9])[H:10]>>[C:1](=[N:2][C:3]([O:4][C:5]([C:6]([O:7][H:16])([H:14])[H:15])([H:12])[H:13])([H:8])[H:11])([H:9])[H:10]"
C        2.04568668      -0.62739471      -0.83094900
N        0.94660173       0.13529091      -1.02544201
C        0.98556772       0.88050128       0.10663837
O       -0.11501826       1.36314895       0.69501486
C       -1.26461585       0.58021339       1.01294159
C       -1.63553662      -0.61504063       0.14821186
O       -1.88524326      -0.29091142      -1.19079361
H        2.09716318       0.03040471       0.56004783
H        2.05597677      -1.49423619      -0.17614602
H        2.74364532      -0.74949866      -1.66561337
H        1.73271484       1.67426264       0.10674919
H       -1.14534862       0.25271931       2.05204048
H       -2.07122884       1.31394339       0.97837000
H       -0.88655192      -1.40803087       0.24141497
H       -2.56797905      -1.01494358       0.55945275
H       -1.03583382      -0.03042853      -1.57193790
16
Frame=4 idx=006763 GeodesicLength=0.34897576503347183 rxn_smarts="[C:1](/[N:2]=[C:3](/[O:4][C:5]([C:6]([O:7][H:16])([H:14])[H:15])([H:12])[H:13])[H:11])([H:8])([H:9])[H:10]>>[C:1](=[N:2][C:3]([O:4][C:5]([C:6]([O:7][H:16])([H:14])[H:15])([H:12])[H:13])([H:8])[H:11])([H:9])[H:10]"
C        2.05129114      -0.60478452      -0.88226165
N        0.94987686       0.16662032      -1.01822137
C        0.99404082       0.85639821       0.14771426
O       -0.10395510       1.35740088       0.72570577
C       -1.29046451       0.61470003       0.99340922
C       -1.62988470      -0.62557979       0.18224887
O       -1.85722679      -0.37393218      -1.17631593
H        2.07050842      -0.06917419       0.57068280
H        2.08500998      -1.52833125      -0.31115620
H        2.75096714      -0.64529051      -1.72358099
H        1.76339842       1.62848796       0.19556296
H       -1.24994661       0.35044638       2.05614643
H       -2.07635595       1.35998919       0.85911438
H       -0.87346914      -1.40295601       0.33216544
H       -2.56665861      -1.01638714       0.59258232
H       -1.01713136      -0.06760739      -1.54379631
16
Frame=5 idx=006763 GeodesicLength=0.43064603878574764 rxn_smarts="[C:1](/[N:2]=[C:3](/[O:4][C:5]([C:6]([O:7][H:16])([H:14])[H:15])([H:12])[H:13])[H:11])([H:8])([H:9])[H:10]>>[C:1](=[N:2][C:3]([O:4][C:5]([C:6]([O:7][H:16])([H:14])[H:15])([H:12])[H:13])([H:8])[H:11])([H:9])[H:10]"
C        2.05506572      -0.57913567      -0.93143336
N        0.95265483       0.19848608      -1.00975696
C        1.00136252       0.83038330       0.18802887
O       -0.09200302       1.34803802       0.76090613
C       -1.31307166       0.64683298       0.97226305
C       -1.62519410      -0.63502402       0.21797210
O       -1.82524110      -0.45703236      -1.15665680
H        2.04007730      -0.16979059       0.57171071
H        2.11125018      -1.55057032      -0.44827396
H        2.75665948      -0.53935338      -1.77140406
H        1.79182589       1.57762937       0.28297289
H       -1.35347647       0.44813502       2.04901671
H       -2.06929657       1.39855621       0.73789798
H       -0.86492703      -1.39567260       0.42515443
H       -2.56827592      -1.01332743       0.62564511
H       -0.99741003      -0.10815463      -1.51404283
16
Frame=6 idx=006763 GeodesicLength=0.5115907155614107 rxn_smarts="[C:1](/[N:2]=[C:3](/[O:4][C:5]([C:6]([O:7][H:16])([H:14])[H:15])([H:12])[H:13])[H:11])([H:8])([H:9])[H:10]>>[C:1](=[N:2][C:3]([O:4][C:5]([C:6]([O:7][H:16])([H:14])[H:15])([H:12])[H:13])([H:8])[H:11])([H:9])[H:10]"
C        2.05748775      -0.55064435      -0.97815272
N        0.95470513       0.22991630      -0.99978501
C        1.00758505       0.80249600       0.22714157
O       -0.07950483       1.33443560       0.80026098
C       -1.33216292       0.67626980       0.94986531
C       -1.62240460      -0.64320018       0.25495450
O       -1.79024019      -0.53926749      -1.13180185
H        2.00702597      -0.26925502       0.56298743
H        2.13605000      -1.56059465      -0.58548172
H        2.76092659      -0.43245164      -1.80937602
H        1.81751912       1.52247116       0.36709197
H       -1.45405780       0.54493570       2.03057117
H       -2.04964970       1.42924737       0.61698099
H       -0.86274439      -1.38685726       0.51976816
H       -2.57407585      -1.00514988       0.65752954
H       -0.97645934      -0.15235145      -1.48255430
16
Frame=7 idx=006763 GeodesicLength=0.592058026016556 rxn_smarts="[C:1](/[N:2]=[C:3](/[O:4][C:5]([C:6]([O:7][H:16])([H:14])[H:15])([H:12])[H:13])[H:11])([H:8])([H:9])[H:10]>>[C:1](=[N:2][C:3]([O:4][C:5]([C:6]([O:7][H:16])([H:14])[H:15])([H:12])[H:13])([H:8])[H:11])([H:9])[H:10]"
C        2.05907889      -0.51978423      -1.02202494
N        0.95582550       0.25965737      -0.98823831
C        1.01273510       0.77304027       0.26448674
O       -0.06707768       1.31625564       0.84277662
C       -1.34748574       0.70266269       0.92673539
C       -1.62247629      -0.64988409       0.29251080
O       -1.75359697      -0.61931173      -1.10208650
H        1.97287489      -0.36506780       0.54510347
H        2.16112182      -1.55853792      -0.72019972
H        2.76374513      -0.32601911      -1.83815536
H        1.84003524       1.46462494       0.44583089
H       -1.54897885       0.63935407       2.00136756
H       -2.01779624       1.45181157       0.49938469
H       -0.86873241      -1.37717143       0.61499861
H       -2.58509890      -0.99141810       0.68681972
H       -0.95417350      -0.20021215      -1.44930965
16
Frame=8 idx=006763 GeodesicLength=0.6723611938659172 rxn_smarts="[C:1](/[N:2]=[C:3](/[O:4][C:5]([C:6]([O:7][H:16])([H:14])[H:15])([H:12])[H:13])[H:11])([H:8])([H:9])[H:10]>>[C:1](=[N:2][C:3]([O:4][C:5]([C:6]([O:7][H:16])([H:14])[H:15])([H:12])[H:13])([H:8])[H:11])([H:9])[H:10]"
C        2.06034665      -0.48693942      -1.06301784
N        0.95588733       0.28667676      -0.97525705
C        1.01691895       0.74203286       0.29971375
O       -0.05513935       1.29344813       0.88717120
C       -1.35900763       0.72599197       0.90321725
C       -1.62610667      -0.65496377       0.33012025
O       -1.71662359      -0.69662220      -1.06777658
H        1.93894811      -0.45594745       0.51895373
H        2.18804963      -1.54499662      -0.85097291
H        2.76513977      -0.22044375      -1.85855692
H        1.85933246       1.40526055       0.51804035
H       -1.63608081       0.73088024       1.96239944
H       -1.97505367       1.46632752       0.38730410
H       -0.88413295      -1.36702334       0.71027161
H       -2.60189143      -0.97192684       0.71246742
H       -0.93058679      -0.25175464      -1.41407781
16
Frame=9 idx=006763 GeodesicLength=0.7525851295924955 rxn_smarts="[C:1](/[N:2]=[C:3](/[O:4][C:5]([C:6]([O:7][H:16])([H:14])[H:15])([H:12])[H:13])[H:11])([H:8])([H:9])[H:10]>>[C:1](=[N:2][C:3]([O:4][C:5]([C:6]([O:7][H:16])([H:14])[H:15])([H:12])[H:13])([H:8])[H:11])([H:9])[H:10]"
C        2.06153671      -0.45266502      -1.10112697
N        0.95467108       0.30986238      -0.96105116
C        1.01991903       0.70942871       0.33256940
O       -0.04408266       1.26610924       0.93222278
C       -1.36673611       0.74626992       0.87970960
C       -1.63350931      -0.65815269       0.36713182
O       -1.68032686      -0.77056874      -1.02934106
H        1.90632526      -0.54080277       0.48565648
H        2.21875371      -1.52066830      -0.97610230
H        2.76432125      -0.11665369      -1.87198390
H        1.87498664       1.34550583       0.58303346
H       -1.71340659       0.81879430       1.91521944
H       -1.92314726       1.47297421       0.28266382
H       -0.90955223      -1.35613602       0.80466636
H       -2.62407723      -0.94652248       0.73338186
H       -0.90567542      -0.30677490      -1.37664962
16
Frame=10 idx=006763 GeodesicLength=0.8331668591534632 rxn_smarts="[C:1](/[N:2]=[C:3](/[O:4][C:5]([C:6]([O:7][H:16])([H:14])[H:15])([H:12])[H:13])[H:11])([H:8])([H:9])[H:10]>>[C:1](=[N:2][C:3]([O:4][C:5]([C:6]([O:7][H:16])([H:14])[H:15])([H:12])[H:13])([H:8])[H:11])([H:9])[H:10]"
C        2.06274575      -0.41747540      -1.13659413
N        0.95243702       0.32919016      -0.94629334
C        1.02221264       0.67562518       0.36277181
O       -0.03416131       1.23506085       0.97638256
C       -1.37089226       0.76364006       0.85643695
C       -1.64477741      -0.65965677       0.40316998
O       -1.64563492      -0.84139311      -0.98716038
H        1.87588005      -0.61947016       0.44651128
H        2.25268393      -1.48684129      -1.09517939
H        2.76181265      -0.01487286      -1.87872344
H        1.88789950       1.28652652       0.64060081
H       -1.77944881       0.90273261       1.86161929
H       -1.86465707       1.47216242       0.18651932
H       -0.94499915      -1.34450910       0.89794810
H       -2.65130599      -0.91601660       0.74889031
H       -0.87979461      -0.36470250      -1.33689973
16
Frame=11 idx=006763 GeodesicLength=0.914183782413516 rxn_smarts="[C:1](/[N:2]=[C:3](/[O:4][C:5]([C:6]([O:7][H:16])([H:14])[H:15])([H:12])[H:13])[H:11])([H:8])([H:9])[H:10]>>[C:1](=[N:2][C:3]([O:4][C:5]([C:6]([O:7][H:16])([H:14])[H:15])([H:12])[H:13])([H:8])[H:11])([H:9])[H:10]"
C        2.06374525      -0.38213498      -1.16956767
N        0.94935446       0.34466416      -0.93151718
C        1.02397212       0.64120588       0.39010477
O       -0.02560365       1.20116879       1.01850774
C       -1.37172481       0.77814840       0.83373439
C       -1.65939684      -0.65954834       0.43769784
O       -1.61287497      -0.90893006      -0.94175859
H        1.84804278      -0.69160448       0.40292785
H        2.28914808      -1.44489258      -1.20750449
H        2.75754920       0.08358414      -1.87943000
H        1.89844088       1.22957597       0.69065010
H       -1.83336185       0.98186493       1.80371787
H       -1.80215171       1.46446116       0.09970017
H       -0.98969848      -1.33166028       0.98925607
H       -2.68225341      -0.88140451       0.75827312
H       -0.85318705      -0.42449818      -1.29479200
16
Frame=12 idx=006763 GeodesicLength=0.9958322929096334 rxn_smarts="[C:1](/[N:2]=[C:3](/[O:4][C:5]([C:6]([O:7][H:16])([H:14])[H:15])([H:12])[H:13])[H:11])([H:8])([H:9])[H:10]>>[C:1](=[N:2][C:3]([O:4][C:5]([C:6]([O:7][H:16])([H:14])[H:15])([H:12])[H:13])([H:8])[H:11])([H:9])[H:10]"
C        2.06424306      -0.34714086      -1.20033012
N        0.94551807       0.35656649      -0.91706610
C        1.02526242       0.60649234       0.41461010
O       -0.01833077       1.16521607       1.05804655
C       -1.36956381       0.78997764       0.81176108
C       -1.67658977      -0.65789472       0.47042261
O       -1.58183979      -0.97339211      -0.89338983
H        1.82271721      -0.75757660       0.35594838
H        2.32732189      -1.39604458      -1.31307045
H        2.75130639       0.17799940      -1.87487648
H        1.90696104       1.17509333       0.73379571
H       -1.87543383       1.05590587       1.74316137
H       -1.73780731       1.45051489       0.02199959
H       -1.04243135      -1.31675328       1.07799629
H       -2.71531491      -0.84362525       0.76124359
H       -0.82601854      -0.48533865      -1.25025227
16
Frame=13 idx=006763 GeodesicLength=1.0781537429405395 rxn_smarts="[C:1](/[N:2]=[C:3](/[O:4][C:5]([C:6]([O:7][H:16])([H:14])[H:15])([H:12])[H:13])[H:11])([H:8])([H:9])[H:10]>>[C:1](=[N:2][C:3]([O:4][C:5]([C:6]([O:7][H:16])([H:14])[H:15])([H:12])[H:13])([H:8])[H:11])([H:9])[H:10]"
C        2.06406228      -0.31300387      -1.22923016
N        0.94106446       0.36501253      -0.90321578
C        1.02631753       0.57179998       0.43635391
O       -0.01214110       1.12777009       1.09479773
C       -1.36481974       0.79929546       0.79073351
C       -1.69582537      -0.65482057       0.50108008
O       -1.55250557      -1.03493977      -0.84233554
H        1.80013788      -0.81767859       0.30661743
H        2.36667799      -1.34142243      -1.41183726
H        2.74305088       0.26783088      -1.86579430
H        1.91390083       1.12369258       0.77037779
H       -1.90630472       1.12459720       1.68163348
H       -1.67338295       1.43119765      -0.04695621
H       -1.10226535      -1.29925022       1.16346022
H       -2.74932922      -0.80361312       0.75769600
H       -0.79863782      -0.54646781      -1.20338089
16
Frame=14 idx=006763 GeodesicLength=1.1610898937336867 rxn_smarts="[C:1](/[N:2]=[C:3](/[O:4][C:5]([C:6]([O:7][H:16])([H:14])[H:15])([H:12])[H:13])[H:11])([H:8])([H:9])[H:10]>>[C:1](=[N:2][C:3]([O:4][C:5]([C:6]([O:7][H:16])([H:14])[H:15])([H:12])[H:13])([H:8])[H:11])([H:9])[H:10]"
C        2.06293330      -0.28010830      -1.25648196
N        0.93612219       0.37044972      -0.89009593
C        1.02726276       0.53753489       0.45555496
O       -0.00688089       1.08945559       1.12876762
C       -1.35784272       0.80629544       0.77075811
C       -1.71628154      -0.65051016       0.52951462
O       -1.52442843      -1.09375048      -0.78878318
H        1.77992928      -0.87242412       0.25585553
H        2.40582859      -1.28215811      -1.50423717
H        2.73285100       0.35248233      -1.85273865
H        1.91963435       1.07568405       0.80112352
H       -1.92706350       1.18781245       1.62027910
H       -1.61022407       1.40731189      -0.10786956
H       -1.16774535      -1.27853497       1.24504085
H       -2.78283579      -0.76249284       0.74769451
H       -0.77125920      -0.60704739      -1.15438236
16
Frame=15 idx=006763 GeodesicLength=1.2443960249078467 rxn_smarts="[C:1](/[N:2]=[C:3](/[O:4][C:5]([C:6]([O:7][H:16])([H:14])[H:15])([H:12])[H:13])[H:11])([H:8])([H:9])[H:10]>>[C:1](=[N:2][C:3]([O:4][C:5]([C:6]([O:7][H:16])([H:14])[H:15])([H:12])[H:13])([H:8])[H:11])([H:9])[H:10]"
C        2.06064614      -0.24887444      -1.28225519
N        0.93078981       0.37317311      -0.87775690
C        1.02821222       0.50413662       0.47244945
O       -0.00241736       1.05070179       1.16015395
C       -1.34897825       0.81115532       0.75199214
C       -1.73725944      -0.64514979       0.55555349
O       -1.49738219      -1.14967747      -0.73308257
H        1.76178192      -0.92219691       0.20463096
H        2.44394549      -1.21938160      -1.59029245
H        2.72065560       0.43128317      -1.83654493
H        1.92440024       1.03153829       0.82657017
H       -1.93887687       1.24534198       1.56020378
H       -1.54926597       1.37979166      -0.16133006
H       -1.23744613      -1.25431995       1.32189537
H       -2.81461425      -0.72134216       0.73147881
H       -0.74419095      -0.66617963      -1.10366604
16
Frame=16 idx=006763 GeodesicLength=1.3278539057966525 rxn_smarts="[C:1](/[N:2]=[C:3](/[O:4][C:5]([C:6]([O:7][H:16])([H:14])[H:15])([H:12])[H:13])[H:11])([H:8])([H:9])[H:10]>>[C:1](=[N:2][C:3]([O:4][C:5]([C:6]([O:7][H:16])([H:14])[H:15])([H:12])[H:13])([H:8])[H:11])([H:9])[H:10]"
C        2.05712832      -0.21955758      -1.30669482
N        0.92518963       0.37346139      -0.86615545
C        1.02930045       0.47191136       0.48735391
O        0.00137316       1.01182061       1.18923729
C       -1.33856317       0.81409951       0.73450896
C       -1.75822196      -0.63894358       0.57913290
O       -1.47119815      -1.20266295      -0.67550956
H        1.74538333      -0.96750725       0.15372356
H        2.48021862      -1.15399364      -1.67035533
H        2.70655981       0.50393600      -1.81791351
H        1.92843184       0.99152747       0.84734511
H       -1.94299529       1.29729185       1.50216232
H       -1.49105117       1.34951882      -0.20807586
H       -1.31010375      -1.22653576       1.39337516
H       -2.84377250      -0.68108957       0.70950198
H       -0.71767919      -0.72327668      -1.05163665
