15
Frame=0 idx=011074 GeodesicLength=0.0 rxn_smarts="[C:1]([c:2]1[c:3]([H:11])[c:4]([N:5]([H:12])[H:13])[c:6]([H:14])[n:7]1[H:15])([H:8])([H:9])[H:10]>>[C:1]([C:2]1=[N:7][C:6]([H:14])=[C:4]([N:5]([H:12])[H:13])[C:3]1([H:11])[H:15])([H:8])([H:9])[H:10]"
C        2.35536804      -0.36651966      -0.06138119
C        0.90566908      -0.07777847       0.17270700
C       -0.21335030      -0.75076638      -0.33580374
C       -1.29892006       0.11295356      -0.22169955
N       -2.60322141      -0.12698499      -0.63481532
C       -0.82262939       1.28673178       0.37189976
N        0.50476910       1.23754364       0.58707078
H        2.97803515       0.20362491       0.62789483
H        2.56631822      -1.42825762       0.07094921
H        2.63729790      -0.08628408      -1.07844830
H       -0.21581936      -1.74836936      -0.75095140
H       -3.30596500       0.40952236      -0.15541159
H       -2.85442800      -1.09865449      -0.69983940
H       -1.39864808       2.13843343       0.70616916
H        0.76552412       0.29480531       1.40165971
15
Frame=1 idx=011074 GeodesicLength=0.09457339427291085 rxn_smarts="[C:1]([c:2]1[c:3]([H:11])[c:4]([N:5]([H:12])[H:13])[c:6]([H:14])[n:7]1[H:15])([H:8])([H:9])[H:10]>>[C:1]([C:2]1=[N:7][C:6]([H:14])=[C:4]([N:5]([H:12])[H:13])[C:3]1([H:11])[H:15])([H:8])([H:9])[H:10]"
C        2.36045615      -0.36108547      -0.06970104
C        0.91249183      -0.06444235       0.15387968
C       -0.21860969      -0.76622842      -0.28844157
C       -1.29864302       0.11653833      -0.22387820
N       -2.60169329      -0.12888411      -0.63875313
C       -0.82298156       1.29205051       0.36055202
N        0.50328539       1.22834468       0.59969386
H        2.98366884       0.20567329       0.62197897
H        2.56869154      -1.42341299       0.06255734
H        2.64548446      -0.08302838      -1.08661661
H       -0.20997897      -1.74104764      -0.75578523
H       -3.30529144       0.42182320      -0.17674493
H       -2.85720330      -1.10084418      -0.67956867
H       -1.39838394       2.14151861       0.70130525
H        0.73870699       0.26302492       1.41952226
15
Frame=2 idx=011074 GeodesicLength=0.18904024137761793 rxn_smarts="[C:1]([c:2]1[c:3]([H:11])[c:4]([N:5]([H:12])[H:13])[c:6]([H:14])[n:7]1[H:15])([H:8])([H:9])[H:10]>>[C:1]([C:2]1=[N:7][C:6]([H:14])=[C:4]([N:5]([H:12])[H:13])[C:3]1([H:11])[H:15])([H:8])([H:9])[H:10]"
C        2.36500294      -0.35548579      -0.07796782
C        0.91832242      -0.05174951       0.13495739
C       -0.22172606      -0.77681629      -0.24992539
C       -1.29774601       0.12050899      -0.22755715
N       -2.60011402      -0.13088151      -0.64225007
C       -0.82285815       1.29734159       0.34886110
N        0.50188351       1.21845576       0.61178453
H        2.98829508       0.20567389       0.61836231
H        2.57024082      -1.41879175       0.05155952
H        2.65491310      -0.07667534      -1.09343507
H       -0.20621118      -1.73555825      -0.75084262
H       -3.30404153       0.43231679      -0.19580085
H       -2.85921335      -1.10269171      -0.65964527
H       -1.39759266       2.14452452       0.69615817
H        0.71084511       0.22982860       1.43574121
15
Frame=3 idx=011074 GeodesicLength=0.2834550037603018 rxn_smarts="[C:1]([c:2]1[c:3]([H:11])[c:4]([N:5]([H:12])[H:13])[c:6]([H:14])[n:7]1[H:15])([H:8])([H:9])[H:10]>>[C:1]([C:2]1=[N:7][C:6]([H:14])=[C:4]([N:5]([H:12])[H:13])[C:3]1([H:11])[H:15])([H:8])([H:9])[H:10]"
C        2.36913701      -0.34983999      -0.08596155
C        0.92345892      -0.03958077       0.11632969
C       -0.22323473      -0.78384734      -0.21814227
C       -1.29659491       0.12460139      -0.23181448
N       -2.59855483      -0.13307375      -0.64510243
C       -0.82236810       1.30254506       0.33708008
N        0.50054031       1.20808186       0.62299905
H        2.99215164       0.20423525       0.61639706
H        2.57123274      -1.41431317       0.03912737
H        2.66517132      -0.06840617      -1.09903977
H       -0.20352390      -1.73146799      -0.74068976
H       -3.30244408       0.44163384      -0.21325768
H       -2.86075640      -1.10429092      -0.63933240
H       -1.39629707       2.14758789       0.69066457
H        0.68208208       0.19613483       1.45074251
15
Frame=4 idx=011074 GeodesicLength=0.37800435747371325 rxn_smarts="[C:1]([c:2]1[c:3]([H:11])[c:4]([N:5]([H:12])[H:13])[c:6]([H:14])[n:7]1[H:15])([H:8])([H:9])[H:10]>>[C:1]([C:2]1=[N:7][C:6]([H:14])=[C:4]([N:5]([H:12])[H:13])[C:3]1([H:11])[H:15])([H:8])([H:9])[H:10]"
C        2.37289631      -0.34429590      -0.09357517
C        0.92808325      -0.02788167       0.09826099
C       -0.22364613      -0.78864204      -0.19066008
C       -1.29539182       0.12854396      -0.23589936
N       -2.59704399      -0.13545804      -0.64726166
C       -0.82160679       1.30757518       0.32542511
N        0.49931222       1.19746919       0.63306947
H        2.99548087       0.20202144       0.61532756
H        2.57182199      -1.40997916       0.02640073
H        2.67574511      -0.05947425      -1.10377645
H       -0.20115306      -1.72782907      -0.72895849
H       -3.30063290       0.44993204      -0.22934015
H       -2.86204046      -1.10562680      -0.61888721
H       -1.39453563       2.15075887       0.68482138
H        0.65271102       0.16288625       1.46505334
15
Frame=5 idx=011074 GeodesicLength=0.4728233830129408 rxn_smarts="[C:1]([c:2]1[c:3]([H:11])[c:4]([N:5]([H:12])[H:13])[c:6]([H:14])[n:7]1[H:15])([H:8])([H:9])[H:10]>>[C:1]([C:2]1=[N:7][C:6]([H:14])=[C:4]([N:5]([H:12])[H:13])[C:3]1([H:11])[H:15])([H:8])([H:9])[H:10]"
C        2.37634134      -0.33888018      -0.10086639
C        0.93232687      -0.01652733       0.08059578
C       -0.22317171      -0.79179208      -0.16643277
C       -1.29417869       0.13230451      -0.23970619
N       -2.59551556      -0.13807349      -0.64883533
C       -0.82064028       1.31237632       0.31403086
N        0.49820286       1.18667395       0.64202436
H        2.99833876       0.19928000       0.61479118
H        2.57210819      -1.40573745       0.01372635
H        2.68651918      -0.05035003      -1.10782201
H       -0.19883602      -1.72430307      -0.71679013
H       -3.29873211       0.45757738      -0.24474932
H       -2.86301113      -1.10672357      -0.59783520
H       -1.39241237       2.15389225       0.67894417
H        0.62266067       0.13028277       1.47892464
15
Frame=6 idx=011074 GeodesicLength=0.5678470814224733 rxn_smarts="[C:1]([c:2]1[c:3]([H:11])[c:4]([N:5]([H:12])[H:13])[c:6]([H:14])[n:7]1[H:15])([H:8])([H:9])[H:10]>>[C:1]([C:2]1=[N:7][C:6]([H:14])=[C:4]([N:5]([H:12])[H:13])[C:3]1([H:11])[H:15])([H:8])([H:9])[H:10]"
C        2.37950625      -0.33361677      -0.10788558
C        0.93625826      -0.00549515       0.06335960
C       -0.22204906      -0.79392428      -0.14422559
C       -1.29301202       0.13579776      -0.24294617
N       -2.59398476      -0.14079100      -0.64993729
C       -0.81950961       1.31692106       0.30300060
N        0.49728729       1.17581918       0.64986231
H        3.00091277       0.19638422       0.61437080
H        2.57216400      -1.40158797       0.00151478
H        2.69723430      -0.04153031      -1.11148998
H       -0.19642473      -1.72063884      -0.70501814
H       -3.29670748       0.46443460      -0.25925792
H       -2.86382237      -1.10749640      -0.57712136
H       -1.38993966       2.15700835       0.67307662
H        0.59208682       0.09871555       1.49269733
15
Frame=7 idx=011074 GeodesicLength=0.6631285166516239 rxn_smarts="[C:1]([c:2]1[c:3]([H:11])[c:4]([N:5]([H:12])[H:13])[c:6]([H:14])[n:7]1[H:15])([H:8])([H:9])[H:10]>>[C:1]([C:2]1=[N:7][C:6]([H:14])=[C:4]([N:5]([H:12])[H:13])[C:3]1([H:11])[H:15])([H:8])([H:9])[H:10]"
C        2.38243483      -0.32847652      -0.11472339
C        0.93994308       0.00530856       0.04633797
C       -0.22034881      -0.79529946      -0.12357762
C       -1.29188293       0.13904745      -0.24566754
N       -2.59240422      -0.14361202      -0.65067898
C       -0.81824129       1.32118741       0.29239274
N        0.49658360       1.16488363       0.65671474
H        3.00323461       0.19344178       0.61392094
H        2.57204596      -1.39748722      -0.01020784
H        2.70790118      -0.03310090      -1.11490881
H       -0.19388751      -1.71681773      -0.69372982
H       -3.29461321       0.47071972      -0.27328899
H       -2.86445591      -1.10794346      -0.55652896
H       -1.38716769       2.16001513       0.66741529
H        0.56085830       0.06813361       1.50653026
15
Frame=8 idx=011074 GeodesicLength=0.7585502231364885 rxn_smarts="[C:1]([c:2]1[c:3]([H:11])[c:4]([N:5]([H:12])[H:13])[c:6]([H:14])[n:7]1[H:15])([H:8])([H:9])[H:10]>>[C:1]([C:2]1=[N:7][C:6]([H:14])=[C:4]([N:5]([H:12])[H:13])[C:3]1([H:11])[H:15])([H:8])([H:9])[H:10]"
C        2.38515434      -0.32344619      -0.12144133
C        0.94341944       0.01596641       0.02937508
C       -0.21812409      -0.79602602      -0.10422313
C       -1.29076281       0.14211187      -0.24795090
N       -2.59076899      -0.14649537      -0.65111107
C       -0.81683631       1.32521247       0.28218756
N        0.49611145       1.15385877       0.66269467
H        3.00533878       0.19049356       0.61337618
H        2.57175458      -1.39342828      -0.02145351
H        2.71853755      -0.02510269      -1.11815761
H       -0.19124027      -1.71287059      -0.68278135
H       -3.29239541       0.47637971      -0.28669420
H       -2.86491162      -1.10808694      -0.53632541
H       -1.38410042       2.16292922       0.66198393
H        0.52882379       0.03850408       1.52052107
15
Frame=9 idx=011074 GeodesicLength=0.8532863368943426 rxn_smarts="[C:1]([c:2]1[c:3]([H:11])[c:4]([N:5]([H:12])[H:13])[c:6]([H:14])[n:7]1[H:15])([H:8])([H:9])[H:10]>>[C:1]([C:2]1=[N:7][C:6]([H:14])=[C:4]([N:5]([H:12])[H:13])[C:3]1([H:11])[H:15])([H:8])([H:9])[H:10]"
C        2.38775577      -0.31845322      -0.12811225
C        0.94670794       0.02641486       0.01267872
C       -0.21547720      -0.79621963      -0.08592217
C       -1.28958442       0.14501993      -0.24989836
N       -2.58908794      -0.14943988      -0.65138445
C       -0.81525660       1.32901324       0.27233929
N        0.49582458       1.14265553       0.66817795
H        3.00741788       0.18760797       0.61264985
H        2.57138807      -1.38937195      -0.03246397
H        2.72897247      -0.01730771      -1.12138046
H       -0.18848935      -1.70891988      -0.67178355
H       -3.29017232       0.48162085      -0.29995977
H       -2.86528633      -1.10790337      -0.51631133
H       -1.38073667       2.16575100       0.65673802
H        0.49602413       0.00953225       1.53463248
15
Frame=10 idx=011074 GeodesicLength=0.9481497076790983 rxn_smarts="[C:1]([c:2]1[c:3]([H:11])[c:4]([N:5]([H:12])[H:13])[c:6]([H:14])[n:7]1[H:15])([H:8])([H:9])[H:10]>>[C:1]([C:2]1=[N:7][C:6]([H:14])=[C:4]([N:5]([H:12])[H:13])[C:3]1([H:11])[H:15])([H:8])([H:9])[H:10]"
C        2.39019112      -0.31353616      -0.13477290
C        0.94983823       0.03683260      -0.00420535
C       -0.21235720      -0.79598599      -0.06841981
C       -1.28837984       0.14779535      -0.25149191
N       -2.58730158      -0.15241856      -0.65143974
C       -0.81353666       1.33259593       0.26290220
N        0.49580320       1.13131644       0.67295601
H        3.00932429       0.18482132       0.61168789
H        2.57088271      -1.38532257      -0.04299632
H        2.73939186      -0.01001914      -1.12458910
H       -0.18559986      -1.70484516      -0.66111195
H       -3.28781360       0.48632769      -0.31272653
H       -2.86544116      -1.10744456      -0.49672655
H       -1.37708341       2.16845094       0.65183555
H        0.46208191      -0.01856814       1.54909852
15
Frame=11 idx=011074 GeodesicLength=1.0431820566156633 rxn_smarts="[C:1]([c:2]1[c:3]([H:11])[c:4]([N:5]([H:12])[H:13])[c:6]([H:14])[n:7]1[H:15])([H:8])([H:9])[H:10]>>[C:1]([C:2]1=[N:7][C:6]([H:14])=[C:4]([N:5]([H:12])[H:13])[C:3]1([H:11])[H:15])([H:8])([H:9])[H:10]"
C        2.39246741      -0.30866378      -0.14150782
C        0.95283191       0.04728686      -0.02140849
C       -0.20875465      -0.79536496      -0.05156384
C       -1.28710243       0.15046035      -0.25278954
N       -2.58536442      -0.15542713      -0.65135134
C       -0.81165691       1.33596597       0.25389040
N        0.49606867       1.11977393       0.67713214
H        3.01106248       0.18215103       0.61042019
H        2.57025057      -1.38125049      -0.05314009
H        2.74980152      -0.00320532      -1.12786352
H       -0.18256704      -1.70071406      -0.65053527
H       -3.28529994       0.49058663      -0.32518036
H       -2.86533541      -1.10671218      -0.47750456
H       -1.37313855       2.17097896       0.64738927
H        0.42673678      -0.04586582       1.56401283
15
Frame=12 idx=011074 GeodesicLength=1.1382893414278514 rxn_smarts="[C:1]([c:2]1[c:3]([H:11])[c:4]([N:5]([H:12])[H:13])[c:6]([H:14])[n:7]1[H:15])([H:8])([H:9])[H:10]>>[C:1]([C:2]1=[N:7][C:6]([H:14])=[C:4]([N:5]([H:12])[H:13])[C:3]1([H:11])[H:15])([H:8])([H:9])[H:10]"
C        2.39458875      -0.30381527      -0.14838108
C        0.95569420       0.05779868      -0.03895942
C       -0.20466793      -0.79439065      -0.03519057
C       -1.28571639       0.15303560      -0.25381914
N       -2.58323876      -0.15844495      -0.65117316
C       -0.80959136       1.33914049       0.24530878
N        0.49664543       1.10798311       0.68080536
H        3.01266646       0.17962526       0.60877148
H        2.56950188      -1.37714103      -0.06296543
H        2.76015557       0.00315831      -1.13129066
H       -0.17938329      -1.69656912      -0.63987649
H       -3.28257792       0.49440612      -0.33730171
H       -2.86493993      -1.10573531      -0.45877830
H       -1.36887197       2.17334847       0.64340827
H        0.38973529      -0.07239972       1.57944206
15
Frame=13 idx=011074 GeodesicLength=1.2334813348340898 rxn_smarts="[C:1]([c:2]1[c:3]([H:11])[c:4]([N:5]([H:12])[H:13])[c:6]([H:14])[n:7]1[H:15])([H:8])([H:9])[H:10]>>[C:1]([C:2]1=[N:7][C:6]([H:14])=[C:4]([N:5]([H:12])[H:13])[C:3]1([H:11])[H:15])([H:8])([H:9])[H:10]"
C        2.39657433      -0.29895960      -0.15546907
C        0.95843265       0.06838598      -0.05689224
C       -0.20007341      -0.79310843      -0.01913677
C       -1.28417084       0.15552541      -0.25461948
N       -2.58087362      -0.16147513      -0.65096430
C       -0.80730899       1.34211059       0.23718483
N        0.49756109       1.09587320       0.68407484
H        3.01417785       0.17726818       0.60666288
H        2.56867176      -1.37296532      -0.07257214
H        2.77041751       0.00912472      -1.13496238
H       -0.17601842      -1.69245769      -0.62897956
H       -3.27964509       0.49786612      -0.34930809
H       -2.86423191      -1.10448850      -0.44043425
H       -1.36426341       2.17552154       0.63996629
H        0.35075052      -0.09822106       1.59544943
15
Frame=14 idx=011074 GeodesicLength=1.328626894516765 rxn_smarts="[C:1]([c:2]1[c:3]([H:11])[c:4]([N:5]([H:12])[H:13])[c:6]([H:14])[n:7]1[H:15])([H:8])([H:9])[H:10]>>[C:1]([C:2]1=[N:7][C:6]([H:14])=[C:4]([N:5]([H:12])[H:13])[C:3]1([H:11])[H:15])([H:8])([H:9])[H:10]"
C        2.39841185      -0.29408542      -0.16282952
C        0.96104695       0.07904856      -0.07514681
C       -0.19497556      -0.79153062      -0.00322870
C       -1.28241819       0.15795169      -0.25521394
N       -2.57821685      -0.16449611      -0.65077918
C       -0.80477473       1.34489930       0.22952466
N        0.49884068       1.08341487       0.68703966
H        3.01564232       0.17510139       0.60399956
H        2.56775601      -1.36871946      -0.08203542
H        2.78047948       0.01471307      -1.13897244
H       -0.17245505      -1.68840269      -0.61766896
H       -3.27641702       0.50094122      -0.36110206
H       -2.86316501      -1.10302699      -0.42269611
H       -1.35927652       2.17752957       0.63704471
H        0.30952165      -0.12333838       1.61206456
15
Frame=15 idx=011074 GeodesicLength=1.423670209078914 rxn_smarts="[C:1]([c:2]1[c:3]([H:11])[c:4]([N:5]([H:12])[H:13])[c:6]([H:14])[n:7]1[H:15])([H:8])([H:9])[H:10]>>[C:1]([C:2]1=[N:7][C:6]([H:14])=[C:4]([N:5]([H:12])[H:13])[C:3]1([H:11])[H:15])([H:8])([H:9])[H:10]"
C        2.40011146      -0.28917266      -0.17053098
C        0.96353645       0.08977489      -0.09365172
C       -0.18936467      -0.78968541       0.01271787
C       -1.28040415       0.16032016      -0.25562603
N       -2.57521218      -0.16750144      -0.65068459
C       -0.80195068       1.34750708       0.22235689
N        0.50050940       1.07055920       0.68980825
H        3.01712729       0.17314721       0.60067958
H        2.56678166      -1.36438663      -0.09146006
H        2.79024205       0.01997361      -1.14342904
H       -0.16866082      -1.68443894      -0.60576434
H       -3.27285379       0.50366870      -0.37278670
H       -2.86170906      -1.10135827      -0.40559986
H       -1.35388483       2.17936355       0.63467735
H        0.26573187      -0.14777106       1.62929340
15
Frame=16 idx=011074 GeodesicLength=1.5185731868920584 rxn_smarts="[C:1]([c:2]1[c:3]([H:11])[c:4]([N:5]([H:12])[H:13])[c:6]([H:14])[n:7]1[H:15])([H:8])([H:9])[H:10]>>[C:1]([C:2]1=[N:7][C:6]([H:14])=[C:4]([N:5]([H:12])[H:13])[C:3]1([H:11])[H:15])([H:8])([H:9])[H:10]"
C        2.40168327      -0.28420302      -0.17863327
C        0.96590372       0.10054989      -0.11230837
C       -0.18323281      -0.78759153       0.02886606
C       -1.27806493       0.16263943      -0.25590004
N       -2.57180430      -0.17050536      -0.65073573
C       -0.79880266       1.34993047       0.21571779
N        0.50258956       1.05726630       0.69249082
H        3.01870454       0.17141910       0.59661274
H        2.56577302      -1.35995330      -0.10095481
H        2.79960327       0.02496907      -1.14843127
H       -0.16459318      -1.68058554      -0.59311434
H       -3.26890842       0.50609082      -0.38451915
H       -2.85984225      -1.09947529      -0.38907966
H       -1.34807115       2.18100942       0.63289480
H        0.21906232      -0.17156046       1.64709444
