14
Frame=0 idx=004198 GeodesicLength=0.0 rxn_smarts="[C:1]1([H:7])([H:8])[N:2]([H:9])[C@:3]1([C@@:4]1([H:11])[C:5]([H:12])([H:13])[N:6]1[H:14])[H:10]>>[C:1]1([H:7])([H:8])[N:2]([H:9])[C@:3]1([C:4](/[C:5](=[N:6]\[H:14])[H:12])([H:11])[H:13])[H:10]"
C        1.72587207       0.23146389      -0.01542101
N        1.24084475      -1.06399932       0.33468160
C        0.64236220      -0.41916876      -0.85047442
C       -0.75016662      -0.10090983      -0.84640268
C       -1.57535629       0.06277898       0.34786335
N       -0.97531785       0.26232100       1.57975389
H        2.69539262       0.26265160      -0.49824410
H        1.47358389       1.08052995       0.60821112
H        0.57729694      -0.95853378       1.11918425
H        1.00068656      -0.80254894      -1.80040820
H       -1.21651851       0.06742074      -1.81409991
H       -2.39619155      -0.67475589       0.35553978
H       -2.09870196       0.99896754      -0.01116853
H       -0.34378627       1.05378281       1.49098490
14
Frame=1 idx=004198 GeodesicLength=0.1083286779431938 rxn_smarts="[C:1]1([H:7])([H:8])[N:2]([H:9])[C@:3]1([C@@:4]1([H:11])[C:5]([H:12])([H:13])[N:6]1[H:14])[H:10]>>[C:1]1([H:7])([H:8])[N:2]([H:9])[C@:3]1([C:4](/[C:5](=[N:6]\[H:14])[H:12])([H:11])[H:13])[H:10]"
C        1.73641022       0.22482895      -0.02827343
N        1.24764502      -1.06649210       0.33990874
C        0.63829313      -0.42623759      -0.83932264
C       -0.74561531      -0.05950053      -0.82587974
C       -1.59717802       0.04109290       0.35379731
N       -0.98764698       0.26356093       1.57199704
H        2.70253116       0.24520270      -0.51848107
H        1.49755473       1.07971976       0.59294732
H        0.59935191      -0.95188001       1.13398747
H        0.97432673      -0.83014775      -1.78901790
H       -1.19362085       0.13823053      -1.79730175
H       -2.38199400      -0.73184939       0.35005197
H       -2.10338727       0.99475959      -0.03350656
H       -0.38667046       1.07871203       1.48909323
14
Frame=2 idx=004198 GeodesicLength=0.21664529738555827 rxn_smarts="[C:1]1([H:7])([H:8])[N:2]([H:9])[C@:3]1([C@@:4]1([H:11])[C:5]([H:12])([H:13])[N:6]1[H:14])[H:10]>>[C:1]1([H:7])([H:8])[N:2]([H:9])[C@:3]1([C:4](/[C:5](=[N:6]\[H:14])[H:12])([H:11])[H:13])[H:10]"
C        1.74677051       0.21843376      -0.04193733
N        1.25464795      -1.06839443       0.34509606
C        0.63360027      -0.43265360      -0.82774958
C       -0.74082779      -0.01978462      -0.80373471
C       -1.61866088       0.02094910       0.35776595
N       -1.00169449       0.26288154       1.56385959
H        2.70894482       0.22779560      -0.54020942
H        1.52169368       1.07910124       0.57672262
H        0.62229070      -0.94428968       1.14877855
H        0.94611850      -0.85676746      -1.77677673
H       -1.17037640       0.20454943      -1.77833953
H       -2.36502474      -0.78663047       0.34205573
H       -2.10508310       0.99382243      -0.05582144
H       -0.43239903       1.10098716       1.49029022
14
Frame=3 idx=004198 GeodesicLength=0.3249629693581736 rxn_smarts="[C:1]1([H:7])([H:8])[N:2]([H:9])[C@:3]1([C@@:4]1([H:11])[C:5]([H:12])([H:13])[N:6]1[H:14])[H:10]>>[C:1]1([H:7])([H:8])[N:2]([H:9])[C@:3]1([C:4](/[C:5](=[N:6]\[H:14])[H:12])([H:11])[H:13])[H:10]"
C        1.75700188       0.21226388      -0.05645890
N        1.26191413      -1.06965022       0.35031650
C        0.62843313      -0.43846740      -0.81574019
C       -0.73584060       0.01815726      -0.78014755
C       -1.63990118       0.00212383       0.35981157
N       -1.01735966       0.26024706       1.55545094
H        2.71469151       0.21032618      -0.56340271
H        1.54608178       1.07878789       0.55929350
H        0.64617983      -0.93562071       1.16356363
H        0.91633128      -0.88251448      -1.76354301
H       -1.14677779       0.26657036      -1.75758328
H       -2.34576045      -0.83873600       0.33176044
H       -2.10387108       0.99596925      -0.07792547
H       -0.48112276       1.12054310       1.49460451
14
Frame=4 idx=004198 GeodesicLength=0.4332957724011421 rxn_smarts="[C:1]1([H:7])([H:8])[N:2]([H:9])[C@:3]1([C@@:4]1([H:11])[C:5]([H:12])([H:13])[N:6]1[H:14])[H:10]>>[C:1]1([H:7])([H:8])[N:2]([H:9])[C@:3]1([C:4](/[C:5](=[N:6]\[H:14])[H:12])([H:11])[H:13])[H:10]"
C        1.76716862       0.20629261      -0.07190102
N        1.26951528      -1.07019095       0.35567021
C        0.62293582      -0.44374763      -0.80326231
C       -0.73065937       0.05433840      -0.75525535
C       -1.66093972      -0.01562418       0.35996942
N       -1.03455621       0.25565285       1.54684342
H        2.71983469       0.19265877      -0.58806455
H        1.57081590       1.07887726       0.54039157
H        0.67110729      -0.92568268       1.17837529
H        0.88520246      -0.90753707      -1.74915228
H       -1.12275921       0.32463533      -1.73530039
H       -2.32475187      -0.88786155       0.31931306
H       -2.09990754       1.00092089      -0.09961217
H       -0.53300614       1.13726794       1.50198510
14
Frame=5 idx=004198 GeodesicLength=0.5416375874977974 rxn_smarts="[C:1]1([H:7])([H:8])[N:2]([H:9])[C@:3]1([C@@:4]1([H:11])[C:5]([H:12])([H:13])[N:6]1[H:14])[H:10]>>[C:1]1([H:7])([H:8])[N:2]([H:9])[C@:3]1([C:4](/[C:5](=[N:6]\[H:14])[H:12])([H:11])[H:13])[H:10]"
C        1.77732455       0.20049632      -0.08832250
N        1.27753743      -1.06994293       0.36126677
C        0.61724266      -0.44856869      -0.79027538
C       -0.72527491       0.08879402      -0.72915752
C       -1.68175427      -0.03251774       0.35825315
N       -1.05318780       0.24910681       1.53808500
H        2.72441082       0.17466286      -0.61419563
H        1.59598109       1.07946433       0.51975455
H        0.69718228      -0.91427074       1.19324685
H        0.85294210      -0.93197196      -1.73344375
H       -1.09824544       0.37907423      -1.71166241
H       -2.30263823      -0.93372783       0.30478840
H       -2.09332889       1.00839939      -0.12067834
H       -0.58819141       1.15100193       1.51234083
14
Frame=6 idx=004198 GeodesicLength=0.6499991248836061 rxn_smarts="[C:1]1([H:7])([H:8])[N:2]([H:9])[C@:3]1([C@@:4]1([H:11])[C:5]([H:12])([H:13])[N:6]1[H:14])[H:10]>>[C:1]1([H:7])([H:8])[N:2]([H:9])[C@:3]1([C:4](/[C:5](=[N:6]\[H:14])[H:12])([H:11])[H:13])[H:10]"
C        1.78753518       0.19483566      -0.10580392
N        1.28606688      -1.06880193       0.36723591
C        0.61147790      -0.45299253      -0.77671734
C       -0.71966251       0.12161776      -0.70190197
C       -1.70230169      -0.04874151       0.35468459
N       -1.07320300       0.24062079       1.52920825
H        2.72846810       0.15616802      -0.64183340
H        1.62166440       1.08062207       0.49707709
H        0.72451106      -0.90112142       1.20822550
H        0.81974473      -0.95596226      -1.71621882
H       -1.07312828       0.43026778      -1.68677090
H       -2.28006473      -0.97615840       0.28820232
H       -2.08427397       1.01814470      -0.14091816
H       -0.64683408       1.16150127       1.52553084
14
Frame=7 idx=004198 GeodesicLength=0.7583653675068771 rxn_smarts="[C:1]1([H:7])([H:8])[N:2]([H:9])[C@:3]1([C@@:4]1([H:11])[C:5]([H:12])([H:13])[N:6]1[H:14])[H:10]>>[C:1]1([H:7])([H:8])[N:2]([H:9])[C@:3]1([C:4](/[C:5](=[N:6]\[H:14])[H:12])([H:11])[H:13])[H:10]"
C        1.79783329       0.18926500      -0.12441164
N        1.29517479      -1.06665086       0.37370243
C        0.60574667      -0.45706924      -0.76251572
C       -0.71380041       0.15289303      -0.67350329
C       -1.72250725      -0.06442479       0.34926940
N       -1.09454410       0.23022505       1.52021468
H        2.73201115       0.13700130      -0.67098781
H        1.64791686       1.08240449       0.47205835
H        0.75317937      -0.88596313       1.22332926
H        0.78578874      -0.97961343      -1.69726888
H       -1.04730401       0.47855555      -1.66065514
H       -2.25763256      -1.01506475       0.26953965
H       -2.07280556       1.02996106      -0.16011992
H       -0.70905696       1.16848074       1.54134865
14
Frame=8 idx=004198 GeodesicLength=0.866737305312869 rxn_smarts="[C:1]1([H:7])([H:8])[N:2]([H:9])[C@:3]1([C@@:4]1([H:11])[C:5]([H:12])([H:13])[N:6]1[H:14])[H:10]>>[C:1]1([H:7])([H:8])[N:2]([H:9])[C@:3]1([C:4](/[C:5](=[N:6]\[H:14])[H:12])([H:11])[H:13])[H:10]"
C        1.80823125       0.18373270      -0.14419932
N        1.30492874      -1.06337547       0.38080255
C        0.60013512      -0.46084180      -0.74760124
C       -0.70768253       0.18270743      -0.64396285
C       -1.74229700      -0.07963679       0.34200436
N       -1.11716227       0.21796154       1.51110344
H        2.73502247       0.11698101      -0.70165260
H        1.67475428       1.08485992       0.44440557
H        0.78326254      -0.86852707       1.23858313
H        0.75123835      -1.00302466      -1.67639958
H       -1.02069694       0.52424432      -1.63332133
H       -2.23584638      -1.05046447       0.24874392
H       -2.05893743       1.04375023      -0.17806649
H       -0.77495021       1.17163310       1.55956043
14
Frame=9 idx=004198 GeodesicLength=0.9751015131055335 rxn_smarts="[C:1]1([H:7])([H:8])[N:2]([H:9])[C@:3]1([C@@:4]1([H:11])[C:5]([H:12])([H:13])[N:6]1[H:14])[H:10]>>[C:1]1([H:7])([H:8])[N:2]([H:9])[C@:3]1([C:4](/[C:5](=[N:6]\[H:14])[H:12])([H:11])[H:13])[H:10]"
C        1.81869607       0.17819473      -0.16518904
N        1.31537540      -1.05886118       0.38867072
C        0.59470831      -0.46434210      -0.73190176
C       -0.70132014       0.21111218      -0.61327296
C       -1.76159588      -0.09439703       0.33285800
N       -1.14099712       0.20388011       1.50184476
H        2.73743316       0.09595878      -0.73376353
H        1.70214022       1.08801895       0.41384551
H        0.81480377      -0.84857212       1.25398845
H        0.71624131      -1.02623937      -1.65342597
H       -0.99326294       0.56751730      -1.60472137
H       -2.21512530      -1.08241681       0.22572129
H       -2.04262315       1.05950693      -0.19452078
H       -0.84447370       1.17063961       1.57986669
14
Frame=10 idx=004198 GeodesicLength=1.0834425352213901 rxn_smarts="[C:1]1([H:7])([H:8])[N:2]([H:9])[C@:3]1([C@@:4]1([H:11])[C:5]([H:12])([H:13])[N:6]1[H:14])[H:10]>>[C:1]1([H:7])([H:8])[N:2]([H:9])[C@:3]1([C:4](/[C:5](=[N:6]\[H:14])[H:12])([H:11])[H:13])[H:10]"
C        1.82916549       0.17256417      -0.18738527
N        1.32654058      -1.05299103       0.39739719
C        0.58952505      -0.46758872      -0.71535457
C       -0.69474510       0.23815498      -0.58141710
C       -1.78034088      -0.10865921       0.32184818
N       -1.16599964       0.18809594       1.49237516
H        2.73917278       0.07375473      -0.76721899
H        1.72994539       1.09183729       0.38012968
H        0.84778447      -0.82588658       1.26948097
H        0.68101762      -1.04927673      -1.62817051
H       -0.96496660       0.60864660      -1.57482177
H       -2.19569085      -1.11107434       0.20050012
H       -2.02376767       1.07723568      -0.20917959
H       -0.91764063       1.16518723       1.60181650
14
Frame=11 idx=004198 GeodesicLength=1.1917436975892017 rxn_smarts="[C:1]1([H:7])([H:8])[N:2]([H:9])[C@:3]1([C@@:4]1([H:11])[C:5]([H:12])([H:13])[N:6]1[H:14])[H:10]>>[C:1]1([H:7])([H:8])[N:2]([H:9])[C@:3]1([C:4](/[C:5](=[N:6]\[H:14])[H:12])([H:11])[H:13])[H:10]"
C        1.83952841       0.16677024      -0.21075101
N        1.33843160      -1.04566179       0.40705849
C        0.58462460      -0.47060219      -0.69790663
C       -0.68800699       0.26383860      -0.54839341
C       -1.79846833      -0.12234774       0.30897129
N       -1.19209747       0.17073555       1.48260795
H        2.74012251       0.05025175      -0.80184731
H        1.75796724       1.09625096       0.34305399
H        0.88215772      -0.80031849       1.28497278
H        0.64577373      -1.07212515      -1.60048909
H       -0.93580486       0.64779836      -1.54354990
H       -2.17768277      -1.13657790       0.17309309
H       -2.00223883       1.09698594      -0.22170712
H       -0.99430654       1.15500186       1.62488687
14
Frame=12 idx=004198 GeodesicLength=1.2999979606144003 rxn_smarts="[C:1]1([H:7])([H:8])[N:2]([H:9])[C@:3]1([C@@:4]1([H:11])[C:5]([H:12])([H:13])[N:6]1[H:14])[H:10]>>[C:1]1([H:7])([H:8])[N:2]([H:9])[C@:3]1([C:4](/[C:5](=[N:6]\[H:14])[H:12])([H:11])[H:13])[H:10]"
C        1.84965308       0.16073147      -0.23521061
N        1.35108720      -1.03682548       0.41770104
C        0.58004929      -0.47342017      -0.67954660
C       -0.68118738       0.28815316      -0.51423636
C       -1.81592668      -0.13534838       0.29424862
N       -1.21920274       0.15198626       1.47247821
H        2.74016999       0.02536106      -0.83743507
H        1.78590592       1.10116381       0.30250983
H        0.91788458      -0.77181526       1.30037347
H        0.61076568      -1.09479097      -1.57033450
H       -0.90584199       0.68513814      -1.51088945
H       -2.16112237      -1.15909032       0.14356478
H       -1.97793785       1.11883668      -0.23173084
H       -1.07429673       1.13992002       1.64850749
14
Frame=13 idx=004198 GeodesicLength=1.4081913814778144 rxn_smarts="[C:1]1([H:7])([H:8])[N:2]([H:9])[C@:3]1([C@@:4]1([H:11])[C:5]([H:12])([H:13])[N:6]1[H:14])[H:10]>>[C:1]1([H:7])([H:8])[N:2]([H:9])[C@:3]1([C:4](/[C:5](=[N:6]\[H:14])[H:12])([H:11])[H:13])[H:10]"
C        1.85933915       0.15440309      -0.26065040
N        1.36445098      -1.02636800       0.42934708
C        0.57579656      -0.47605899      -0.66021152
C       -0.67435187       0.31102983      -0.47896439
C       -1.83265183      -0.14756305       0.27766926
N       -1.24723714       0.13198647       1.46180737
H        2.73912442      -0.00089880      -0.87368003
H        1.81341801       1.10643754       0.25837067
H        0.95484556      -0.74031075       1.31551597
H        0.57618100      -1.11720184      -1.53756477
H       -0.87509411       0.72069900      -1.47669636
H       -2.14605200      -1.17869253       0.11193735
H       -1.95069803       1.14278715      -0.23883111
H       -1.15707070       1.11975087       1.67195087
14
Frame=14 idx=004198 GeodesicLength=1.516282816081924 rxn_smarts="[C:1]1([H:7])([H:8])[N:2]([H:9])[C@:3]1([C@@:4]1([H:11])[C:5]([H:12])([H:13])[N:6]1[H:14])[H:10]>>[C:1]1([H:7])([H:8])[N:2]([H:9])[C@:3]1([C:4](/[C:5](=[N:6]\[H:14])[H:12])([H:11])[H:13])[H:10]"
C        1.86841847       0.14769553      -0.28688203
N        1.37858988      -1.01440738       0.44189097
C        0.57191580      -0.47857103      -0.64000176
C       -0.66764125       0.33243470      -0.44270347
C       -1.84858733      -0.15882812       0.25936353
N       -1.27604599       0.11113887       1.45058310
H        2.73692376      -0.02847361      -0.91024723
H        1.84000357       1.11185683       0.21087130
H        0.99296069      -0.70610011       1.33023455
H        0.54240719      -1.13931536      -1.50240723
H       -0.84380630       0.75459535      -1.44109737
H       -2.13225530      -1.19559095       0.07853675
H       -1.92053520       1.16883871      -0.24261629
H       -1.24234799       1.09472658       1.69447517
14
Frame=15 idx=004198 GeodesicLength=1.6242908060510681 rxn_smarts="[C:1]1([H:7])([H:8])[N:2]([H:9])[C@:3]1([C@@:4]1([H:11])[C:5]([H:12])([H:13])[N:6]1[H:14])[H:10]>>[C:1]1([H:7])([H:8])[N:2]([H:9])[C@:3]1([C:4](/[C:5](=[N:6]\[H:14])[H:12])([H:11])[H:13])[H:10]"
C        1.87667727       0.14056615      -0.31373429
N        1.39341013      -1.00090788       0.45519092
C        0.56838823      -0.48096408      -0.61890564
C       -0.66111183       0.35229028      -0.40550154
C       -1.86364734      -0.16903436       0.23941589
N       -1.30551987       0.08971123       1.43861418
H        2.73341559      -0.05722174      -0.94677752
H        1.86520729       1.11715247       0.16011067
H        1.03205849      -0.66933199       1.34423174
H        0.50965097      -1.16101970      -1.46483297
H       -0.81202427       0.78686116      -1.40395110
H       -2.11959180      -1.20986238       0.04361018
H       -1.88730960       1.19680464      -0.24263278
H       -1.32960326       1.06495620       1.71516228
14
Frame=16 idx=004198 GeodesicLength=1.7322642627006102 rxn_smarts="[C:1]1([H:7])([H:8])[N:2]([H:9])[C@:3]1([C@@:4]1([H:11])[C:5]([H:12])([H:13])[N:6]1[H:14])[H:10]>>[C:1]1([H:7])([H:8])[N:2]([H:9])[C@:3]1([C:4](/[C:5](=[N:6]\[H:14])[H:12])([H:11])[H:13])[H:10]"
C        1.88393925       0.13297553      -0.34103720
N        1.40891353      -0.98591970       0.46913394
C        0.56520698      -0.48329545      -0.59695903
C       -0.65484672       0.37055875      -0.36744818
C       -1.87777152      -0.17808258       0.21789370
N       -1.33557572       0.06796585       1.42581347
H        2.72849937      -0.08702107      -0.98297355
H        1.88856522       1.12211907       0.10627443
H        1.07209534      -0.63019516       1.35732843
H        0.47810692      -1.18234350      -1.42493721
H       -0.77987421       0.81759959      -1.36522593
H       -2.10788998      -1.22163542       0.00731772
H       -1.85100710       1.22654304      -0.23845844
H       -1.41836137       1.03073104       1.73327785
