17
Frame=0 idx=011261 GeodesicLength=0.0 rxn_smarts="[C:1]([C:2](=[O:3])[C:4]([C:5]([H:11])([H:12])[H:13])([C:6]([H:14])([H:15])[H:16])[O:7][H:17])([H:8])([H:9])[H:10]>>[C:1]([O+:3]=[C-:2][C:4]([C:5]([H:11])([H:12])[H:13])([C:6]([H:14])([H:15])[H:16])[O:7][H:17])([H:8])([H:9])[H:10]"
C        2.21028279      -0.30801941      -0.68946808
C        0.84210383       0.63537731      -0.01373801
O        1.72502045       0.26788721       0.85985999
C       -0.52135283      -0.02893571       0.22773038
C       -1.26642998       0.95578903       1.13630920
C       -1.26531178      -0.24320871      -1.07733535
O       -0.39470581      -1.29055145       0.86103483
H        1.49586558      -0.76004115      -1.38460772
H        2.72651428      -1.12752963      -0.18602465
H        2.85509137       0.43228584      -1.13589144
H       -0.72473396       1.09338022       2.07517332
H       -2.25317825       0.55037614       1.36271007
H       -1.37929471       1.93133476       0.66060155
H       -2.28148707      -0.58708771      -0.87821854
H       -0.77036671      -1.00348981      -1.68430889
H       -1.31065096       0.68676113      -1.64496518
H        0.31263380      -1.20432807       1.51113844
17
Frame=1 idx=011261 GeodesicLength=0.07153303066913194 rxn_smarts="[C:1]([C:2](=[O:3])[C:4]([C:5]([H:11])([H:12])[H:13])([C:6]([H:14])([H:15])[H:16])[O:7][H:17])([H:8])([H:9])[H:10]>>[C:1]([O+:3]=[C-:2][C:4]([C:5]([H:11])([H:12])[H:13])([C:6]([H:14])([H:15])[H:16])[O:7][H:17])([H:8])([H:9])[H:10]"
C        2.22532277      -0.29369913      -0.70158078
C        0.84014576       0.60079248      -0.00132492
O        1.72126248       0.22827567       0.86686187
C       -0.53223005      -0.03645774       0.24087845
C       -1.26995937       0.96794611       1.13298492
C       -1.26944812      -0.25272814      -1.06863212
O       -0.42740198      -1.29177129       0.88849878
H        1.52729438      -0.72891501      -1.42309412
H        2.75155648      -1.12392217      -0.22732012
H        2.86681829       0.46855223      -1.11687662
H       -0.73482787       1.10817185       2.07509628
H       -2.26336640       0.57781290       1.35731876
H       -1.36626653       1.93938470       0.64543764
H       -2.29088596      -0.58241911      -0.87232222
H       -0.78249327      -1.02713817      -1.66411972
H       -1.29849385       0.67158430      -1.64648853
H        0.30297325      -1.22546949       1.51468246
17
Frame=2 idx=011261 GeodesicLength=0.14312141689612234 rxn_smarts="[C:1]([C:2](=[O:3])[C:4]([C:5]([H:11])([H:12])[H:13])([C:6]([H:14])([H:15])[H:16])[O:7][H:17])([H:8])([H:9])[H:10]>>[C:1]([O+:3]=[C-:2][C:4]([C:5]([H:11])([H:12])[H:13])([C:6]([H:14])([H:15])[H:16])[O:7][H:17])([H:8])([H:9])[H:10]"
C        2.24032845      -0.27754695      -0.71388052
C        0.83807708       0.56356162       0.01147232
O        1.71728733       0.18393789       0.87339377
C       -0.54349820      -0.04472402       0.25463264
C       -1.27237474       0.98093973       1.12883389
C       -1.27376744      -0.26387515      -1.05925610
O       -0.46209626      -1.29255364       0.91795719
H        1.55941068      -0.69098535      -1.46354240
H        2.77616424      -1.11916458      -0.27201228
H        2.87842721       0.50698640      -1.09369114
H       -0.74358159       1.12439146       2.07391537
H       -2.27271073       0.60757748       1.35113242
H       -1.35098265       1.94741926       0.62847664
H       -2.30054032      -0.57840559      -0.86580203
H       -0.79507449      -1.05279354      -1.64231095
H       -1.28579205       0.65393843      -1.64799708
H        0.29072348      -1.24870348       1.51867824
17
Frame=3 idx=011261 GeodesicLength=0.21468701143867386 rxn_smarts="[C:1]([C:2](=[O:3])[C:4]([C:5]([H:11])([H:12])[H:13])([C:6]([H:14])([H:15])[H:16])[O:7][H:17])([H:8])([H:9])[H:10]>>[C:1]([O+:3]=[C-:2][C:4]([C:5]([H:11])([H:12])[H:13])([C:6]([H:14])([H:15])[H:16])[O:7][H:17])([H:8])([H:9])[H:10]"
C        2.25522525      -0.25934337      -0.72616733
C        0.83583677       0.52337502       0.02446133
O        1.71300944       0.13434537       0.87910710
C       -0.55517665      -0.05379074       0.26894069
C       -1.27340267       0.99479077       1.12370101
C       -1.27838354      -0.27678959      -1.04918612
O       -0.49887568      -1.29273510       0.94946952
H        1.59210932      -0.64553733      -1.50531676
H        2.80043560      -1.11272533      -0.32027502
H        2.88969971       0.54746299      -1.06576244
H       -0.75058809       1.14209931       2.07139679
H       -2.28089997       0.63984657       1.34404195
H       -1.33310688       1.95531783       0.60951077
H       -2.31052853      -0.57510725      -0.85858253
H       -0.80830636      -1.08059329      -1.61883453
H       -1.27268198       0.63358763      -1.64949050
H        0.27563426      -1.27420349       1.52298604
17
Frame=4 idx=011261 GeodesicLength=0.2861340369738881 rxn_smarts="[C:1]([C:2](=[O:3])[C:4]([C:5]([H:11])([H:12])[H:13])([C:6]([H:14])([H:15])[H:16])[O:7][H:17])([H:8])([H:9])[H:10]>>[C:1]([O+:3]=[C-:2][C:4]([C:5]([H:11])([H:12])[H:13])([C:6]([H:14])([H:15])[H:16])[O:7][H:17])([H:8])([H:9])[H:10]"
C        2.26993319      -0.23884904      -0.73815767
C        0.83334291       0.47990851       0.03735116
O        1.70831125       0.07895549       0.88353676
C       -0.56727575      -0.06370866       0.28370294
C       -1.27270265       1.00950028       1.11740712
C       -1.28347163      -0.29160683      -1.03841782
O       -0.53775486      -1.29212378       0.98303908
H        1.62527297      -0.59190398      -1.54754699
H        2.82452119      -1.10390868      -0.37217337
H        2.90037039       0.58979342      -1.03245308
H       -0.75532480       1.16132995       2.06726545
H       -2.28753243       0.67477702       1.33595072
H       -1.31225747       1.96292469       0.58831396
H       -2.32097942      -0.57256771      -0.85055943
H       -0.82251087      -1.11068750      -1.59367460
H       -1.25938148       0.61029156      -1.65099198
H        0.25743946      -1.30212475       1.52740777
17
Frame=5 idx=011261 GeodesicLength=0.3573476674355342 rxn_smarts="[C:1]([C:2](=[O:3])[C:4]([C:5]([H:11])([H:12])[H:13])([C:6]([H:14])([H:15])[H:16])[O:7][H:17])([H:8])([H:9])[H:10]>>[C:1]([O+:3]=[C-:2][C:4]([C:5]([H:11])([H:12])[H:13])([C:6]([H:14])([H:15])[H:16])[O:7][H:17])([H:8])([H:9])[H:10]"
C        2.28434665      -0.21581243      -0.74948544
C        0.83053754       0.43281433       0.04977560
O        1.70308408       0.01716933       0.88609876
C       -0.57977576      -0.07452943       0.29878134
C       -1.26987051       1.02504115       1.10970936
C       -1.28925576      -0.30845950      -1.02693690
O       -0.57863114      -1.29049047       1.01863776
H        1.65873244      -0.52935528      -1.58918270
H        2.84854382      -1.09191891      -0.42770937
H        2.91008186       0.63374080      -0.99297185
H       -0.75714362       1.18209306       2.06114491
H       -2.29212171       0.71250574       1.32674944
H       -1.28803772       1.97002061       0.56457032
H       -2.33207581      -0.57079792      -0.84156519
H       -0.83811037      -1.14323675      -1.56679789
H       -1.24618787       0.58379112      -1.65254942
H        0.23588389      -1.33257545       1.53173126
17
Frame=6 idx=011261 GeodesicLength=0.42820733168973124 rxn_smarts="[C:1]([C:2](=[O:3])[C:4]([C:5]([H:11])([H:12])[H:13])([C:6]([H:14])([H:15])[H:16])[O:7][H:17])([H:8])([H:9])[H:10]>>[C:1]([O+:3]=[C-:2][C:4]([C:5]([H:11])([H:12])[H:13])([C:6]([H:14])([H:15])[H:16])[O:7][H:17])([H:8])([H:9])[H:10]"
C        2.29837403      -0.18999966      -0.75962696
C        0.82726263       0.38181407       0.06113621
O        1.69709964      -0.05140908       0.88600762
C       -0.59264167      -0.08625867       0.31392720
C       -1.26442545       1.04133136       1.10038111
C       -1.29608107      -0.32743389      -1.01477906
O       -0.62122349      -1.28756340       1.05606897
H        1.69238134      -0.45749621      -1.62882372
H        2.87273885      -1.07572347      -0.48649975
H        2.91850808       0.67885650      -0.94657907
H       -0.75524814       1.20432646       2.05264734
H       -2.29403943       0.75305503       1.31641593
H       -1.26005578       1.97633627       0.53804490
H       -2.34406612      -0.56979290      -0.83139330
H       -0.85575842      -1.17835720      -1.53828473
H       -1.23360012       0.55387128      -1.65422445
H        0.21077511      -1.36555649       1.53558176
17
Frame=7 idx=011261 GeodesicLength=0.49860002016123195 rxn_smarts="[C:1]([C:2](=[O:3])[C:4]([C:5]([H:11])([H:12])[H:13])([C:6]([H:14])([H:15])[H:16])[O:7][H:17])([H:8])([H:9])[H:10]>>[C:1]([O+:3]=[C-:2][C:4]([C:5]([H:11])([H:12])[H:13])([C:6]([H:14])([H:15])[H:16])[O:7][H:17])([H:8])([H:9])[H:10]"
C        2.31187738      -0.16119628      -0.76795977
C        0.82340387       0.32661968       0.07070117
O        1.69015524      -0.12721522       0.88228364
C       -0.60577509      -0.09890626       0.32884118
C       -1.25583108       1.05825011       1.08911367
C       -1.30434508      -0.34860945      -1.00197136
O       -0.66502332      -1.28305682       1.09511433
H        1.72604853      -0.37580406      -1.66494018
H        2.89723123      -1.05426436      -0.54805855
H        2.92519622       0.72461403      -0.89227285
H       -0.74869950       1.22793125       2.04125018
H       -2.29257109       0.79640591       1.30493940
H       -1.22796918       1.98152749       0.50836274
H       -2.35725643      -0.56949750      -0.81973859
H       -0.87620440      -1.21618029      -1.50818921
H       -1.22223525       0.52030177      -1.65614337
H        0.18199793      -1.40092000       1.53866756
17
Frame=8 idx=011261 GeodesicLength=0.5684430901929436 rxn_smarts="[C:1]([C:2](=[O:3])[C:4]([C:5]([H:11])([H:12])[H:13])([C:6]([H:14])([H:15])[H:16])[O:7][H:17])([H:8])([H:9])[H:10]>>[C:1]([O+:3]=[C-:2][C:4]([C:5]([H:11])([H:12])[H:13])([C:6]([H:14])([H:15])[H:16])[O:7][H:17])([H:8])([H:9])[H:10]"
C        2.32474336      -0.12931860      -0.77368391
C        0.81873438       0.26720232       0.07748087
O        1.68195167      -0.21016399       0.87380179
C       -0.61902633      -0.11238605       0.34308316
C       -1.24354878       1.07556445       1.07563399
C       -1.31460327      -0.37194223      -0.98860821
O       -0.70916232      -1.27667935       1.13530799
H        1.75968596      -0.28434562      -1.69572122
H        2.92220687      -1.02643455      -0.61127240
H        2.92983079       0.77012259      -0.82931213
H       -0.73646641       1.25266751       2.02643892
H       -2.28691718       0.84225837       1.29242870
H       -1.19163375       1.98518795       0.47528139
H       -2.37203922      -0.56985086      -0.80626577
H       -0.90042674      -1.25664959      -1.47672505
H       -1.21304729       0.48300761      -1.65843912
H        0.14971825      -1.43823996       1.54057099
17
Frame=9 idx=011261 GeodesicLength=0.6377708753494328 rxn_smarts="[C:1]([C:2](=[O:3])[C:4]([C:5]([H:11])([H:12])[H:13])([C:6]([H:14])([H:15])[H:16])[O:7][H:17])([H:8])([H:9])[H:10]>>[C:1]([O+:3]=[C-:2][C:4]([C:5]([H:11])([H:12])[H:13])([C:6]([H:14])([H:15])[H:16])[O:7][H:17])([H:8])([H:9])[H:10]"
C        2.33681253      -0.09450729      -0.77600618
C        0.81316574       0.20366865       0.08035770
O        1.67226529      -0.29980388       0.85931135
C       -0.63217489      -0.12655461       0.35616526
C       -1.22718554       1.09296327       1.05962381
C       -1.32729096      -0.39723740      -0.97463348
O       -0.75259795      -1.26808305       1.17608428
H        1.79329596      -0.18364001      -1.71929141
H        2.94789295      -0.99122733      -0.67464989
H        2.93166896       0.81429239      -0.75728400
H       -0.71775858       1.27817498       2.00753168
H       -2.27643299       0.89016021       1.27901267
H       -1.15112653       1.98685491       0.43855957
H       -2.38869185      -0.57068480      -0.79037996
H       -0.92922844      -1.29944356      -1.44396175
H       -1.20692213       0.44207181      -1.66106126
H        0.11430842      -1.47700430       1.54062162
17
Frame=10 idx=011261 GeodesicLength=0.7066489893299288 rxn_smarts="[C:1]([C:2](=[O:3])[C:4]([C:5]([H:11])([H:12])[H:13])([C:6]([H:14])([H:15])[H:16])[O:7][H:17])([H:8])([H:9])[H:10]>>[C:1]([O+:3]=[C-:2][C:4]([C:5]([H:11])([H:12])[H:13])([C:6]([H:14])([H:15])[H:16])[O:7][H:17])([H:8])([H:9])[H:10]"
C        2.34790191      -0.05698347      -0.77394266
C        0.80640460       0.13639644       0.07794312
O        1.66080289      -0.39534983       0.83739263
C       -0.64488643      -0.14123029       0.36748215
C       -1.20629040       1.11005775       1.04074380
C       -1.34312065      -0.42428235      -0.96018803
O       -0.79371465      -1.25706986       1.21674600
H        1.82685855      -0.07416911      -1.73365406
H        2.97427074      -0.94789759      -0.73639294
H        2.93039051       0.85570902      -0.67535312
H       -0.69144124       1.30400616       1.98385298
H       -2.26029491       0.93944075       1.26493191
H       -1.10683118       1.98602505       0.39787655
H       -2.40767830      -0.57188743      -0.77160487
H       -0.96367107      -1.34424577      -1.41020635
H       -1.20534086       0.39763186      -1.66423468
H        0.07664048      -1.51615135       1.53860755
17
Frame=11 idx=011261 GeodesicLength=0.7754550492822492 rxn_smarts="[C:1]([C:2](=[O:3])[C:4]([C:5]([H:11])([H:12])[H:13])([C:6]([H:14])([H:15])[H:16])[O:7][H:17])([H:8])([H:9])[H:10]>>[C:1]([O+:3]=[C-:2][C:4]([C:5]([H:11])([H:12])[H:13])([C:6]([H:14])([H:15])[H:16])[O:7][H:17])([H:8])([H:9])[H:10]"
C        2.35780804      -0.01719926      -0.76654777
C        0.79825930       0.06598510       0.06877607
O        1.64736466      -0.49545708       0.80672758
C       -0.65677326      -0.15617191       0.37640123
C       -1.18058955       1.12643792       1.01866390
C       -1.36269864      -0.45272005      -0.94528877
O       -0.83085345      -1.24346881       1.25653427
H        1.86041731       0.04275794      -1.73685105
H        3.00155086      -0.89583551      -0.79419013
H        2.92523537       0.89293461      -0.58333523
H       -0.65668832       1.32964317       1.95466251
H       -2.23787984       0.98930937       1.25044937
H       -1.05935219       1.98227513       0.35299244
H       -2.42933909      -0.57328804      -0.74928456
H       -1.00464169      -1.39048898      -1.37564022
H       -1.20970534       0.35004199      -1.66800052
H        0.03788583      -1.55475558       1.53393089
17
Frame=12 idx=011261 GeodesicLength=0.8447484980378178 rxn_smarts="[C:1]([C:2](=[O:3])[C:4]([C:5]([H:11])([H:12])[H:13])([C:6]([H:14])([H:15])[H:16])[O:7][H:17])([H:8])([H:9])[H:10]>>[C:1]([O+:3]=[C-:2][C:4]([C:5]([H:11])([H:12])[H:13])([C:6]([H:14])([H:15])[H:16])[O:7][H:17])([H:8])([H:9])[H:10]"
C        2.36621536       0.02414333      -0.75296520
C        0.78858184      -0.00660089       0.05145812
O        1.63187008      -0.59828165       0.76626238
C       -0.66732538      -0.17106692       0.38230794
C       -1.15003748       1.14171697       0.99314345
C       -1.38648865      -0.48207564      -0.93000257
O       -0.86208535      -1.22725892       1.29468374
H        1.89387294       0.16522768      -1.72717681
H        3.02980647      -0.83492709      -0.84540499
H        2.91531834       0.92446381      -0.48159253
H       -0.61298061       1.35456711       1.91936565
H       -2.20877335       1.03883823       1.23589502
H       -1.00969529       1.97535888       0.30376516
H       -2.45382944      -0.57473578      -0.72284339
H       -1.05265023      -1.43742635      -1.34052617
H       -1.22142195       0.29990791      -1.67244437
H       -0.00037729      -1.59185068       1.52607456
17
Frame=13 idx=011261 GeodesicLength=0.9152292311148702 rxn_smarts="[C:1]([C:2](=[O:3])[C:4]([C:5]([H:11])([H:12])[H:13])([C:6]([H:14])([H:15])[H:16])[O:7][H:17])([H:8])([H:9])[H:10]>>[C:1]([O+:3]=[C-:2][C:4]([C:5]([H:11])([H:12])[H:13])([C:6]([H:14])([H:15])[H:16])[O:7][H:17])([H:8])([H:9])[H:10]"
C        2.37258537       0.06605655      -0.73277699
C        0.77747233      -0.08002414       0.02490466
O        1.61447096      -0.70214025       0.71494062
C       -0.67587322      -0.18557489       0.38474449
C       -1.11513280       1.15576834       0.96382994
C       -1.41434039      -0.51189441      -0.91420584
O       -0.88525507      -1.20860611       1.33060538
H        1.92662692       0.29262223      -1.70311195
H        3.05787355      -0.76619347      -0.88853788
H        2.90027233       0.94777968      -0.37000842
H       -0.56064995       1.37857651       1.87720339
H       -2.17315093       1.08720475       1.22149591
H       -0.95963574       1.96549134       0.24977886
H       -2.48068794      -0.57627664      -0.69157317
H       -1.10700639      -1.48437278      -1.30478520
H       -1.24145479       0.24799233      -1.67749549
H       -0.03611426      -1.62640904       1.51499168
17
Frame=14 idx=011261 GeodesicLength=0.9872954933333491 rxn_smarts="[C:1]([C:2](=[O:3])[C:4]([C:5]([H:11])([H:12])[H:13])([C:6]([H:14])([H:15])[H:16])[O:7][H:17])([H:8])([H:9])[H:10]>>[C:1]([O+:3]=[C-:2][C:4]([C:5]([H:11])([H:12])[H:13])([C:6]([H:14])([H:15])[H:16])[O:7][H:17])([H:8])([H:9])[H:10]"
C        2.37649462       0.10698705      -0.70597329
C        0.76503092      -0.15153923      -0.01094062
O        1.59538267      -0.80371941       0.65302290
C       -0.68181597      -0.19897246       0.38342237
C       -1.07703783       1.16828266       0.93104420
C       -1.44565585      -0.54130239      -0.89792728
O       -0.89848449      -1.18765846       1.36333184
H        1.95799274       0.42118377      -1.66386119
H        3.08495810      -0.69164283      -0.92155162
H        2.88025485       0.96083446      -0.25158510
H       -0.50117143       1.40129763       1.82840746
H       -2.13191580       1.13278892       1.20752206
H       -0.91151845       1.95298800       0.19189988
H       -2.50900920      -0.57813683      -0.65550195
H       -1.16615139      -1.52979324      -1.26872823
H       -1.27011060       0.19570930      -1.68273811
H       -0.06724289      -1.65730693       1.50015669
17
Frame=15 idx=011261 GeodesicLength=1.0611708409804845 rxn_smarts="[C:1]([C:2](=[O:3])[C:4]([C:5]([H:11])([H:12])[H:13])([C:6]([H:14])([H:15])[H:16])[O:7][H:17])([H:8])([H:9])[H:10]>>[C:1]([O+:3]=[C-:2][C:4]([C:5]([H:11])([H:12])[H:13])([C:6]([H:14])([H:15])[H:16])[O:7][H:17])([H:8])([H:9])[H:10]"
C        2.37763031       0.14518646      -0.67339157
C        0.75171220      -0.21817273      -0.05506095
O        1.57493694      -0.90054098       0.58098289
C       -0.68471027      -0.21052309       0.37848256
C       -1.03767537       1.17943849       0.89528773
C       -1.47899098      -0.56956749      -0.88101141
O       -0.90047484      -1.16465043       1.39223508
H        1.98716757       0.54824296      -1.60937299
H        3.10944852      -0.61434010      -0.94445165
H        2.85635240       0.96117602      -0.12925885
H       -0.43732118       1.42301223       1.77350782
H       -2.08697515       1.17443094       1.19416021
H       -0.86825454       1.93882244       0.13113099
H       -2.53723359      -0.58079013      -0.61485351
H       -1.22701481      -1.57247561      -1.23234650
H       -1.30656335       0.14445822      -1.68748146
H       -0.09203385      -1.68370722       1.48144161
17
Frame=16 idx=011261 GeodesicLength=1.1366275658347214 rxn_smarts="[C:1]([C:2](=[O:3])[C:4]([C:5]([H:11])([H:12])[H:13])([C:6]([H:14])([H:15])[H:16])[O:7][H:17])([H:8])([H:9])[H:10]>>[C:1]([O+:3]=[C-:2][C:4]([C:5]([H:11])([H:12])[H:13])([C:6]([H:14])([H:15])[H:16])[O:7][H:17])([H:8])([H:9])[H:10]"
C        2.37622369       0.17898750      -0.63639069
C        0.73797378      -0.27701356      -0.10564637
O        1.55334557      -0.99038255       0.49983460
C       -0.68452083      -0.21952031       0.37037097
C       -0.99933197       1.18965261       0.85744866
C       -1.51275009      -0.59608607      -0.86336512
O       -0.89082351      -1.13992750       1.41685517
H        2.01400039       0.67065900      -1.54055266
H        3.13028585      -0.53760527      -0.95814081
H        2.83046509       0.94712225      -0.00667455
H       -0.37251513       1.44434817       1.71365233
H       -2.04080915       1.21126493       1.18168476
H       -0.83269677       1.92428098       0.06898727
H       -2.56383668      -0.58489497      -0.57026315
H       -1.28618312      -1.61145120      -1.19579923
H       -1.34942544       0.09558848      -1.69094830
H       -0.10940170      -1.70502251       1.45894713
