10
Frame=0 idx=007194 GeodesicLength=0.0 rxn_smarts="[N:1](=[C:2](\[O:3][C:4](=[O:5])[H:9])[C:6](=[O:7])[H:10])\[H:8]>>[N:1](=[C:2]1\[O:3][C:4](=[O:5])[O:7][C:6]1([H:9])[H:10])\[H:8]"
N       -1.10733506       1.29162944      -1.19284004
C       -0.39055247       0.59657456      -0.45643835
O        0.95745677       0.74180824      -0.17450196
C        1.24423086      -0.40551912       0.49286877
O        2.22725492      -0.85450507       0.92870520
C       -0.75148661      -0.58654479       0.40986334
O       -0.23475563      -0.48015345       1.58533009
H       -0.60914510       2.06671427      -1.62338497
H        0.36335696      -1.26457218      -0.20524660
H       -1.69902463      -1.10543191       0.23564451
10
Frame=1 idx=007194 GeodesicLength=0.06781487860305217 rxn_smarts="[N:1](=[C:2](\[O:3][C:4](=[O:5])[H:9])[C:6](=[O:7])[H:10])\[H:8]>>[N:1](=[C:2]1\[O:3][C:4](=[O:5])[O:7][C:6]1([H:9])[H:10])\[H:8]"
N       -1.10954912       1.29667908      -1.18440269
C       -0.39318603       0.59789155      -0.45057458
O        0.95911566       0.73133250      -0.18749897
C        1.25328684      -0.41156495       0.48631505
O        2.24037731      -0.82130863       0.95257014
C       -0.75813304      -0.59326825       0.40331789
O       -0.23126050      -0.49960109       1.57695827
H       -0.60622970       2.06425289      -1.62245775
H        0.37076399      -1.28502651      -0.21712445
H       -1.72518542      -1.07938659       0.24289710
10
Frame=2 idx=007194 GeodesicLength=0.13560769007480128 rxn_smarts="[N:1](=[C:2](\[O:3][C:4](=[O:5])[H:9])[C:6](=[O:7])[H:10])\[H:8]>>[N:1](=[C:2]1\[O:3][C:4](=[O:5])[O:7][C:6]1([H:9])[H:10])\[H:8]"
N       -1.11150616       1.30192651      -1.17553381
C       -0.39572834       0.59932376      -0.44420248
O        0.96064770       0.72046550      -0.20048491
C        1.26258716      -0.41793571       0.47971198
O        2.25203751      -0.78661768       0.97636942
C       -0.76502667      -0.60023221       0.39645995
O       -0.22781420      -0.52004563       1.56805751
H       -0.60293507       2.06128417      -1.62185889
H        0.37845402      -1.30576180      -0.22967095
H       -1.75071595      -1.05240690       0.25115217
10
Frame=3 idx=007194 GeodesicLength=0.2033108272905075 rxn_smarts="[N:1](=[C:2](\[O:3][C:4](=[O:5])[H:9])[C:6](=[O:7])[H:10])\[H:8]>>[N:1](=[C:2]1\[O:3][C:4](=[O:5])[O:7][C:6]1([H:9])[H:10])\[H:8]"
N       -1.11316203       1.30735321      -1.16623563
C       -0.39815441       0.60089234      -0.43728864
O        0.96203029       0.70923582      -0.21343338
C        1.27211504      -0.42455756       0.47313860
O        2.26204873      -0.75055658       0.99995646
C       -0.77218077      -0.60737543       0.38930071
O       -0.22443869      -0.54144835       1.55858781
H       -0.59926939       2.05776904      -1.62159892
H        0.38644190      -1.32673855      -0.24285323
H       -1.77543067      -1.02457395       0.26042622
10
Frame=4 idx=007194 GeodesicLength=0.27111807766225166 rxn_smarts="[N:1](=[C:2](\[O:3][C:4](=[O:5])[H:9])[C:6](=[O:7])[H:10])\[H:8]>>[N:1](=[C:2]1\[O:3][C:4](=[O:5])[O:7][C:6]1([H:9])[H:10])\[H:8]"
N       -1.11452639       1.31290914      -1.15664055
C       -0.40044172       0.60256415      -0.42992432
O        0.96331644       0.69757049      -0.22647856
C        1.28192756      -0.43137435       0.46667456
O        2.27031778      -0.71328114       1.02331814
C       -0.77964354      -0.61461238       0.38187020
O       -0.22117234      -0.56369653       1.54860348
H       -0.59533139       2.05386664      -1.62151215
H        0.39476906      -1.34794484      -0.25661890
H       -1.79921547      -0.99600117       0.27070810
10
Frame=5 idx=007194 GeodesicLength=0.33871626846448116 rxn_smarts="[N:1](=[C:2](\[O:3][C:4](=[O:5])[H:9])[C:6](=[O:7])[H:10])\[H:8]>>[N:1](=[C:2]1\[O:3][C:4](=[O:5])[O:7][C:6]1([H:9])[H:10])\[H:8]"
N       -1.11552379       1.31862229      -1.14668207
C       -0.40254206       0.60434865      -0.42210276
O        0.96441929       0.68552015      -0.23957583
C        1.29193023      -0.43829378       0.46040430
O        2.27661411      -0.67494326       1.04627645
C       -0.78737387      -0.62187872       0.37416525
O       -0.21800891      -0.58670703       1.53798036
H       -0.59113635       2.04950100      -1.62161235
H        0.40344248      -1.36938704      -0.27085330
H       -1.82182114      -0.96678228       0.28199995
10
Frame=6 idx=007194 GeodesicLength=0.40659776456012314 rxn_smarts="[N:1](=[C:2](\[O:3][C:4](=[O:5])[H:9])[C:6](=[O:7])[H:10])\[H:8]>>[N:1](=[C:2]1\[O:3][C:4](=[O:5])[O:7][C:6]1([H:9])[H:10])\[H:8]"
N       -1.11632508       1.32506801      -1.13589211
C       -0.40449640       0.60647697      -0.41362975
O        0.96537305       0.67332692      -0.25251713
C        1.30222143      -0.44523521       0.45444388
O        2.28103701      -0.63581195       1.06884622
C       -0.79544886      -0.62917373       0.36622400
O       -0.21490533      -0.61078473       1.52683418
H       -0.58664399       2.04418452      -1.62280670
H        0.41246524      -1.39093150      -0.28573503
H       -1.84327709      -0.93711930       0.29423245
10
Frame=7 idx=007194 GeodesicLength=0.47386078747272586 rxn_smarts="[N:1](=[C:2](\[O:3][C:4](=[O:5])[H:9])[C:6](=[O:7])[H:10])\[H:8]>>[N:1](=[C:2]1\[O:3][C:4](=[O:5])[O:7][C:6]1([H:9])[H:10])\[H:8]"
N       -1.11562329       1.32663040      -1.13111638
C       -0.40572928       0.60646006      -0.40790607
O        0.96659820       0.65849791      -0.26871142
C        1.31264856      -0.45226316       0.44876624
O        2.28317738      -0.59534883       1.09094455
C       -0.80385245      -0.63611662       0.35836163
O       -0.21226872      -0.63213243       1.51534072
H       -0.58346125       2.04586881      -1.61516101
H        0.42180226      -1.41458772      -0.29837033
H       -1.86329140      -0.90700842       0.30785207
10
Frame=8 idx=007194 GeodesicLength=0.5411835021120849 rxn_smarts="[N:1](=[C:2](\[O:3][C:4](=[O:5])[H:9])[C:6](=[O:7])[H:10])\[H:8]>>[N:1](=[C:2]1\[O:3][C:4](=[O:5])[O:7][C:6]1([H:9])[H:10])\[H:8]"
N       -1.11548235       1.33223432      -1.12073916
C       -0.40712044       0.60810497      -0.39942319
O        0.96725845       0.64486108      -0.28259671
C        1.32330285      -0.45897286       0.44341329
O        2.28321153      -0.55452948       1.11218623
C       -0.81262712      -0.64302286       0.35011010
O       -0.20969091      -0.65659863       1.50296336
H       -0.57864115       2.04127689      -1.61460818
H        0.43174459      -1.43679186      -0.31330335
H       -1.88195545      -0.87656157       0.32199761
10
Frame=9 idx=007194 GeodesicLength=0.6087341952823938 rxn_smarts="[N:1](=[C:2](\[O:3][C:4](=[O:5])[H:9])[C:6](=[O:7])[H:10])\[H:8]>>[N:1](=[C:2]1\[O:3][C:4](=[O:5])[O:7][C:6]1([H:9])[H:10])\[H:8]"
N       -1.11497420       1.33771314      -1.11067764
C       -0.40825795       0.60966125      -0.39098707
O        0.96775735       0.63072340      -0.29684859
C        1.33419516      -0.46549673       0.43850937
O        2.28121506      -0.51327363       1.13279507
C       -0.82179524      -0.64968911       0.34180210
O       -0.20724148      -0.68131239       1.49012080
H       -0.57379095       2.03710426      -1.61352084
H        0.44211447      -1.45944264      -0.32823193
H       -1.89922224      -0.84598754       0.33703873
10
Frame=10 idx=007194 GeodesicLength=0.6762071512703239 rxn_smarts="[N:1](=[C:2](\[O:3][C:4](=[O:5])[H:9])[C:6](=[O:7])[H:10])\[H:8]>>[N:1](=[C:2]1\[O:3][C:4](=[O:5])[O:7][C:6]1([H:9])[H:10])\[H:8]"
N       -1.11410779       1.34322638      -1.10052479
C       -0.40913184       0.61113527      -0.38250922
O        0.96800485       0.61613784      -0.31129878
C        1.34525206      -0.47173538       0.43403989
O        2.27703480      -0.47167579       1.15263887
C       -0.83132922      -0.65604210       0.33344376
O       -0.20494144      -0.70629175       1.47666712
H       -0.56880336       2.03294402      -1.61219106
H        0.45297971      -1.48241381      -0.34318130
H       -1.91495775      -0.81528470       0.35291553
10
Frame=11 idx=007194 GeodesicLength=0.7437700782033932 rxn_smarts="[N:1](=[C:2](\[O:3][C:4](=[O:5])[H:9])[C:6](=[O:7])[H:10])\[H:8]>>[N:1](=[C:2]1\[O:3][C:4](=[O:5])[O:7][C:6]1([H:9])[H:10])\[H:8]"
N       -1.11290321       1.34870044      -1.09043216
C       -0.40976044       0.61243137      -0.37414300
O        0.96801279       0.60111944      -0.32591376
C        1.35650291      -0.47763093       0.43003441
O        2.27078053      -0.42984287       1.17167930
C       -0.84128699      -0.66205821       0.32506815
O       -0.20281900      -0.73146672       1.46263815
H       -0.56366922       2.02897825      -1.61049788
H        0.46441211      -1.50572536      -0.35811809
H       -1.92926948      -0.78450542       0.36968488
10
Frame=12 idx=007194 GeodesicLength=0.8113766945211289 rxn_smarts="[N:1](=[C:2](\[O:3][C:4](=[O:5])[H:9])[C:6](=[O:7])[H:10])\[H:8]>>[N:1](=[C:2]1\[O:3][C:4](=[O:5])[O:7][C:6]1([H:9])[H:10])\[H:8]"
N       -1.11138282       1.35432300      -1.08016352
C       -0.41016155       0.61362552      -0.36580130
O        0.96773409       0.58583318      -0.34046892
C        1.36791792      -0.48310609       0.42650098
O        2.26244127      -0.38797009       1.18987563
C       -0.85167029      -0.66769120       0.31670948
O       -0.20084887      -0.75692587       1.44797249
H       -0.55836328       2.02486626      -1.60882548
H        0.47645293      -1.52927752      -0.37313844
H       -1.94211941      -0.75367719       0.38733909
10
Frame=13 idx=007194 GeodesicLength=0.8789934593483121 rxn_smarts="[N:1](=[C:2](\[O:3][C:4](=[O:5])[H:9])[C:6](=[O:7])[H:10])\[H:8]>>[N:1](=[C:2]1\[O:3][C:4](=[O:5])[O:7][C:6]1([H:9])[H:10])\[H:8]"
N       -1.10952339       1.35977547      -1.07017166
C       -0.41034761       0.61455348      -0.35774483
O        0.96715275       0.57020923      -0.35503245
C        1.37947320      -0.48812769       0.42344146
O        2.25205025      -0.34614172       1.20718538
C       -0.86249694      -0.67290974       0.30843647
O       -0.19902263      -0.78245406       1.43268466
H       -0.55291985       2.02110583      -1.60665737
H        0.48913030      -1.55318503      -0.38807855
H       -1.95349610      -0.72282577       0.40593687
10
Frame=14 idx=007194 GeodesicLength=0.9466428494811009 rxn_smarts="[N:1](=[C:2](\[O:3][C:4](=[O:5])[H:9])[C:6](=[O:7])[H:10])\[H:8]>>[N:1](=[C:2]1\[O:3][C:4](=[O:5])[O:7][C:6]1([H:9])[H:10])\[H:8]"
N       -1.10737426       1.36524977      -1.06023545
C       -0.41036173       0.61531015      -0.34986967
O        0.96624529       0.55445563      -0.36933293
C        1.39115326      -0.49262930       0.42086285
O        2.23966291      -0.30459419       1.22361203
C       -0.87378854      -0.67766630       0.30028918
O       -0.19732394      -0.80816552       1.41671968
H       -0.54731707       2.01731500      -1.60445052
H        0.50250332      -1.57731135      -0.40310080
H       -1.96339924      -0.69196389       0.42550562
10
Frame=15 idx=007194 GeodesicLength=1.0143269388301033 rxn_smarts="[N:1](=[C:2](\[O:3][C:4](=[O:5])[H:9])[C:6](=[O:7])[H:10])\[H:8]>>[N:1](=[C:2]1\[O:3][C:4](=[O:5])[O:7][C:6]1([H:9])[H:10])\[H:8]"
N       -1.10495575       1.37070938      -1.05043284
C       -0.41024064       0.61588728      -0.34221960
O        0.96500287       0.53866504      -0.38325060
C        1.40293412      -0.49656637       0.41876755
O        2.22533446      -0.26349499       1.23917365
C       -0.88556929      -0.68192232       0.29232091
O       -0.19574106      -0.83404476       1.40003772
H       -0.54156334       2.01347600      -1.60225155
H        0.51661929      -1.60162068      -0.41825477
H       -1.97182066      -0.66108859       0.44610954
10
Frame=16 idx=007194 GeodesicLength=1.0820505656135169 rxn_smarts="[N:1](=[C:2](\[O:3][C:4](=[O:5])[H:9])[C:6](=[O:7])[H:10])\[H:8]>>[N:1](=[C:2]1\[O:3][C:4](=[O:5])[O:7][C:6]1([H:9])[H:10])\[H:8]"
N       -1.10229709       1.37607445      -1.04089166
C       -0.41002676       0.61626935      -0.33484987
O        0.96342649       0.52291427      -0.39669208
C        1.41479429      -0.49989847       0.41715493
O        2.20912376      -0.22301004       1.25391358
C       -0.89786830      -0.68563946       0.28459100
O       -0.19426576      -0.86007144       1.38259653
H       -0.53567215       2.00961407      -1.60006160
H        0.53153256      -1.62607747      -0.43359197
H       -1.97874703      -0.63017524       0.46783114
