12
Frame=0 idx=001272 GeodesicLength=0.0 rxn_smarts="[C:1]([c:2]1[c:3]([H:10])[n:4]([H:11])[c:5]([H:12])[n:6]1)([H:7])([H:8])[H:9]>>[C:1]([C:2]1=[N:6][C:5]([H:12])=[N:4][C:3]1([H:10])[H:11])([H:7])([H:8])[H:9]"
C       -1.80376316      -0.20291527       0.07739050
C       -0.32088468      -0.13301590      -0.05392289
C        0.49832159       0.99570109      -0.00064159
N        1.86301219       0.54423004      -0.21243223
C        1.69540608      -0.78095620      -0.30577250
N        0.43822832      -1.21791414      -0.24909355
H       -2.23493584       0.78470067       0.23976539
H       -2.08281071      -0.84814369       0.91155044
H       -2.24165628      -0.62925850      -0.82635668
H        0.25967801       2.04515251      -0.08237155
H        1.38765198       0.88849629       0.90355767
H        2.54175250      -1.44607694      -0.40167304
12
Frame=1 idx=001272 GeodesicLength=0.042990051324538606 rxn_smarts="[C:1]([c:2]1[c:3]([H:10])[n:4]([H:11])[c:5]([H:12])[n:6]1)([H:7])([H:8])[H:9]>>[C:1]([C:2]1=[N:6][C:5]([H:12])=[N:4][C:3]1([H:10])[H:11])([H:7])([H:8])[H:9]"
C       -1.80427857      -0.20424977       0.07973114
C       -0.32114288      -0.13600850      -0.04744870
C        0.49881383       0.99474268      -0.00108821
N        1.85923997       0.54070685      -0.21333820
C        1.69497357      -0.78338294      -0.30279080
N        0.43608478      -1.22064724      -0.24716918
H       -2.23282390       0.77859540       0.27511845
H       -2.08716425      -0.87535856       0.89180539
H       -2.24312126      -0.59768394      -0.83846139
H        0.25720653       2.04094686      -0.11232265
H        1.40033626       0.91125794       0.90714571
H        2.54187592      -1.44891877      -0.39118156
12
Frame=2 idx=001272 GeodesicLength=0.08595968796140421 rxn_smarts="[C:1]([c:2]1[c:3]([H:10])[n:4]([H:11])[c:5]([H:12])[n:6]1)([H:7])([H:8])[H:9]>>[C:1]([C:2]1=[N:6][C:5]([H:12])=[N:4][C:3]1([H:10])[H:11])([H:7])([H:8])[H:9]"
C       -1.80479389      -0.20556041       0.08206635
C       -0.32142508      -0.13901911      -0.04127521
C        0.49925006       0.99377393      -0.00145027
N        1.85546529       0.53714054      -0.21381763
C        1.69450892      -0.78580571      -0.29995158
N        0.43387084      -1.22334872      -0.24588660
H       -2.23056725       0.77150537       0.31017202
H       -2.09144867      -0.90171411       0.87133102
H       -2.24459581      -0.56573222      -0.84931741
H        0.25462708       2.03594541      -0.14181192
H        1.41314234       0.93455571       0.91020345
H        2.54196617      -1.45174066      -0.38026221
12
Frame=3 idx=001272 GeodesicLength=0.1288871249828225 rxn_smarts="[C:1]([c:2]1[c:3]([H:10])[n:4]([H:11])[c:5]([H:12])[n:6]1)([H:7])([H:8])[H:9]>>[C:1]([C:2]1=[N:6][C:5]([H:12])=[N:4][C:3]1([H:10])[H:11])([H:7])([H:8])[H:9]"
C       -1.80531381      -0.20684695       0.08435710
C       -0.32173712      -0.14204111      -0.03549606
C        0.49963817       0.99279415      -0.00167298
N        1.85170123       0.53353823      -0.21379927
C        1.69401306      -0.78821937      -0.29731928
N        0.43159912      -1.22602991      -0.24518819
H       -2.22820897       0.76351672       0.34454115
H       -2.09562608      -0.92696639       0.85034854
H       -2.24611178      -0.53374691      -0.85884696
H        0.25198262       2.03020791      -0.17059684
H        1.42605456       0.95831848       0.91278033
H        2.54200900      -1.45452487      -0.36910756
12
Frame=4 idx=001272 GeodesicLength=0.17174069605276004 rxn_smarts="[C:1]([c:2]1[c:3]([H:10])[n:4]([H:11])[c:5]([H:12])[n:6]1)([H:7])([H:8])[H:9]>>[C:1]([C:2]1=[N:6][C:5]([H:12])=[N:4][C:3]1([H:10])[H:11])([H:7])([H:8])[H:9]"
C       -1.80585667      -0.20812295       0.08654246
C       -0.32210131      -0.14507595      -0.03007917
C        0.50000852       0.99179619      -0.00165490
N        1.84799933       0.52991219      -0.21321312
C        1.69346176      -0.79059356      -0.29492866
N        0.42924180      -1.22870527      -0.24479995
H       -2.22583836       0.75473184       0.37772484
H       -2.09978190      -0.95085586       0.82910206
H       -2.24758597      -0.50217045      -0.86703120
H        0.24939540       2.02378123      -0.19840997
H        1.43910079       0.98251682       0.91493173
H        2.54195662      -1.45721424      -0.35818413
12
Frame=5 idx=001272 GeodesicLength=0.2146244663398229 rxn_smarts="[C:1]([c:2]1[c:3]([H:10])[n:4]([H:11])[c:5]([H:12])[n:6]1)([H:7])([H:8])[H:9]>>[C:1]([C:2]1=[N:6][C:5]([H:12])=[N:4][C:3]1([H:10])[H:11])([H:7])([H:8])[H:9]"
C       -1.80639859      -0.20935883       0.08859618
C       -0.32249577      -0.14804296      -0.02523927
C        0.50033173       0.99077788      -0.00128849
N        1.84425424       0.52615913      -0.21184533
C        1.69287870      -0.79293923      -0.29276392
N        0.42689377      -1.23130256      -0.24482842
H       -2.22344230       0.74543742       0.40938452
H       -2.10365310      -0.97316640       0.80799123
H       -2.24909960      -0.47142652      -0.87392417
H        0.24677274       2.01668329      -0.22520522
H        1.45217448       1.00703345       0.91689184
H        2.54178369      -1.45985468      -0.34776895
12
Frame=6 idx=001272 GeodesicLength=0.2574045899275711 rxn_smarts="[C:1]([c:2]1[c:3]([H:10])[n:4]([H:11])[c:5]([H:12])[n:6]1)([H:7])([H:8])[H:9]>>[C:1]([C:2]1=[N:6][C:5]([H:12])=[N:4][C:3]1([H:10])[H:11])([H:7])([H:8])[H:9]"
C       -1.80697436      -0.21060231       0.09052315
C       -0.32294640      -0.15104682      -0.02081296
C        0.50064062       0.98974005      -0.00071662
N        1.84057955       0.52240990      -0.20993620
C        1.69225018      -0.79527964      -0.29094830
N        0.42448718      -1.23395630      -0.24508002
H       -2.22109814       0.73551417       0.43978903
H       -2.10748892      -0.99419042       0.78679472
H       -2.25066809      -0.44124800      -0.87962304
H        0.24426387       2.00911818      -0.25081927
H        1.46542021       1.03198891       0.91832831
H        2.54153430      -1.46244774      -0.33749880
12
Frame=7 idx=001272 GeodesicLength=0.3000734349144265 rxn_smarts="[C:1]([c:2]1[c:3]([H:10])[n:4]([H:11])[c:5]([H:12])[n:6]1)([H:7])([H:8])[H:9]>>[C:1]([C:2]1=[N:6][C:5]([H:12])=[N:4][C:3]1([H:10])[H:11])([H:7])([H:8])[H:9]"
C       -1.80758848      -0.21183503       0.09228612
C       -0.32345928      -0.15403858      -0.01679150
C        0.50093411       0.98869234       0.00027222
N        1.83692250       0.51860440      -0.20725461
C        1.69156636      -0.79759338      -0.28940737
N        0.42204539      -1.23663594      -0.24540331
H       -2.21883392       0.72523418       0.46861357
H       -2.11122007      -1.01377088       0.76586899
H       -2.25216516      -0.41203709      -0.88430146
H        0.24185884       2.00105476      -0.27536938
H        1.47877742       1.05729061       0.91946373
H        2.54116229      -1.46496540      -0.32797701
12
Frame=8 idx=001272 GeodesicLength=0.34267056077310276 rxn_smarts="[C:1]([c:2]1[c:3]([H:10])[n:4]([H:11])[c:5]([H:12])[n:6]1)([H:7])([H:8])[H:9]>>[C:1]([C:2]1=[N:6][C:5]([H:12])=[N:4][C:3]1([H:10])[H:11])([H:7])([H:8])[H:9]"
C       -1.80823694      -0.21307580       0.09392314
C       -0.32402674      -0.15704394      -0.01315348
C        0.50120963       0.98761555       0.00152168
N        1.83329697       0.51474259      -0.20392033
C        1.69083449      -0.79989945      -0.28817705
N        0.41956243      -1.23933631      -0.24591597
H       -2.21663288       0.71449549       0.49624063
H       -2.11487786      -1.03219778       0.74497602
H       -2.25370806      -0.38346708      -0.88798958
H        0.23958212       1.99255264      -0.29885947
H        1.49231033       1.08307323       0.92007287
H        2.54068650      -1.46745913      -0.31871845
12
Frame=9 idx=001272 GeodesicLength=0.3852682389183121 rxn_smarts="[C:1]([c:2]1[c:3]([H:10])[n:4]([H:11])[c:5]([H:12])[n:6]1)([H:7])([H:8])[H:9]>>[C:1]([C:2]1=[N:6][C:5]([H:12])=[N:4][C:3]1([H:10])[H:11])([H:7])([H:8])[H:9]"
C       -1.80893737      -0.21433545       0.09548787
C       -0.32464731      -0.16007608      -0.00986020
C        0.50145547       0.98650644       0.00293361
N        1.82972452       0.51080138      -0.19995731
C        1.69008607      -0.80222373      -0.28714359
N        0.41704444      -1.24202546      -0.24682199
H       -2.21445214       0.70317701       0.52322479
H       -2.11849389      -1.04980337       0.72385431
H       -2.25534433      -0.35511860      -0.89077004
H        0.23743376       1.98359684      -0.32159010
H        1.50601638       1.10950099       0.92001208
H        2.54011440      -1.46999997      -0.30936942
12
Frame=10 idx=001272 GeodesicLength=0.4278549324936226 rxn_smarts="[C:1]([c:2]1[c:3]([H:10])[n:4]([H:11])[c:5]([H:12])[n:6]1)([H:7])([H:8])[H:9]>>[C:1]([C:2]1=[N:6][C:5]([H:12])=[N:4][C:3]1([H:10])[H:11])([H:7])([H:8])[H:9]"
C       -1.80962663      -0.21563754       0.09704514
C       -0.32532632      -0.16312142      -0.00716299
C        0.50168056       0.98538840       0.00438604
N        1.82616555       0.50677515      -0.19531947
C        1.68929311      -0.80456150      -0.28632410
N        0.41441219      -1.24464991      -0.24865789
H       -2.21205044       0.69117291       0.54998783
H       -2.12192673      -1.06684143       0.70240721
H       -2.25721763      -0.32671942      -0.89253830
H        0.23543972       1.97422750      -0.34376294
H        1.51977462       1.13658846       0.91919299
H        2.53938200      -1.47262120      -0.29925350
12
Frame=11 idx=001272 GeodesicLength=0.4703637065737058 rxn_smarts="[C:1]([c:2]1[c:3]([H:10])[n:4]([H:11])[c:5]([H:12])[n:6]1)([H:7])([H:8])[H:9]>>[C:1]([C:2]1=[N:6][C:5]([H:12])=[N:4][C:3]1([H:10])[H:11])([H:7])([H:8])[H:9]"
C       -1.81034443      -0.21695169       0.09847374
C       -0.32605993      -0.16619776      -0.00466263
C        0.50186468       0.98422604       0.00614654
N        1.82261961       0.50263863      -0.18983474
C        1.68843287      -0.80690731      -0.28565289
N        0.41176194      -1.24730931      -0.25046807
H       -2.20974915       0.67875690       0.57572064
H       -2.12532503      -1.08291869       0.68093894
H       -2.25901935      -0.29885675      -0.89354094
H        0.23364993       1.96443457      -0.36510832
H        1.53368879       1.16432420       0.91771717
H        2.53848007      -1.47523883      -0.28972942
12
Frame=12 idx=001272 GeodesicLength=0.51289271164647 rxn_smarts="[C:1]([c:2]1[c:3]([H:10])[n:4]([H:11])[c:5]([H:12])[n:6]1)([H:7])([H:8])[H:9]>>[C:1]([C:2]1=[N:6][C:5]([H:12])=[N:4][C:3]1([H:10])[H:11])([H:7])([H:8])[H:9]"
C       -1.81111893      -0.21830674       0.09984333
C       -0.32685066      -0.16931675      -0.00246952
C        0.50202763       0.98303266       0.00810955
N        1.81911489       0.49839744      -0.18356754
C        1.68755948      -0.80927043      -0.28520865
N        0.40906233      -1.24996578      -0.25270979
H       -2.20743712       0.66577035       0.60095389
H       -2.12873567      -1.09833252       0.65920742
H       -2.26091767      -0.27115278      -0.89371719
H        0.23205378       1.95425587      -0.38578720
H        1.54779857       1.19281798       0.91538445
H        2.53744336      -1.47792931      -0.28003877
12
Frame=13 idx=001272 GeodesicLength=0.5554387269330399 rxn_smarts="[C:1]([c:2]1[c:3]([H:10])[n:4]([H:11])[c:5]([H:12])[n:6]1)([H:7])([H:8])[H:9]>>[C:1]([C:2]1=[N:6][C:5]([H:12])=[N:4][C:3]1([H:10])[H:11])([H:7])([H:8])[H:9]"
C       -1.81191878      -0.21971490       0.10120534
C       -0.32769274      -0.17248938      -0.00060225
C        0.50215223       0.98180766       0.01019393
N        1.81562443       0.49403399      -0.17649602
C        1.68666243      -0.81165932      -0.28492026
N        0.40629432      -1.25257620      -0.25564754
H       -2.20499738       0.65201220       0.62613096
H       -2.13212129      -1.11331744       0.63692718
H       -2.26295161      -0.24320738      -0.89300668
H        0.23065688       1.94365880      -0.40603014
H        1.56207887       1.22218523       0.91199649
H        2.53621265      -1.48073325      -0.26975102
12
Frame=14 idx=001272 GeodesicLength=0.5979891314847916 rxn_smarts="[C:1]([c:2]1[c:3]([H:10])[n:4]([H:11])[c:5]([H:12])[n:6]1)([H:7])([H:8])[H:9]>>[C:1]([C:2]1=[N:6][C:5]([H:12])=[N:4][C:3]1([H:10])[H:11])([H:7])([H:8])[H:9]"
C       -1.81274445      -0.22118291       0.10257946
C       -0.32858746      -0.17572224       0.00094931
C        0.50223717       0.98054557       0.01235901
N        1.81215794       0.48952158      -0.16848562
C        1.68574901      -0.81407538      -0.28463576
N        0.40345290      -1.25511929      -0.25937782
H       -2.20239250       0.63734922       0.65144599
H       -2.13550183      -1.12795189       0.61393829
H       -2.26513056      -0.21483761      -0.89135454
H        0.22951629       1.93258853      -0.42597876
H        1.57649275       1.25254763       0.90740361
H        2.53475073      -1.48366321      -0.25884317
12
Frame=15 idx=001272 GeodesicLength=0.6405921041953435 rxn_smarts="[C:1]([c:2]1[c:3]([H:10])[n:4]([H:11])[c:5]([H:12])[n:6]1)([H:7])([H:8])[H:9]>>[C:1]([C:2]1=[N:6][C:5]([H:12])=[N:4][C:3]1([H:10])[H:11])([H:7])([H:8])[H:9]"
C       -1.81358439      -0.22271824       0.10399593
C       -0.32952878      -0.17901841       0.00215989
C        0.50226396       0.97925543       0.01459385
N        1.80867898       0.48484329      -0.15947958
C        1.68483277      -0.81652568      -0.28433447
N        0.40054576      -1.25755713      -0.26408808
H       -2.19954015       0.62162149       0.67713415
H       -2.13886013      -1.14233517       0.59003350
H       -2.26749663      -0.18581371      -0.88866322
H        0.22862007       1.92103389      -0.44575697
H        1.59105499       1.28398594       0.90142628
H        2.53301355      -1.48677169      -0.24702128
12
Frame=16 idx=001272 GeodesicLength=0.6832174121716764 rxn_smarts="[C:1]([c:2]1[c:3]([H:10])[n:4]([H:11])[c:5]([H:12])[n:6]1)([H:7])([H:8])[H:9]>>[C:1]([C:2]1=[N:6][C:5]([H:12])=[N:4][C:3]1([H:10])[H:11])([H:7])([H:8])[H:9]"
C       -1.81446563      -0.22432083       0.10538776
C       -0.33052611      -0.18238426       0.00318400
C        0.50224074       0.97792962       0.01705485
N        1.80519226       0.47998529      -0.14926493
C        1.68390340      -0.81899349      -0.28398329
N        0.39759432      -1.25993711      -0.26932026
H       -2.19659337       0.60495564       0.70274890
H       -2.14230266      -1.15624948       0.56539128
H       -2.26990764      -0.15648662      -0.88502149
H        0.22804360       1.90900173      -0.46519067
H        1.60580943       1.31651631       0.89401708
H        2.53101167      -1.49001682      -0.23500322
