14
Frame=0 idx=006382 GeodesicLength=0.0 rxn_smarts="[C:1]([n:2]1[c:3]([H:11])[c:4]([C:5]([H:12])([H:13])[H:14])[n:6][n:7]1)([H:8])([H:9])[H:10]>>[C:1]([N:2]=[N+:7]=[N-:6])([H:8])([H:9])[H:10].[C:3](#[C:4][C:5]([H:12])([H:13])[H:14])[H:11]"
C        2.64645220      -0.03741460       0.22626834
N        1.35101563      -0.30770322      -0.37278474
C       -0.30267348       1.03593120      -0.46247975
C       -1.28889267       0.35176174      -0.20418768
C       -2.70201139       0.01527934       0.01253966
N       -0.41683297      -1.57302443       0.20038177
N        0.68397259      -1.27564516       0.04450042
H        2.58818511       0.06626762       1.31319518
H        2.99705404       0.90114491      -0.19898427
H        3.37062954      -0.81403689      -0.02630719
H        0.28024721       1.88197667      -0.74675562
H       -3.01350510      -0.77798616      -0.66773340
H       -2.85282988      -0.35143766       1.02838746
H       -3.34081081       0.88488661      -0.14604021
14
Frame=1 idx=006382 GeodesicLength=0.034438631710567304 rxn_smarts="[C:1]([n:2]1[c:3]([H:11])[c:4]([C:5]([H:12])([H:13])[H:14])[n:6][n:7]1)([H:8])([H:9])[H:10]>>[C:1]([N:2]=[N+:7]=[N-:6])([H:8])([H:9])[H:10].[C:3](#[C:4][C:5]([H:12])([H:13])[H:14])[H:11]"
C        2.64354730      -0.03364351       0.22621199
N        1.35002329      -0.30945506      -0.37415289
C       -0.29502932       1.02918766      -0.44912525
C       -1.28313525       0.33730266      -0.20238882
C       -2.70066098       0.01907564       0.01448737
N       -0.41399585      -1.57794873       0.19553434
N        0.69205779      -1.28855376       0.03718007
H        2.57926497       0.05552459       1.31395527
H        2.99228290       0.91186544      -0.18469581
H        3.37395920      -0.80199634      -0.03394576
H        0.26856583       1.87866359      -0.76208041
H       -3.01769017      -0.77747446      -0.65947301
H       -2.85915900      -0.33600328       1.03331330
H       -3.33003072       0.89345558      -0.15482040
14
Frame=2 idx=006382 GeodesicLength=0.06894786218397919 rxn_smarts="[C:1]([n:2]1[c:3]([H:11])[c:4]([C:5]([H:12])([H:13])[H:14])[n:6][n:7]1)([H:8])([H:9])[H:10]>>[C:1]([N:2]=[N+:7]=[N-:6])([H:8])([H:9])[H:10].[C:3](#[C:4][C:5]([H:12])([H:13])[H:14])[H:11]"
C        2.63905275      -0.02914725       0.22896707
N        1.35001120      -0.31166255      -0.37759988
C       -0.28747312       1.02028401      -0.44488049
C       -1.27695259       0.32189353      -0.20461441
C       -2.69797637       0.02357926       0.01921161
N       -0.41094597      -1.58496197       0.18213085
N        0.70056012      -1.30233303       0.02527906
H        2.56484698       0.04527880       1.31705043
H        2.98649617       0.92345052      -0.16609494
H        3.37731493      -0.78841038      -0.03600429
H        0.25708693       1.87406075      -0.78051200
H       -3.02475122      -0.77598905      -0.64659306
H       -2.85950313      -0.31917583       1.04179745
H       -3.31776668       0.90313319      -0.15813738
14
Frame=3 idx=006382 GeodesicLength=0.10369099020323988 rxn_smarts="[C:1]([n:2]1[c:3]([H:11])[c:4]([C:5]([H:12])([H:13])[H:14])[n:6][n:7]1)([H:8])([H:9])[H:10]>>[C:1]([N:2]=[N+:7]=[N-:6])([H:8])([H:9])[H:10].[C:3](#[C:4][C:5]([H:12])([H:13])[H:14])[H:11]"
C        2.63257865      -0.02389966       0.23512869
N        1.35110443      -0.31428449      -0.38337916
C       -0.27994374       1.00920503      -0.45089881
C       -1.27031099       0.30553091      -0.21131249
C       -2.69359287       0.02886306       0.02727737
N       -0.40769824      -1.59419182       0.15866899
N        0.70954600      -1.31702986       0.00802710
H        2.54394526       0.03507436       1.32293245
H        2.97908964       0.93614480      -0.14198046
H        3.38063945      -0.77297159      -0.03167992
H        0.24588500       1.86784686      -0.80403433
H       -3.03474820      -0.77330119      -0.62823394
H       -2.85268440      -0.30100603       1.05449844
H       -3.30381000       0.91401963      -0.15501393
14
Frame=4 idx=006382 GeodesicLength=0.13806966705291995 rxn_smarts="[C:1]([n:2]1[c:3]([H:11])[c:4]([C:5]([H:12])([H:13])[H:14])[n:6][n:7]1)([H:8])([H:9])[H:10]>>[C:1]([N:2]=[N+:7]=[N-:6])([H:8])([H:9])[H:10].[C:3](#[C:4][C:5]([H:12])([H:13])[H:14])[H:11]"
C        2.62752237      -0.01943937       0.23781019
N        1.35103815      -0.31668509      -0.38738335
C       -0.27279653       0.99982139      -0.44955562
C       -1.26433408       0.29017988      -0.21415099
C       -2.69027885       0.03339762       0.03204307
N       -0.40454733      -1.60114582       0.14461704
N        0.71801499      -1.33034871      -0.00415405
H        2.52898149       0.02511966       1.32529369
H        2.97263230       0.94703864      -0.12350610
H        3.38337907      -0.75936995      -0.03281187
H        0.23446153       1.86351483      -0.81823062
H       -3.04129849      -0.77236883      -0.61384333
H       -2.85149726      -0.28254987       1.06328789
H       -3.29127735       0.92283562      -0.15941594
14
Frame=5 idx=006382 GeodesicLength=0.17234794732457526 rxn_smarts="[C:1]([n:2]1[c:3]([H:11])[c:4]([C:5]([H:12])([H:13])[H:14])[n:6][n:7]1)([H:8])([H:9])[H:10]>>[C:1]([N:2]=[N+:7]=[N-:6])([H:8])([H:9])[H:10].[C:3](#[C:4][C:5]([H:12])([H:13])[H:14])[H:11]"
C        2.62334317      -0.01539688       0.23849722
N        1.35038393      -0.31904230      -0.39050115
C       -0.26593046       0.99115941      -0.44488254
C       -1.25877749       0.27532223      -0.21485154
C       -2.68767431       0.03753126       0.03493839
N       -0.40140388      -1.60695078       0.13577419
N        0.72621930      -1.34288263      -0.01352837
H        2.51745993       0.01545155       1.32562342
H        2.96688787       0.95682585      -0.10828818
H        3.38586477      -0.74677997      -0.03694740
H        0.22295632       1.86047046      -0.82597919
H       -3.04615318      -0.77258257      -0.60144913
H       -2.85351083      -0.26344178       1.06993162
H       -3.27966514       0.93031615      -0.16833733
14
Frame=6 idx=006382 GeodesicLength=0.2066617650822449 rxn_smarts="[C:1]([n:2]1[c:3]([H:11])[c:4]([C:5]([H:12])([H:13])[H:14])[n:6][n:7]1)([H:8])([H:9])[H:10]>>[C:1]([N:2]=[N+:7]=[N-:6])([H:8])([H:9])[H:10].[C:3](#[C:4][C:5]([H:12])([H:13])[H:14])[H:11]"
C        2.61906945      -0.01138400       0.23918135
N        1.34972508      -0.32139939      -0.39373906
C       -0.25922108       0.98238666      -0.44091131
C       -1.25330091       0.26053063      -0.21536396
C       -2.68494244       0.04169378       0.03783604
N       -0.39817079      -1.61276775       0.12690077
N        0.73443028      -1.35525255      -0.02308178
H        2.50605094       0.00551648       1.32576053
H        2.96095015       0.96646451      -0.09280198
H        3.38821453      -0.73406563      -0.04110802
H        0.21131509       1.85749038      -0.83282983
H       -3.05081533      -0.77300051      -0.58853497
H       -2.85525471      -0.24356046       1.07656643
H       -3.26805026       0.93734785      -0.17787423
14
Frame=7 idx=006382 GeodesicLength=0.24102672144208703 rxn_smarts="[C:1]([n:2]1[c:3]([H:11])[c:4]([C:5]([H:12])([H:13])[H:14])[n:6][n:7]1)([H:8])([H:9])[H:10]>>[C:1]([N:2]=[N+:7]=[N-:6])([H:8])([H:9])[H:10].[C:3](#[C:4][C:5]([H:12])([H:13])[H:14])[H:11]"
C        2.61419424      -0.00724830       0.24080278
N        1.34931703      -0.32375053      -0.39755573
C       -0.25260159       0.97321458      -0.43949392
C       -1.24774640       0.24567468      -0.21657524
C       -2.68163043       0.04607296       0.04162035
N       -0.39481142      -1.61903540       0.11551866
N        0.74277232      -1.36767086      -0.03417195
H        2.49318917      -0.00502472       1.32651346
H        2.95425883       0.97635286      -0.07534365
H        3.39043045      -0.72069829      -0.04388849
H        0.19949954       1.85390054      -0.84151114
H       -3.05583360      -0.77321626      -0.57385540
H       -2.85502012      -0.22285334       1.08420547
H       -3.25601803       0.94428207      -0.18626520
14
Frame=8 idx=006382 GeodesicLength=0.27557725521885335 rxn_smarts="[C:1]([n:2]1[c:3]([H:11])[c:4]([C:5]([H:12])([H:13])[H:14])[n:6][n:7]1)([H:8])([H:9])[H:10]>>[C:1]([N:2]=[N+:7]=[N-:6])([H:8])([H:9])[H:10].[C:3](#[C:4][C:5]([H:12])([H:13])[H:14])[H:11]"
C        2.60805915      -0.00281220       0.24449098
N        1.34946768      -0.32612238      -0.40253714
C       -0.24599854       0.96324831      -0.44292242
C       -1.24192442       0.23053567      -0.21967285
C       -2.67715187       0.05088562       0.04736085
N       -0.39128740      -1.62631844       0.09862389
N        0.75141097      -1.38041512      -0.04841937
H        2.47689514      -0.01647832       1.32879561
H        2.94605748       0.98689828      -0.05395487
H        3.39247411      -0.70607466      -0.04343835
H        0.18753027       1.84910046      -0.85520348
H       -3.06180464      -0.77277082      -0.55582440
H       -2.85060415      -0.20122201       1.09413616
H       -3.24312376       0.95154561      -0.19143461
14
Frame=9 idx=006382 GeodesicLength=0.31060518420592226 rxn_smarts="[C:1]([n:2]1[c:3]([H:11])[c:4]([C:5]([H:12])([H:13])[H:14])[n:6][n:7]1)([H:8])([H:9])[H:10]>>[C:1]([N:2]=[N+:7]=[N-:6])([H:8])([H:9])[H:10].[C:3](#[C:4][C:5]([H:12])([H:13])[H:14])[H:11]"
C        2.59907035       0.00239353       0.25289015
N        1.35087729      -0.32856206      -0.40994779
C       -0.23921357       0.95164467      -0.45670759
C       -1.23530871       0.21483757      -0.22696538
C       -2.67004068       0.05667952       0.05760897
N       -0.38754741      -1.63582485       0.06901505
N        0.76069938      -1.39400015      -0.06928771
H        2.45252310      -0.02936138       1.33471059
H        2.93448435       0.99906081      -0.02423033
H        3.39415528      -0.68879536      -0.03531926
H        0.17531309       1.84082182      -0.88176197
H       -3.06984827      -0.77019369      -0.53125468
H       -2.83698539      -0.17903744       1.10925172
H       -3.22817881       0.96033701      -0.18800176
14
Frame=10 idx=006382 GeodesicLength=0.34579325110675235 rxn_smarts="[C:1]([n:2]1[c:3]([H:11])[c:4]([C:5]([H:12])([H:13])[H:14])[n:6][n:7]1)([H:8])([H:9])[H:10]>>[C:1]([N:2]=[N+:7]=[N-:6])([H:8])([H:9])[H:10].[C:3](#[C:4][C:5]([H:12])([H:13])[H:14])[H:11]"
C        2.58951080       0.00746158       0.26155543
N        1.35224153      -0.33087456      -0.41758565
C       -0.23252760       0.94020414      -0.47118894
C       -1.22866736       0.19937182      -0.23421936
C       -2.66232672       0.06251638       0.06809709
N       -0.38370840      -1.64505522       0.03885117
N        0.77001189      -1.40729517      -0.09079088
H        2.42773363      -0.04323565       1.34034655
H        2.92171213       1.01100898       0.00662580
H        3.39537211      -0.67114341      -0.02694519
H        0.16296536       1.83234600      -0.90875224
H       -3.07701480      -0.76787050      -0.50544371
H       -2.82216018      -0.15594966       1.12456296
H       -3.21314238       0.96851528      -0.18511304
14
Frame=11 idx=006382 GeodesicLength=0.3808445379035892 rxn_smarts="[C:1]([n:2]1[c:3]([H:11])[c:4]([C:5]([H:12])([H:13])[H:14])[n:6][n:7]1)([H:8])([H:9])[H:10]>>[C:1]([N:2]=[N+:7]=[N-:6])([H:8])([H:9])[H:10].[C:3](#[C:4][C:5]([H:12])([H:13])[H:14])[H:11]"
C        2.58073028       0.01202128       0.26829850
N        1.35301474      -0.33304749      -0.42441551
C       -0.22608923       0.92960452      -0.48196833
C       -1.22238610       0.18439908      -0.23932015
C       -2.65526569       0.06797440       0.07673285
N       -0.37984201      -1.65308363       0.01390203
N        0.77907947      -1.41986776      -0.10998523
H        2.40639947      -0.05751455       1.34394618
H        2.90931563       1.02187070       0.03485908
H        3.39632021      -0.65427354      -0.02188282
H        0.15055638       1.82540521      -0.92954269
H       -3.08234821      -0.76685592      -0.48116085
H       -2.81038813      -0.13175464       1.13761697
H       -3.19909679       0.97512235      -0.18708005
14
Frame=12 idx=006382 GeodesicLength=0.4160951235765282 rxn_smarts="[C:1]([n:2]1[c:3]([H:11])[c:4]([C:5]([H:12])([H:13])[H:14])[n:6][n:7]1)([H:8])([H:9])[H:10]>>[C:1]([N:2]=[N+:7]=[N-:6])([H:8])([H:9])[H:10].[C:3](#[C:4][C:5]([H:12])([H:13])[H:14])[H:11]"
C        2.57106046       0.01653452       0.27586047
N        1.35389365      -0.33509097      -0.43175174
C       -0.21971203       0.91899849      -0.49463549
C       -1.21591303       0.16961134      -0.24470105
C       -2.64732942       0.07359992       0.08614224
N       -0.37585047      -1.66108924      -0.01305606
N        0.78825266      -1.43227566      -0.13061728
H        2.38375403      -0.07292564       1.34772522
H        2.89534680       1.03266739       0.06517598
H        3.39677961      -0.63670817      -0.01567489
H        0.13796614       1.81782254      -0.95239657
H       -3.08700696      -0.76588001      -0.45486803
H       -2.79646298      -0.10655390       1.15139670
H       -3.18477846       0.98128938      -0.18859951
14
Frame=13 idx=006382 GeodesicLength=0.4520850850315087 rxn_smarts="[C:1]([n:2]1[c:3]([H:11])[c:4]([C:5]([H:12])([H:13])[H:14])[n:6][n:7]1)([H:8])([H:9])[H:10]>>[C:1]([N:2]=[N+:7]=[N-:6])([H:8])([H:9])[H:10].[C:3](#[C:4][C:5]([H:12])([H:13])[H:14])[H:11]"
C        2.55846834       0.02145878       0.28699311
N        1.35553762      -0.33708333      -0.44095412
C       -0.21318588       0.90749177      -0.51485696
C       -1.20868139       0.15472660      -0.25325106
C       -2.63662101       0.07988566       0.09902564
N       -0.37168560      -1.67015363      -0.04969138
N        0.79786906      -1.44495637      -0.15618169
H        2.35433939      -0.08957428       1.35362059
H        2.87744538       1.04412713       0.10178084
H        3.39613760      -0.61720415      -0.00307310
H        0.12528616       1.80747216      -0.98551151
H       -3.09173116      -0.76351704      -0.42287499
H       -2.77443626      -0.08080244       1.16890533
H       -3.16874227       0.98812914      -0.18393069
14
Frame=14 idx=006382 GeodesicLength=0.48841168590196204 rxn_smarts="[C:1]([n:2]1[c:3]([H:11])[c:4]([C:5]([H:12])([H:13])[H:14])[n:6][n:7]1)([H:8])([H:9])[H:10]>>[C:1]([N:2]=[N+:7]=[N-:6])([H:8])([H:9])[H:10].[C:3](#[C:4][C:5]([H:12])([H:13])[H:14])[H:11]"
C        2.54493529       0.02617780       0.29850720
N        1.35711260      -0.33889399      -0.45046766
C       -0.20672034       0.89624859      -0.53588373
C       -1.20127898       0.14016600      -0.26188682
C       -2.62497046       0.08622289       0.11226389
N       -0.36741808      -1.67875808      -0.08725940
N        0.80751404      -1.45724697      -0.18258344
H        2.32409473      -0.10729094       1.35907709
H        2.85771598       1.05508502       0.13966601
H        3.39468748      -0.59729440       0.01023713
H        0.11252129       1.79685691      -1.01937380
H       -3.09503025      -0.76149563      -0.38909312
H       -2.75054074      -0.05394107       1.18652492
H       -3.15262255       0.99416389      -0.17972826
14
Frame=15 idx=006382 GeodesicLength=0.5252063176448123 rxn_smarts="[C:1]([n:2]1[c:3]([H:11])[c:4]([C:5]([H:12])([H:13])[H:14])[n:6][n:7]1)([H:8])([H:9])[H:10]>>[C:1]([N:2]=[N+:7]=[N-:6])([H:8])([H:9])[H:10].[C:3](#[C:4][C:5]([H:12])([H:13])[H:14])[H:11]"
C        2.53004745       0.03075634       0.31078288
N        1.35870373      -0.34053820      -0.46053005
C       -0.20027638       0.88517735      -0.55852084
C       -1.19359726       0.12590822      -0.27112494
C       -2.61198549       0.09265191       0.12627333
N       -0.36305382      -1.68702133      -0.12706584
N        0.81722286      -1.46917609      -0.21027056
H        2.29192142      -0.12567788       1.36431704
H        2.83583455       1.06549916       0.17908496
H        3.39215875      -0.57702979       0.02541145
H        0.09973386       1.78569117      -1.05506967
H       -3.09683791      -0.75957746      -0.35298134
H       -2.72369664      -0.02620775       1.20462829
H       -3.13617512       0.99954435      -0.17493471
14
Frame=16 idx=006382 GeodesicLength=0.5622482860790953 rxn_smarts="[C:1]([n:2]1[c:3]([H:11])[c:4]([C:5]([H:12])([H:13])[H:14])[n:6][n:7]1)([H:8])([H:9])[H:10]>>[C:1]([N:2]=[N+:7]=[N-:6])([H:8])([H:9])[H:10].[C:3](#[C:4][C:5]([H:12])([H:13])[H:14])[H:11]"
C        2.51455759       0.03503506       0.32285068
N        1.36010986      -0.34198490      -0.47063155
C       -0.19391236       0.87458574      -0.58070569
C       -1.18580181       0.11207569      -0.27986704
C       -2.59837425       0.09899905       0.14011820
N       -0.35863634      -1.69457116      -0.16656186
N        0.82688263      -1.48055311      -0.23791402
H        2.25973578      -0.14448224       1.36863870
H        2.81275441       1.07500806       0.21837888
H        3.38876606      -0.55694580       0.04075358
H        0.08689219       1.77468745      -1.08979996
H       -3.09688786      -0.75810384      -0.31599657
H       -2.69610200       0.00236551       1.22205011
H       -3.11998392       1.00388449      -0.17131347
