12
Frame=0 idx=003149 GeodesicLength=0.0 rxn_smarts="[O:1]=[C:2]1[C:3]([H:7])([H:8])[C:4]([H:9])([H:10])[C:5]([H:11])=[C:6]1[H:12]>>[O:1]1[C@@:2]23[C:3]([H:7])([H:8])[C:4]([H:9])([H:10])[C@:5]2([H:11])[C@@:6]13[H:12]"
O        2.05309131       0.36720620       0.72111492
C        0.90424993      -0.09216449       0.28476271
C       -0.00266619      -1.24027414      -0.03588556
C       -1.14240951      -0.17845727      -0.14271243
C       -0.25198799       0.99423790       0.36762592
C        0.92351881       1.11164978      -0.43746366
H       -0.16555196      -1.90934247       0.80828663
H        0.25363810      -1.82195381      -0.92159768
H       -1.56625470      -0.05273245      -1.13886854
H       -1.94895536      -0.37327096       0.56147731
H       -0.55283004       1.65477651       1.17364433
H        1.49615759       1.54032521      -1.24038400
12
Frame=1 idx=003149 GeodesicLength=0.04389503341323778 rxn_smarts="[O:1]=[C:2]1[C:3]([H:7])([H:8])[C:4]([H:9])([H:10])[C:5]([H:11])=[C:6]1[H:12]>>[O:1]1[C@@:2]23[C:3]([H:7])([H:8])[C:4]([H:9])([H:10])[C@:5]2([H:11])[C@@:6]13[H:12]"
O        2.06756806       0.35180940       0.71444483
C        0.91005144      -0.09633393       0.29610323
C       -0.00123996      -1.23803266      -0.03634049
C       -1.14206605      -0.17776077      -0.13990596
C       -0.25662896       0.99739517       0.36714194
C        0.92495853       1.11067010      -0.42624698
H       -0.16351931      -1.91359745       0.80280465
H        0.25702378      -1.81302786      -0.92577817
H       -1.56714091      -0.05291554      -1.13572249
H       -1.94851742      -0.37470427       0.56404216
H       -0.56709826       1.67125454       1.15830717
H        1.48660905       1.53524327      -1.23884989
12
Frame=2 idx=003149 GeodesicLength=0.08777495893712586 rxn_smarts="[O:1]=[C:2]1[C:3]([H:7])([H:8])[C:4]([H:9])([H:10])[C:5]([H:11])=[C:6]1[H:12]>>[O:1]1[C@@:2]23[C:3]([H:7])([H:8])[C:4]([H:9])([H:10])[C@:5]2([H:11])[C@@:6]13[H:12]"
O        2.08222162       0.33582060       0.70696452
C        0.91588059      -0.10053214       0.30762972
C        0.00025878      -1.23570543      -0.03666410
C       -1.14168089      -0.17703699      -0.13708327
C       -0.26130746       1.00058672       0.36673794
C        0.92642040       1.10977238      -0.41465769
H       -0.16148424      -1.91777303       0.79735210
H        0.26048018      -1.80399776      -0.92976589
H       -1.56790936      -0.05310196      -1.13259415
H       -1.94807048      -0.37611234       0.56657166
H       -0.58159524       1.68774647       1.14235632
H        1.47678611       1.53033349      -1.23684715
12
Frame=3 idx=003149 GeodesicLength=0.13164098895180867 rxn_smarts="[O:1]=[C:2]1[C:3]([H:7])([H:8])[C:4]([H:9])([H:10])[C:5]([H:11])=[C:6]1[H:12]>>[O:1]1[C@@:2]23[C:3]([H:7])([H:8])[C:4]([H:9])([H:10])[C@:5]2([H:11])[C@@:6]13[H:12]"
O        2.09701209       0.31923391       0.69861779
C        0.92175357      -0.10475656       0.31932648
C        0.00182868      -1.23330077      -0.03684602
C       -1.14125660      -0.17628985      -0.13424736
C       -0.26602510       1.00381905       0.36641285
C        0.92790313       1.10896584      -0.40270163
H       -0.15945355      -1.92186277       0.79195441
H        0.26399806      -1.79489916      -0.93354716
H       -1.56855425      -0.05330585      -1.12949259
H       -1.94762860      -0.37749429       0.56906310
H       -0.59629630       1.70423384       1.12578511
H        1.46671886       1.52565660      -1.23432500
12
Frame=4 idx=003149 GeodesicLength=0.17549330924046025 rxn_smarts="[O:1]=[C:2]1[C:3]([H:7])([H:8])[C:4]([H:9])([H:10])[C:5]([H:11])=[C:6]1[H:12]>>[O:1]1[C@@:2]23[C:3]([H:7])([H:8])[C:4]([H:9])([H:10])[C@:5]2([H:11])[C@@:6]13[H:12]"
O        2.11188683       0.30204893       0.68935097
C        0.92767459      -0.10902187       0.33118339
C        0.00347108      -1.23082288      -0.03687283
C       -1.14079215      -0.17551774      -0.13139700
C       -0.27078408       1.00709662       0.36617053
C        0.92940285       1.10826677      -0.39038080
H       -0.15742438      -1.92586223       0.78663541
H        0.26756477      -1.78574726      -0.93709955
H       -1.56906972      -0.05352644      -1.12641865
H       -1.94719681      -0.37884581       0.57151466
H       -0.61120483       1.72066565       1.10858908
H        1.45647185       1.52126626      -1.23127520
12
Frame=5 idx=003149 GeodesicLength=0.21924240012879043 rxn_smarts="[O:1]=[C:2]1[C:3]([H:7])([H:8])[C:4]([H:9])([H:10])[C:5]([H:11])=[C:6]1[H:12]>>[O:1]1[C@@:2]23[C:3]([H:7])([H:8])[C:4]([H:9])([H:10])[C@:5]2([H:11])[C@@:6]13[H:12]"
O        2.12679287       0.28432569       0.67916721
C        0.93366514      -0.11330008       0.34315410
C        0.00518161      -1.22825034      -0.03674315
C       -1.14027435      -0.17471591      -0.12856045
C       -0.27557535       1.01040080       0.36597721
C        0.93089419       1.10763267      -0.37770497
H       -0.15538874      -1.92970731       0.78141594
H        0.27115719      -1.77655364      -0.94040890
H       -1.56944221      -0.05377511      -1.12340273
H       -1.94675045      -0.38014888       0.57388482
H       -0.62620551       1.73698548       1.09080403
H        1.44594560       1.51710664      -1.22758311
12
Frame=6 idx=003149 GeodesicLength=0.26297108915077605 rxn_smarts="[O:1]=[C:2]1[C:3]([H:7])([H:8])[C:4]([H:9])([H:10])[C:5]([H:11])=[C:6]1[H:12]>>[O:1]1[C@@:2]23[C:3]([H:7])([H:8])[C:4]([H:9])([H:10])[C@:5]2([H:11])[C@@:6]13[H:12]"
O        2.14167610       0.26601934       0.66800021
C        0.93973242      -0.11762885       0.35525020
C        0.00696403      -1.22561488      -0.03644979
C       -1.13971668      -0.17389617      -0.12570420
C       -0.28040568       1.01374906       0.36585999
C        0.93239342       1.10710290      -0.36466847
H       -0.15334702      -1.93345574       0.77630120
H        0.27477015      -1.76734510      -0.94348098
H       -1.56969050      -0.05405685      -1.12040862
H       -1.94631292      -0.38142229       0.57622944
H       -0.64137705       1.75322751       1.07234282
H        1.43531374       1.51332108      -1.22327179
12
Frame=7 idx=003149 GeodesicLength=0.30667960057037624 rxn_smarts="[O:1]=[C:2]1[C:3]([H:7])([H:8])[C:4]([H:9])([H:10])[C:5]([H:11])=[C:6]1[H:12]>>[O:1]1[C@@:2]23[C:3]([H:7])([H:8])[C:4]([H:9])([H:10])[C@:5]2([H:11])[C@@:6]13[H:12]"
O        2.15646119       0.24713168       0.65580550
C        0.94589714      -0.12202335       0.36748146
C        0.00882432      -1.22290889      -0.03599218
C       -1.13910673      -0.17305933      -0.12281198
C       -0.28526383       1.01711857       0.36583975
C        0.93389081       1.10665466      -0.35123958
H       -0.15127953      -1.93710949       0.77127526
H        0.27838583      -1.75809716      -0.94632757
H       -1.56981234      -0.05435961      -1.11741387
H       -1.94585429      -0.38267381       0.57856555
H       -0.65671695       1.76941775       1.05308762
H        1.42457438       1.50990899      -1.21826996
12
Frame=8 idx=003149 GeodesicLength=0.3503304819057012 rxn_smarts="[O:1]=[C:2]1[C:3]([H:7])([H:8])[C:4]([H:9])([H:10])[C:5]([H:11])=[C:6]1[H:12]>>[O:1]1[C@@:2]23[C:3]([H:7])([H:8])[C:4]([H:9])([H:10])[C@:5]2([H:11])[C@@:6]13[H:12]"
O        2.17107457       0.22772999       0.64263794
C        0.95218125      -0.12646613       0.37977628
C        0.01075481      -1.22013924      -0.03537470
C       -1.13845121      -0.17220817      -0.11989911
C       -0.29014891       1.02052379       0.36588096
C        0.93538511       1.10628985      -0.33746059
H       -0.14919046      -1.94064362       0.76636777
H        0.28198452      -1.74886092      -0.94894567
H       -1.56981800      -0.05471006      -1.11443743
H       -1.94538493      -0.38389324       0.58088770
H       -0.67213576       1.78548835       1.03311632
H        1.41374902       1.50688941      -1.21254949
12
Frame=9 idx=003149 GeodesicLength=0.39393279907510526 rxn_smarts="[O:1]=[C:2]1[C:3]([H:7])([H:8])[C:4]([H:9])([H:10])[C:5]([H:11])=[C:6]1[H:12]>>[O:1]1[C@@:2]23[C:3]([H:7])([H:8])[C:4]([H:9])([H:10])[C@:5]2([H:11])[C@@:6]13[H:12]"
O        2.18544917       0.20783857       0.62848596
C        0.95858465      -0.13100124       0.39213211
C        0.01275742      -1.21730885      -0.03459896
C       -1.13774074      -0.17134069      -0.11693852
C       -0.29505505       1.02394688       0.36600892
C        0.93685783       1.10599829      -0.32330294
H       -0.14705601      -1.94408097       0.76155491
H        0.28554180      -1.73961231      -0.95134237
H       -1.56971440      -0.05508139      -1.11143435
H       -1.94487332      -0.38508688       0.58322805
H       -0.68766182       1.80143970       1.01230613
H        1.40291048       1.50428889      -1.20609893
12
Frame=10 idx=003149 GeodesicLength=0.4375294006670416 rxn_smarts="[O:1]=[C:2]1[C:3]([H:7])([H:8])[C:4]([H:9])([H:10])[C:5]([H:11])=[C:6]1[H:12]>>[O:1]1[C@@:2]23[C:3]([H:7])([H:8])[C:4]([H:9])([H:10])[C@:5]2([H:11])[C@@:6]13[H:12]"
O        2.19947202       0.18750149       0.61336125
C        0.96516408      -0.13563991       0.40453499
C        0.01483486      -1.21442979      -0.03367974
C       -1.13697944      -0.17046789      -0.11390595
C       -0.29996499       1.02738124       0.36624686
C        0.93833044       1.10577059      -0.30876074
H       -0.14486778      -1.94744506       0.75682249
H        0.28903600      -1.73035820      -0.95356608
H       -1.56952975      -0.05548199      -1.10838126
H       -1.94431890      -0.38627277       0.58563586
H       -0.70327109       1.81731460       0.99054628
H        1.39209455       1.50212769      -1.19885396
12
Frame=11 idx=003149 GeodesicLength=0.4810642743103764 rxn_smarts="[O:1]=[C:2]1[C:3]([H:7])([H:8])[C:4]([H:9])([H:10])[C:5]([H:11])=[C:6]1[H:12]>>[O:1]1[C@@:2]23[C:3]([H:7])([H:8])[C:4]([H:9])([H:10])[C@:5]2([H:11])[C@@:6]13[H:12]"
O        2.21308491       0.16680579       0.59735200
C        0.97191000      -0.14038929       0.41690075
C        0.01697548      -1.21150587      -0.03262080
C       -1.13616552      -0.16958610      -0.11081166
C       -0.30488277       1.03083184       0.36656671
C        0.93977028       1.10560439      -0.29386793
H       -0.14262327      -1.95071063       0.75218728
H        0.29243630      -1.72113133      -0.95559966
H       -1.56926347      -0.05591990      -1.10527718
H       -1.94370917      -0.38743541       0.58809944
H       -0.71888210       1.83301235       0.96790672
H        1.38134933       1.50042415      -1.19083567
12
Frame=12 idx=003149 GeodesicLength=0.5245774065941888 rxn_smarts="[O:1]=[C:2]1[C:3]([H:7])([H:8])[C:4]([H:9])([H:10])[C:5]([H:11])=[C:6]1[H:12]>>[O:1]1[C@@:2]23[C:3]([H:7])([H:8])[C:4]([H:9])([H:10])[C@:5]2([H:11])[C@@:6]13[H:12]"
O        2.22622374       0.14583219       0.58048849
C        0.97886081      -0.14528436       0.42921109
C        0.01917493      -1.20854811      -0.03143648
C       -1.13530584      -0.16869969      -0.10763133
C       -0.30979779       1.03428577       0.36699677
C        0.94118321       1.10548545      -0.27861356
H       -0.14031210      -1.95390309       0.74762999
H        0.29571370      -1.71192747      -0.95748274
H       -1.56894849      -0.05638470      -1.10209411
H       -1.94304047      -0.38858663       0.59066466
H       -0.73448362       1.84854248       0.94427478
H        1.37073191       1.49918816      -1.18200756
12
Frame=13 idx=003149 GeodesicLength=0.5680757638847935 rxn_smarts="[O:1]=[C:2]1[C:3]([H:7])([H:8])[C:4]([H:9])([H:10])[C:5]([H:11])=[C:6]1[H:12]>>[O:1]1[C@@:2]23[C:3]([H:7])([H:8])[C:4]([H:9])([H:10])[C@:5]2([H:11])[C@@:6]13[H:12]"
O        2.23877593       0.12463394       0.56284911
C        0.98603620      -0.15034655       0.44142275
C        0.02143068      -1.20556571      -0.03014769
C       -1.13439589      -0.16781337      -0.10433692
C       -0.31469775       1.03773756       0.36754675
C        0.94256529       1.10539762      -0.26300003
H       -0.13792176      -1.95704474       0.74312143
H        0.29884657      -1.70273993      -0.95925004
H       -1.56860656      -0.05687784      -1.09878785
H       -1.94228393      -0.38973742       0.59338414
H       -0.75002924       1.86390971       0.91954148
H        1.36028046       1.49844675      -1.17234314
12
Frame=14 idx=003149 GeodesicLength=0.611538869765343 rxn_smarts="[O:1]=[C:2]1[C:3]([H:7])([H:8])[C:4]([H:9])([H:10])[C:5]([H:11])=[C:6]1[H:12]>>[O:1]1[C@@:2]23[C:3]([H:7])([H:8])[C:4]([H:9])([H:10])[C@:5]2([H:11])[C@@:6]13[H:12]"
O        2.25073209       0.10335678       0.54453384
C        0.99344256      -0.15559192       0.45346934
C        0.02372603      -1.20255897      -0.02876068
C       -1.13344510      -0.16691940      -0.10094627
C       -0.31958973       1.04119213       0.36819276
C        0.94389212       1.10533233      -0.24705939
H       -0.13545462      -1.96010745       0.73867931
H        0.30179938      -1.69359560      -0.96089671
H       -1.56825677      -0.05739276      -1.09537302
H       -1.94144531      -0.39086951       0.59623842
H       -0.76543926       1.87898734       0.89380401
H        1.35003861       1.49816702      -1.16188161
12
Frame=15 idx=003149 GeodesicLength=0.6549808579269667 rxn_smarts="[O:1]=[C:2]1[C:3]([H:7])([H:8])[C:4]([H:9])([H:10])[C:5]([H:11])=[C:6]1[H:12]>>[O:1]1[C@@:2]23[C:3]([H:7])([H:8])[C:4]([H:9])([H:10])[C@:5]2([H:11])[C@@:6]13[H:12]"
O        2.26202935       0.08207694       0.52563126
C        1.00109968      -0.16104346       0.46531980
C        0.02605415      -1.19954329      -0.02730349
C       -1.13246206      -0.16602801      -0.09742351
C       -0.32446677       1.04465049       0.36895420
C        0.94517225       1.10527644      -0.23078477
H       -0.13290922      -1.96313174       0.73426033
H        0.30455323      -1.68448388      -0.96248036
H       -1.56793799      -0.05793955      -1.09180162
H       -1.94051666      -0.39200111       0.59929776
H       -0.78067814       1.89380151       0.86693682
H        1.34006217       1.49836567      -1.15060642
12
Frame=16 idx=003149 GeodesicLength=0.6984335610782951 rxn_smarts="[O:1]=[C:2]1[C:3]([H:7])([H:8])[C:4]([H:9])([H:10])[C:5]([H:11])=[C:6]1[H:12]>>[O:1]1[C@@:2]23[C:3]([H:7])([H:8])[C:4]([H:9])([H:10])[C@:5]2([H:11])[C@@:6]13[H:12]"
O        2.27262529       0.06085911       0.50623672
C        1.00901488      -0.16672514       0.47693717
C        0.02841397      -1.19651404      -0.02579675
C       -1.13144637      -0.16513211      -0.09374842
C       -0.32933196       1.04810991       0.36982936
C        0.94638261       1.10520482      -0.21417308
H       -0.13025946      -1.96612490       0.72982619
H        0.30708781      -1.67537496      -0.96402695
H       -1.56768372      -0.05850531      -1.08803199
H       -1.93946575      -0.39312657       0.60259730
H       -0.79569721       1.90831511       0.83884670
H        1.33035991       1.49901408      -1.13849624
