11
Frame=0 idx=006346 GeodesicLength=0.0 rxn_smarts="[O:1]=[c:2]1[o:3][c:4]([H:8])[c:5]([H:9])[c:6]([H:10])[c:7]1[H:11]>>[O+:1]#[C-:2].[o:3]1[c:4]([H:8])[c:5]([H:9])[c:6]([H:10])[c:7]1[H:11]"
O        2.00555861      -0.93981845      -1.38519735
C        1.26357840      -0.68188341      -0.53888040
O       -0.18227631      -0.77775793       1.41616424
C       -1.06608649      -0.79065744       0.49362219
C       -0.98946236       0.15616467      -0.54452101
C        0.01446889       1.09877805      -0.19077651
C        0.92112327       0.33512561       0.52443994
H       -1.91055938      -1.46923126       0.60224645
H       -1.76734976       0.27518236      -1.28488305
H        0.03052054       2.16770523      -0.32798757
H        1.68048459       0.62639252       1.23577305
11
Frame=1 idx=006346 GeodesicLength=0.10994189475450862 rxn_smarts="[O:1]=[c:2]1[o:3][c:4]([H:8])[c:5]([H:9])[c:6]([H:10])[c:7]1[H:11]>>[O+:1]#[C-:2].[o:3]1[c:4]([H:8])[c:5]([H:9])[c:6]([H:10])[c:7]1[H:11]"
O        2.03994077      -1.00458751      -1.34920022
C        1.27425410      -0.69056257      -0.54484533
O       -0.15100451      -0.81249512       1.37554049
C       -1.07398834      -0.78522324       0.48712306
C       -1.00916814       0.17385365      -0.53463172
C        0.00411510       1.10911414      -0.18686947
C        0.91858775       0.35275701       0.52099166
H       -1.90571451      -1.47853889       0.59416337
H       -1.79186268       0.30114276      -1.26826593
H        0.01561472       2.17883221      -0.32009605
H        1.67922573       0.65570755       1.22609013
11
Frame=2 idx=006346 GeodesicLength=0.21957267208633555 rxn_smarts="[O:1]=[c:2]1[o:3][c:4]([H:8])[c:5]([H:9])[c:6]([H:10])[c:7]1[H:11]>>[O+:1]#[C-:2].[o:3]1[c:4]([H:8])[c:5]([H:9])[c:6]([H:10])[c:7]1[H:11]"
O        2.07415259      -1.07197583      -1.30838089
C        1.28618616      -0.69804487      -0.55346629
O       -0.12067354      -0.84430034       1.33239589
C       -1.08036435      -0.78100634       0.47980899
C       -1.02945862       0.19185785      -0.52384261
C       -0.00666529       1.11976903      -0.18277742
C        0.91598836       0.37011180       0.51662762
H       -1.89932314      -1.48865650       0.58489187
H       -1.81809722       0.32799549      -1.24921747
H        0.00035136       2.19028619      -0.31162245
H        1.67790369       0.68396352       1.21558277
11
Frame=3 idx=006346 GeodesicLength=0.32860929474948086 rxn_smarts="[O:1]=[c:2]1[o:3][c:4]([H:8])[c:5]([H:9])[c:6]([H:10])[c:7]1[H:11]>>[O+:1]#[C-:2].[o:3]1[c:4]([H:8])[c:5]([H:9])[c:6]([H:10])[c:7]1[H:11]"
O        2.10643722      -1.14134222      -1.26333743
C        1.30019436      -0.70412647      -0.56448827
O       -0.09105510      -0.87352145       1.28677481
C       -1.08480508      -0.77865572       0.47085017
C       -1.04983538       0.20974710      -0.51246582
C       -0.01786706       1.13062795      -0.17823959
C        0.91342229       0.38725648       0.51161594
H       -1.89239493      -1.49837825       0.57545274
H       -1.84515074       0.35502492      -1.22845374
H       -0.01546283       2.20194816      -0.30229162
H        1.67651726       0.71141950       1.20458281
11
Frame=4 idx=006346 GeodesicLength=0.4368931174174582 rxn_smarts="[O:1]=[c:2]1[o:3][c:4]([H:8])[c:5]([H:9])[c:6]([H:10])[c:7]1[H:11]>>[O+:1]#[C-:2].[o:3]1[c:4]([H:8])[c:5]([H:9])[c:6]([H:10])[c:7]1[H:11]"
O        2.13501354      -1.21162401      -1.21512207
C        1.31695609      -0.70899365      -0.57720266
O       -0.06211687      -0.90025718       1.23898560
C       -1.08718066      -0.77840291       0.45968873
C       -1.06982398       0.22713334      -0.50084147
C       -0.02935340       1.14152322      -0.17312623
C        0.91093267       0.40420276       0.50633111
H       -1.88541651      -1.50723638       0.56651405
H       -1.87233630       0.38175849      -1.20649933
H       -0.03168029       2.21361014      -0.29224364
H        1.67500571       0.73828616       1.19351591
11
Frame=5 idx=006346 GeodesicLength=0.544451816741236 rxn_smarts="[O:1]=[c:2]1[o:3][c:4]([H:8])[c:5]([H:9])[c:6]([H:10])[c:7]1[H:11]>>[O+:1]#[C-:2].[o:3]1[c:4]([H:8])[c:5]([H:9])[c:6]([H:10])[c:7]1[H:11]"
O        2.15851492      -1.28159131      -1.16505245
C        1.33674009      -0.71337758      -0.59046076
O       -0.03410018      -0.92420968       1.18979020
C       -1.08773993      -0.77995301       0.44628860
C       -1.08913771       0.24380348      -0.48916791
C       -0.04086518       1.15226941      -0.16754148
C        0.90851555       0.42092584       0.50114190
H       -1.87802814      -1.51577933       0.55774650
H       -1.89942089       0.40813635      -1.18339305
H       -0.04782005       2.22503261      -0.28205329
H        1.67334152       0.76474322       1.18270173
11
Frame=6 idx=006346 GeodesicLength=0.6514148977763489 rxn_smarts="[O:1]=[c:2]1[o:3][c:4]([H:8])[c:5]([H:9])[c:6]([H:10])[c:7]1[H:11]>>[O+:1]#[C-:2].[o:3]1[c:4]([H:8])[c:5]([H:9])[c:6]([H:10])[c:7]1[H:11]"
O        2.17633615      -1.34986062      -1.11485381
C        1.35956677      -0.71822249      -0.60291983
O       -0.00732275      -0.94514200       1.14009920
C       -1.08691214      -0.78285292       0.43091928
C       -1.10765757       0.25964899      -0.47748633
C       -0.05214611       1.16266731      -0.16165212
C        0.90611967       0.43735406       0.49642236
H       -1.86989540      -1.52453709       0.54866908
H       -1.92623309       0.43406639      -1.15914736
H       -0.06333978       2.23596509      -0.27246471
H        1.67148425       0.79091327       1.17241425
11
Frame=7 idx=006346 GeodesicLength=0.7579725722145452 rxn_smarts="[O:1]=[c:2]1[o:3][c:4]([H:8])[c:5]([H:9])[c:6]([H:10])[c:7]1[H:11]>>[O+:1]#[C-:2].[o:3]1[c:4]([H:8])[c:5]([H:9])[c:6]([H:10])[c:7]1[H:11]"
O        2.18884624      -1.41565200      -1.06571684
C        1.38517928      -0.72434929      -0.61357871
O        0.01798511      -0.96293352       1.09068279
C       -1.08515862      -0.78661819       0.41396511
C       -1.12551418       0.27475826      -0.46563645
C       -0.06304347       1.17261348      -0.15567065
C        0.90367798       0.45344129       0.49234268
H       -1.86067777      -1.53405326       0.53856997
H       -1.95288167       0.45962537      -1.13353306
H       -0.07786154       2.24628271      -0.26408484
H        1.66944864       0.81688514       1.16266000
11
Frame=8 idx=006346 GeodesicLength=0.8644269112268818 rxn_smarts="[O:1]=[c:2]1[o:3][c:4]([H:8])[c:5]([H:9])[c:6]([H:10])[c:7]1[H:11]>>[O+:1]#[C-:2].[o:3]1[c:4]([H:8])[c:5]([H:9])[c:6]([H:10])[c:7]1[H:11]"
O        2.19648483      -1.47923851      -1.01807261
C        1.41309714      -0.73235108      -0.62180628
O        0.04173664      -0.97741771       1.04225447
C       -1.08293369      -0.79065459       0.39603741
C       -1.14308875       0.28948865      -0.45311673
C       -0.07353176       1.18224382      -0.14972527
C        0.90117963       0.46930809       0.48891044
H       -1.84960573      -1.54536972       0.52590271
H       -1.97961784       0.48495899      -1.10618439
H       -0.09119411       2.25613566      -0.25733317
H        1.66747366       0.84289640       1.15313340
11
Frame=9 idx=006346 GeodesicLength=0.9705260453906912 rxn_smarts="[O:1]=[c:2]1[o:3][c:4]([H:8])[c:5]([H:9])[c:6]([H:10])[c:7]1[H:11]>>[O+:1]#[C-:2].[o:3]1[c:4]([H:8])[c:5]([H:9])[c:6]([H:10])[c:7]1[H:11]"
O        2.20407507      -1.53819254      -0.97060707
C        1.44262191      -0.74310478      -0.62847059
O        0.06384520      -0.98975444       0.99388326
C       -1.08063083      -0.79518054       0.37660832
C       -1.16074425       0.30378530      -0.44002114
C       -0.08359904       1.19102546      -0.14439040
C        0.89844178       0.48414239       0.48536750
H       -1.83871582      -1.55647894       0.51272707
H       -2.00740519       0.51082376      -1.07598540
H       -0.10310020       2.26501006      -0.25235975
H        1.66521135       0.86792427       1.14324819
11
Frame=10 idx=006346 GeodesicLength=1.0764571240354723 rxn_smarts="[O:1]=[c:2]1[o:3][c:4]([H:8])[c:5]([H:9])[c:6]([H:10])[c:7]1[H:11]>>[O+:1]#[C-:2].[o:3]1[c:4]([H:8])[c:5]([H:9])[c:6]([H:10])[c:7]1[H:11]"
O        2.20943275      -1.59372479      -0.92674407
C        1.47481135      -0.75505170      -0.63267167
O        0.08479442      -1.00054081       0.94525602
C       -1.07781211      -0.80080472       0.35477435
C       -1.17844657       0.31767060      -0.42593221
C       -0.09368166       1.19933255      -0.13837327
C        0.89530239       0.49842345       0.48288357
H       -1.82900740      -1.56596432       0.50178375
H       -2.03390477       0.53510473      -1.04617123
H       -0.11390055       2.27314140      -0.24918185
H        1.66241214       0.89241359       1.13437661
11
Frame=11 idx=006346 GeodesicLength=1.1823981013335283 rxn_smarts="[O:1]=[c:2]1[o:3][c:4]([H:8])[c:5]([H:9])[c:6]([H:10])[c:7]1[H:11]>>[O+:1]#[C-:2].[o:3]1[c:4]([H:8])[c:5]([H:9])[c:6]([H:10])[c:7]1[H:11]"
O        2.21378728      -1.64784908      -0.88254523
C        1.50878385      -0.76933969      -0.63484046
O        0.10453653      -1.00891078       0.89678560
C       -1.07488963      -0.80637647       0.33129079
C       -1.19648902       0.33153610      -0.41079070
C       -0.10348316       1.20730958      -0.13316084
C        0.89203360       0.51236359       0.48010580
H       -1.81806157      -1.57642694       0.48845567
H       -2.06160664       0.55998182      -1.01314461
H       -0.12428610       2.28093541      -0.24679824
H        1.65967486       0.91677647       1.12464220
11
Frame=12 idx=006346 GeodesicLength=1.288356752673306 rxn_smarts="[O:1]=[c:2]1[o:3][c:4]([H:8])[c:5]([H:9])[c:6]([H:10])[c:7]1[H:11]>>[O+:1]#[C-:2].[o:3]1[c:4]([H:8])[c:5]([H:9])[c:6]([H:10])[c:7]1[H:11]"
O        2.21815232      -1.70003378      -0.83862172
C        1.54498622      -0.78550353      -0.63504796
O        0.12326768      -1.01576980       0.84744261
C       -1.07168848      -0.81252072       0.30485094
C       -1.21497472       0.34531113      -0.39448634
C       -0.11322685       1.21488921      -0.12840006
C        0.88844836       0.52577111       0.47723939
H       -1.80733331      -1.58606743       0.47545130
H       -2.08999186       0.58496589      -0.97761912
H       -0.13423590       2.28829189      -0.24540525
H        1.65659653       0.94066602       1.11459621
11
Frame=13 idx=006346 GeodesicLength=1.3942986039687255 rxn_smarts="[O:1]=[c:2]1[o:3][c:4]([H:8])[c:5]([H:9])[c:6]([H:10])[c:7]1[H:11]>>[O+:1]#[C-:2].[o:3]1[c:4]([H:8])[c:5]([H:9])[c:6]([H:10])[c:7]1[H:11]"
O        2.22044142      -1.75187798      -0.79496618
C        1.58352070      -0.80348114      -0.63216239
O        0.14111467      -1.02046334       0.79796811
C       -1.06811373      -0.81870118       0.27586291
C       -1.23401464       0.35924945      -0.37611120
C       -0.12293845       1.22235722      -0.12411640
C        0.88457111       0.53920851       0.47445334
H       -1.79493018      -1.59680771       0.45932772
H       -2.11942825       0.61029480      -0.93809417
H       -0.14356842       2.29533041      -0.24617058
H        1.65334576       0.96489097       1.10400885
11
Frame=14 idx=006346 GeodesicLength=1.500237011492923 rxn_smarts="[O:1]=[c:2]1[o:3][c:4]([H:8])[c:5]([H:9])[c:6]([H:10])[c:7]1[H:11]>>[O+:1]#[C-:2].[o:3]1[c:4]([H:8])[c:5]([H:9])[c:6]([H:10])[c:7]1[H:11]"
O        2.22148886      -1.80344553      -0.75038122
C        1.62378155      -0.82378936      -0.62621476
O        0.15807525      -1.02300645       0.74823805
C       -1.06445965      -0.82442215       0.24462912
C       -1.25408727       0.37372243      -0.35441916
C       -0.13266976       1.22983513      -0.12048203
C        0.88047722       0.55270315       0.47134701
H       -1.78051443      -1.60925966       0.43823106
H       -2.15015753       0.63606165      -0.89362503
H       -0.15221657       2.30214475      -0.24946520
H        1.65028234       0.98945604       1.09214217
11
Frame=15 idx=006346 GeodesicLength=1.606105096442484 rxn_smarts="[O:1]=[c:2]1[o:3][c:4]([H:8])[c:5]([H:9])[c:6]([H:10])[c:7]1[H:11]>>[O+:1]#[C-:2].[o:3]1[c:4]([H:8])[c:5]([H:9])[c:6]([H:10])[c:7]1[H:11]"
O        2.22131329      -1.85497445      -0.70404664
C        1.66525260      -0.84676984      -0.61707141
O        0.17420792      -1.02332112       0.69821998
C       -1.06089229      -0.82915637       0.21155973
C       -1.27556646       0.38903836      -0.32767566
C       -0.14253390       1.23745960      -0.11747830
C        0.87625870       0.56640646       0.46763896
H       -1.76372020      -1.62394805       0.41010141
H       -2.18183565       0.66192773      -0.84385781
H       -0.16029902       2.30878384      -0.25560997
H        1.64781501       1.01455383       1.07821971
11
Frame=16 idx=006346 GeodesicLength=1.711809653704577 rxn_smarts="[O:1]=[c:2]1[o:3][c:4]([H:8])[c:5]([H:9])[c:6]([H:10])[c:7]1[H:11]>>[O+:1]#[C-:2].[o:3]1[c:4]([H:8])[c:5]([H:9])[c:6]([H:10])[c:7]1[H:11]"
O        2.22054604      -1.90649955      -0.65435184
C        1.70755321      -0.87286301      -0.60475025
O        0.18953564      -1.02146537       0.64743814
C       -1.05750842      -0.83246745       0.17651487
C       -1.29856470       0.40524257      -0.29428148
C       -0.15265145       1.24519595      -0.11531414
C        0.87201299       0.58035754       0.46280192
H       -1.74455253      -1.64077831       0.37297943
H       -2.21441643       0.68790295      -0.78754282
H       -0.16819902       2.31512709      -0.26478636
H        1.64624468       1.04024760       1.06129253
