14
Frame=0 idx=004657 GeodesicLength=0.0 rxn_smarts="[C:1]1([H:7])([H:8])[O:2][C:3]12[C:4]([H:9])([H:10])[C:5]([H:11])([H:12])[C:6]2([H:13])[H:14]>>[C:1]1([H:7])([H:8])[O:2][C:3]1=[C:6]([H:13])[H:14].[C:4](=[C:5]([H:11])[H:12])([H:9])[H:10]"
C        1.66433376      -0.39189979       0.28635585
O        1.36289097       0.96017907       0.70494790
C        0.50351656       0.34261618      -0.16043989
C       -0.93837979      -0.18034238       1.23852198
C       -1.39551456      -0.35002381      -0.06902644
C       -0.01903634       0.69384975      -1.40667168
H        1.58749883      -1.14222615       1.06297578
H        2.50830098      -0.47493874      -0.39090425
H       -1.20426320       0.70571958       1.79535026
H       -0.47538403      -0.99283919       1.77515104
H       -2.14930047       0.30829250      -0.47313780
H       -1.33682888      -1.31553596      -0.55272632
H       -0.47344666       1.66534261      -1.53804708
H        0.36561277       0.17180628      -2.27234937
14
Frame=1 idx=004657 GeodesicLength=0.06728903768174967 rxn_smarts="[C:1]1([H:7])([H:8])[O:2][C:3]12[C:4]([H:9])([H:10])[C:5]([H:11])([H:12])[C:6]2([H:13])[H:14]>>[C:1]1([H:7])([H:8])[O:2][C:3]1=[C:6]([H:13])[H:14].[C:4](=[C:5]([H:11])[H:12])([H:9])[H:10]"
C        1.67889253      -0.38630993       0.28594158
O        1.37451112       0.96559932       0.70240871
C        0.51479819       0.34324135      -0.15973819
C       -0.94193188      -0.18326890       1.23344159
C       -1.40946764      -0.35621475      -0.07212473
C       -0.02034596       0.69199902      -1.40237056
H        1.60307299      -1.13653307       1.06304837
H        2.52353500      -0.46856030      -0.39062342
H       -1.19389356       0.71036257       1.78542347
H       -0.50131991      -1.00246850       1.77971019
H       -2.16259568       0.30430101      -0.47478318
H       -1.36474201      -1.32766875      -0.54605855
H       -0.46022725       1.67095443      -1.53118741
H        0.35971405       0.17456651      -2.27308788
14
Frame=2 idx=004657 GeodesicLength=0.1347598370506914 rxn_smarts="[C:1]1([H:7])([H:8])[O:2][C:3]12[C:4]([H:9])([H:10])[C:5]([H:11])([H:12])[C:6]2([H:13])[H:14]>>[C:1]1([H:7])([H:8])[O:2][C:3]1=[C:6]([H:13])[H:14].[C:4](=[C:5]([H:11])[H:12])([H:9])[H:10]"
C        1.69401446      -0.38026632       0.28558896
O        1.38617480       0.97138680       0.69981031
C        0.52637242       0.34382016      -0.15901663
C       -0.94529890      -0.18675348       1.22807145
C       -1.42391962      -0.36215944      -0.07531499
C       -0.02150173       0.68978110      -1.39796463
H        1.61949514      -1.13035289       1.06324996
H        2.53937925      -0.46146195      -0.39025427
H       -1.18325751       0.71391642       1.77565436
H       -0.52813202      -1.01245336       1.78399051
H       -2.17605976       0.30123922      -0.47605129
H       -1.39444040      -1.33934890      -0.53935139
H       -0.44663788       1.67595754      -1.52483744
H        0.35381175       0.17669510      -2.27357490
14
Frame=3 idx=004657 GeodesicLength=0.20239889946378997 rxn_smarts="[C:1]1([H:7])([H:8])[O:2][C:3]12[C:4]([H:9])([H:10])[C:5]([H:11])([H:12])[C:6]2([H:13])[H:14]>>[C:1]1([H:7])([H:8])[O:2][C:3]1=[C:6]([H:13])[H:14].[C:4](=[C:5]([H:11])[H:12])([H:9])[H:10]"
C        1.70971244      -0.37375101       0.28529596
O        1.39789029       0.97754978       0.69715753
C        0.53825637       0.34436477      -0.15827017
C       -0.94846431      -0.19084371       1.22239545
C       -1.43887558      -0.36786116      -0.07860290
C       -0.02249451       0.68718631      -1.39344256
H        1.63678071      -1.12366941       1.06357010
H        2.55584135      -0.45362151      -0.38980438
H       -1.17234925       0.71633677       1.76603993
H       -0.55586206      -1.02276573       1.78798415
H       -2.18968255       0.29911013      -0.47692706
H       -1.42598217      -1.35053372      -0.53259244
H       -0.43268969       1.68032705      -1.51901093
H        0.34791895       0.17817144      -2.27379267
14
Frame=4 idx=004657 GeodesicLength=0.27018407667903366 rxn_smarts="[C:1]1([H:7])([H:8])[O:2][C:3]12[C:4]([H:9])([H:10])[C:5]([H:11])([H:12])[C:6]2([H:13])[H:14]>>[C:1]1([H:7])([H:8])[O:2][C:3]1=[C:6]([H:13])[H:14].[C:4](=[C:5]([H:11])[H:12])([H:9])[H:10]"
C        1.72600346      -0.36673897       0.28506386
O        1.40965989       0.98410197       0.69445616
C        0.55046845       0.34488526      -0.15749470
C       -0.95141044      -0.19559941       1.21639052
C       -1.45434064      -0.37331587      -0.08199055
C       -0.02331429       0.68419648      -1.38879610
H        1.65495106      -1.11645987       1.06400325
H        2.57293311      -0.44500369      -0.38927585
H       -1.16115814       0.71755426       1.75658336
H       -0.58455698      -1.03338149       1.79166809
H       -2.20344900       0.29793173      -0.47738359
H       -1.45944234      -1.36115692      -0.52576695
H       -0.41839135       1.68402858      -1.51373415
H        0.34204722       0.17895793      -2.27372336
14
Frame=5 idx=004657 GeodesicLength=0.3381146743504054 rxn_smarts="[C:1]1([H:7])([H:8])[O:2][C:3]12[C:4]([H:9])([H:10])[C:5]([H:11])([H:12])[C:6]2([H:13])[H:14]>>[C:1]1([H:7])([H:8])[O:2][C:3]1=[C:6]([H:13])[H:14].[C:4](=[C:5]([H:11])[H:12])([H:9])[H:10]"
C        1.74290529      -0.35920727       0.28489102
O        1.42148329       0.99105460       0.69171289
C        0.56302494       0.34538977      -0.15668746
C       -0.95411947      -0.20108358       1.21003477
C       -1.47032363      -0.37852836      -0.08548759
C       -0.02394901       0.68079653      -1.38401596
H        1.67403393      -1.10870389       1.06454040
H        2.59067432      -0.43557335      -0.38867258
H       -1.14967336       0.71751179       1.74728136
H       -0.61426167      -1.04427657       1.79503785
H       -2.21735506       0.29771888      -0.47740353
H       -1.49490012      -1.37115512      -0.51885636
H       -0.40375052       1.68703463      -1.50902375
H        0.33621108       0.17902194      -2.27335106
14
Frame=6 idx=004657 GeodesicLength=0.4061624123817419 rxn_smarts="[C:1]1([H:7])([H:8])[O:2][C:3]12[C:4]([H:9])([H:10])[C:5]([H:11])([H:12])[C:6]2([H:13])[H:14]>>[C:1]1([H:7])([H:8])[O:2][C:3]1=[C:6]([H:13])[H:14].[C:4](=[C:5]([H:11])[H:12])([H:9])[H:10]"
C        1.76043526      -0.35112604       0.28477782
O        1.43335513       0.99842002       0.68893489
C        0.57594495       0.34588560      -0.15584610
C       -0.95657366      -0.20737057       1.20329660
C       -1.48683156      -0.38349286      -0.08909753
C       -0.02438751       0.67696305      -1.37909487
H        1.69405233      -1.10037544       1.06517437
H        2.60907415      -0.42528259      -0.38799677
H       -1.13788102       0.71612335       1.73812742
H       -0.64503005      -1.05542066       1.79806819
H       -2.23136824       0.29849314      -0.47694781
H       -1.53243549      -1.38043932      -0.51183749
H       -0.38877737       1.68930399      -1.50490785
H        0.33042308       0.17831831      -2.27265086
14
Frame=7 idx=004657 GeodesicLength=0.4743217807381085 rxn_smarts="[C:1]1([H:7])([H:8])[O:2][C:3]12[C:4]([H:9])([H:10])[C:5]([H:11])([H:12])[C:6]2([H:13])[H:14]>>[C:1]1([H:7])([H:8])[O:2][C:3]1=[C:6]([H:13])[H:14].[C:4](=[C:5]([H:11])[H:12])([H:9])[H:10]"
C        1.77861062      -0.34247117       0.28472279
O        1.44527179       1.00620661       0.68613214
C        0.58924500       0.34637818      -0.15496831
C       -0.95875473      -0.21453685       1.19614700
C       -1.50387508      -0.38821346      -0.09282851
C       -0.02461738       0.67268134      -1.37402489
H        1.71503399      -1.09145590       1.06589644
H        2.62814902      -0.41409257      -0.38725080
H       -1.12576862       0.71331581       1.72910829
H       -0.67691587      -1.06676649       1.80074865
H       -2.24547892       0.30026683      -0.47598640
H       -1.57211214      -1.38893128      -0.50468513
H       -0.37348380       1.69080978      -1.50139851
H        0.32469612       0.17680917      -2.27161275
14
Frame=8 idx=004657 GeodesicLength=0.5425564624566843 rxn_smarts="[C:1]1([H:7])([H:8])[O:2][C:3]12[C:4]([H:9])([H:10])[C:5]([H:11])([H:12])[C:6]2([H:13])[H:14]>>[C:1]1([H:7])([H:8])[O:2][C:3]1=[C:6]([H:13])[H:14].[C:4](=[C:5]([H:11])[H:12])([H:9])[H:10]"
C        1.79745214      -0.33320399       0.28473867
O        1.45721203       1.01443013       0.68332427
C        0.60294149       0.34687198      -0.15405326
C       -0.96064132      -0.22267961       1.18853187
C       -1.52146657      -0.39267876      -0.09667647
C       -0.02462740       0.66791865      -1.36881007
H        1.73701396      -1.08191481       1.06671422
H        2.64791419      -0.40193443      -0.38641399
H       -1.11330651       0.70896134       1.72019104
H       -0.70996763      -1.07828822       1.80301465
H       -2.25964856       0.30306860      -0.47443878
H       -1.61404064      -1.39649346      -0.49734640
H       -0.35787831       1.69151954      -1.49854503
H        0.31904314       0.17442304      -2.27023072
14
Frame=9 idx=004657 GeodesicLength=0.6107633885086106 rxn_smarts="[C:1]1([H:7])([H:8])[O:2][C:3]12[C:4]([H:9])([H:10])[C:5]([H:11])([H:12])[C:6]2([H:13])[H:14]>>[C:1]1([H:7])([H:8])[O:2][C:3]1=[C:6]([H:13])[H:14].[C:4](=[C:5]([H:11])[H:12])([H:9])[H:10]"
C        1.81698854      -0.32317593       0.28483103
O        1.46903532       1.02316316       0.68049358
C        0.61704388       0.34734518      -0.15311916
C       -0.96221603      -0.23206899       1.18033717
C       -1.53967323      -0.39677255      -0.10065626
C       -0.02439014       0.66251845      -1.36345111
H        1.76006819      -1.07158625       1.06763181
H        2.66842079      -0.38856596      -0.38547495
H       -1.10041102       0.70278192       1.71140803
H       -0.74426502      -1.09018697       1.80480167
H       -2.27373132       0.30720519      -0.47215631
H       -1.65842913      -1.40268218      -0.48981230
H       -0.34191996       1.69116210      -1.49646396
H        0.31347914       0.17086284      -2.26836925
14
Frame=10 idx=004657 GeodesicLength=0.6789938509874073 rxn_smarts="[C:1]1([H:7])([H:8])[O:2][C:3]12[C:4]([H:9])([H:10])[C:5]([H:11])([H:12])[C:6]2([H:13])[H:14]>>[C:1]1([H:7])([H:8])[O:2][C:3]1=[C:6]([H:13])[H:14].[C:4](=[C:5]([H:11])[H:12])([H:9])[H:10]"
C        1.83722906      -0.31241176       0.28501589
O        1.48078429       1.03239474       0.67767333
C        0.63156321       0.34781231      -0.15215536
C       -0.96345956      -0.24271815       1.17155937
C       -1.55848018      -0.40053612      -0.10475452
C       -0.02390097       0.65652088      -1.35795686
H        1.78420745      -1.06051029       1.06866237
H        2.68966766      -0.37402041      -0.38440618
H       -1.08708416       0.69471308       1.70274469
H       -0.77982198      -1.10227106       1.80604679
H       -2.28776868       0.31256176      -0.46910549
H       -1.70532467      -1.40756905      -0.48203360
H       -0.32563192       1.68984891      -1.49518496
H        0.30802044       0.16618515      -2.26610547
14
Frame=11 idx=004657 GeodesicLength=0.7472641087677593 rxn_smarts="[C:1]1([H:7])([H:8])[O:2][C:3]12[C:4]([H:9])([H:10])[C:5]([H:11])([H:12])[C:6]2([H:13])[H:14]>>[C:1]1([H:7])([H:8])[O:2][C:3]1=[C:6]([H:13])[H:14].[C:4](=[C:5]([H:11])[H:12])([H:9])[H:10]"
C        1.85819152      -0.30083777       0.28530539
O        1.49239758       1.04216504       0.67486120
C        0.64650295       0.34826388      -0.15116381
C       -0.96435261      -0.25478106       1.16215995
C       -1.57793274      -0.40392509      -0.10898201
C       -0.02313813       0.64985563      -1.35233468
H        1.80948172      -1.04859971       1.06982173
H        2.71168486      -0.35817881      -0.38318680
H       -1.07327515       0.68457742       1.69425231
H       -0.81665713      -1.11457544       1.80666025
H       -2.30173231       0.31926906      -0.46520584
H       -1.75487500      -1.41095626      -0.47399690
H       -0.30898674       1.68747950      -1.49479188
H        0.30269119       0.16024359      -2.26339890
14
Frame=12 idx=004657 GeodesicLength=0.8155546728772688 rxn_smarts="[C:1]1([H:7])([H:8])[O:2][C:3]12[C:4]([H:9])([H:10])[C:5]([H:11])([H:12])[C:6]2([H:13])[H:14]>>[C:1]1([H:7])([H:8])[O:2][C:3]1=[C:6]([H:13])[H:14].[C:4](=[C:5]([H:11])[H:12])([H:9])[H:10]"
C        1.87990112      -0.28834523       0.28573497
O        1.50377208       1.05253791       0.67206480
C        0.66186257       0.34868508      -0.15015063
C       -0.96487813      -0.26847235       1.15204933
C       -1.59808618      -0.40684993      -0.11332696
C       -0.02208242       0.64241017      -1.34661173
H        1.83596445      -1.03573260       1.07115621
H        2.73451000      -0.34085864      -0.38175763
H       -1.05890612       0.67208281       1.68597318
H       -0.85477991      -1.12718146       1.80647979
H       -2.31553211       0.32752684      -0.46027766
H       -1.80730375      -1.41252163      -0.46567617
H       -0.29195080       1.68391472      -1.49544146
H        0.29750921       0.15280431      -2.26021604
14
Frame=13 idx=004657 GeodesicLength=0.8838930170187566 rxn_smarts="[C:1]1([H:7])([H:8])[O:2][C:3]12[C:4]([H:9])([H:10])[C:5]([H:11])([H:12])[C:6]2([H:13])[H:14]>>[C:1]1([H:7])([H:8])[O:2][C:3]1=[C:6]([H:13])[H:14].[C:4](=[C:5]([H:11])[H:12])([H:9])[H:10]"
C        1.90234021      -0.27486688       0.28630775
O        1.51482916       1.06352742       0.66928680
C        0.67763538       0.34906973      -0.14912018
C       -0.96502485      -0.28395899       1.14116654
C       -1.61898252      -0.40927518      -0.11780164
C       -0.02070824       0.63412781      -1.34078489
H        1.86365451      -1.02182767       1.07266399
H        2.75813448      -0.32195078      -0.38011015
H       -1.04390988       0.65707621       1.67792318
H       -0.89416187      -1.14010191       1.80547920
H       -2.32915156       0.33745729      -0.45424901
H       -1.86267695      -1.41208143      -0.45705920
H       -0.27449373       1.67906372      -1.49719617
H        0.29251585       0.14374066      -2.25650623
14
Frame=14 idx=004657 GeodesicLength=0.9522395820620747 rxn_smarts="[C:1]1([H:7])([H:8])[O:2][C:3]12[C:4]([H:9])([H:10])[C:5]([H:11])([H:12])[C:6]2([H:13])[H:14]>>[C:1]1([H:7])([H:8])[O:2][C:3]1=[C:6]([H:13])[H:14].[C:4](=[C:5]([H:11])[H:12])([H:9])[H:10]"
C        1.92554059      -0.26021139       0.28711010
O        1.52537646       1.07525888       0.66653378
C        0.69380574       0.34938999      -0.14808250
C       -0.96477745      -0.30157360       1.12936308
C       -1.64072309      -0.41100826      -0.12236440
C       -0.01899694       0.62480481      -1.33492739
H        1.89266608      -1.00666572       1.07447002
H        2.78260763      -0.30114765      -0.37810651
H       -1.02814617       0.63902858       1.67019192
H       -0.93474162      -1.15354748       1.80326606
H       -2.34241717       0.34941797      -0.44677076
H       -1.92137266      -1.40904914      -0.44808051
H       -0.25654320       1.67268346      -1.50037050
H        0.28772181       0.13261955      -2.25223238
14
Frame=15 idx=004657 GeodesicLength=1.0206065953561145 rxn_smarts="[C:1]1([H:7])([H:8])[O:2][C:3]12[C:4]([H:9])([H:10])[C:5]([H:11])([H:12])[C:6]2([H:13])[H:14]>>[C:1]1([H:7])([H:8])[O:2][C:3]1=[C:6]([H:13])[H:14].[C:4](=[C:5]([H:11])[H:12])([H:9])[H:10]"
C        1.94948161      -0.24421756       0.28820091
O        1.53522466       1.08781527       0.66380334
C        0.71034523       0.34962571      -0.14705007
C       -0.96413711      -0.32160984       1.11650022
C       -1.66339798      -0.41188830      -0.12699470
C       -0.01692209       0.61427887      -1.32908803
H        1.92302678      -0.99004457       1.07665698
H        2.80792710      -0.27819862      -0.37565053
H       -1.01147993       0.61752941       1.66286061
H       -0.97637799      -1.16771784       1.79957497
H       -2.35520894       0.36372926      -0.43758664
H       -1.98362560      -1.40293703      -0.43868782
H       -0.23802050       1.66455186      -1.50521017
H        0.28316474       0.11908336      -2.24732906
14
Frame=16 idx=004657 GeodesicLength=1.0890195377748835 rxn_smarts="[C:1]1([H:7])([H:8])[O:2][C:3]12[C:4]([H:9])([H:10])[C:5]([H:11])([H:12])[C:6]2([H:13])[H:14]>>[C:1]1([H:7])([H:8])[O:2][C:3]1=[C:6]([H:13])[H:14].[C:4](=[C:5]([H:11])[H:12])([H:9])[H:10]"
C        1.97414846      -0.22664392       0.28967998
O        1.54409965       1.10134724       0.66108299
C        0.72720977       0.34974802      -0.14604669
C       -0.96311963      -0.34446653       1.10237149
C       -1.68713814      -0.41163984      -0.13164647
C       -0.01446063       0.60230221      -1.32335829
H        1.95479952      -0.97166925       1.07937067
H        2.83411708      -0.25273854      -0.37257988
H       -0.99373061       0.59195548       1.65606178
H       -1.01887672      -1.18298830       1.79399549
H       -2.36730896       0.38087838      -0.42629226
H       -2.04979281      -1.39300488      -0.42880475
H       -0.21881474       1.65433592      -1.51211373
H        0.27886777       0.10258401      -2.24172032
