11
Frame=0 idx=001366 GeodesicLength=0.0 rxn_smarts="[N:1](=[C:2](/[O:3][C:4]([C:5](=[O:6])[H:11])([H:9])[H:10])[H:8])\[H:7]>>[N:1]([C:2](=[O:3])[H:8])([C:5]([C:4]([H:9])([H:10])[H:11])=[O:6])[H:7]"
N        0.54463500       0.85489865      -0.33516508
C        1.32231466      -0.20153677      -0.61427306
O        0.93080907      -1.36258999      -0.48139124
C       -0.98023158      -0.78994160       0.11042162
C       -0.52477532       0.48105823       0.64886576
O       -0.34986496       0.80051048       1.84266836
H        0.98437401       1.75422722      -0.21029584
H        2.33343419       0.00435621      -0.97762106
H       -1.43337959      -1.51568627       0.78031217
H       -1.22901880      -0.83498040      -0.94024981
H       -1.59829671       0.80968419       0.17672816
11
Frame=1 idx=001366 GeodesicLength=0.10022770930382491 rxn_smarts="[N:1](=[C:2](/[O:3][C:4]([C:5](=[O:6])[H:11])([H:9])[H:10])[H:8])\[H:7]>>[N:1]([C:2](=[O:3])[H:8])([C:5]([C:4]([H:9])([H:10])[H:11])=[O:6])[H:7]"
N        0.57441849       0.86413614      -0.30902903
C        1.33182174      -0.19651009      -0.61465722
O        0.91168487      -1.35340466      -0.52261001
C       -0.97480919      -0.78810228       0.11743179
C       -0.53313178       0.48716011       0.66017432
O       -0.40067150       0.81547141       1.85372943
H        1.02615697       1.75701984      -0.18269955
H        2.33161549      -0.00121013      -1.01363963
H       -1.41519783      -1.50946704       0.80115800
H       -1.24868755      -0.86642183      -0.92473022
H       -1.60319970       0.79132854       0.13487213
11
Frame=2 idx=001366 GeodesicLength=0.20019881075758636 rxn_smarts="[N:1](=[C:2](/[O:3][C:4]([C:5](=[O:6])[H:11])([H:9])[H:10])[H:8])\[H:7]>>[N:1]([C:2](=[O:3])[H:8])([C:5]([C:4]([H:9])([H:10])[H:11])=[O:6])[H:7]"
N        0.60581845       0.87239931      -0.28041258
C        1.34103590      -0.19174060      -0.61594415
O        0.89129741      -1.34199978      -0.56485004
C       -0.96960589      -0.78609016       0.12430504
C       -0.54232018       0.49372915       0.67091194
O       -0.45364036       0.83137301       1.86266486
H        1.07025907       1.75822383      -0.15237419
H        2.32757883      -0.00517138      -1.05083973
H       -1.39534282      -1.50313344       0.82248780
H       -1.26948792      -0.90045419      -0.90706810
H       -1.60559251       0.77286426       0.09111914
11
Frame=3 idx=001366 GeodesicLength=0.29989744716669736 rxn_smarts="[N:1](=[C:2](/[O:3][C:4]([C:5](=[O:6])[H:11])([H:9])[H:10])[H:8])\[H:7]>>[N:1]([C:2](=[O:3])[H:8])([C:5]([C:4]([H:9])([H:10])[H:11])=[O:6])[H:7]"
N        0.63881231       0.87936829      -0.24929699
C        1.34956089      -0.18711206      -0.61892225
O        0.86913480      -1.32807268      -0.60906593
C       -0.96471742      -0.78392745       0.13106157
C       -0.55234659       0.50081778       0.68086430
O       -0.50854775       0.84835681       1.86905764
H        1.11660412       1.75753162      -0.11950301
H        2.32200031      -0.00731298      -1.08759806
H       -1.37333130      -1.49665243       0.84456072
H       -1.29174665      -0.93715986      -0.88673153
H       -1.60542272       0.75416295       0.04557353
11
Frame=4 idx=001366 GeodesicLength=0.3992927016750464 rxn_smarts="[N:1](=[C:2](/[O:3][C:4]([C:5](=[O:6])[H:11])([H:9])[H:10])[H:8])\[H:7]>>[N:1]([C:2](=[O:3])[H:8])([C:5]([C:4]([H:9])([H:10])[H:11])=[O:6])[H:7]"
N        0.67348837       0.88460294      -0.21540104
C        1.35711226      -0.18249686      -0.62396123
O        0.84470961      -1.31120066      -0.65593427
C       -0.96023142      -0.78162979       0.13771735
C       -0.56330531       0.50852016       0.68981923
O       -0.56543649       0.86662633       1.87250410
H        1.16517030       1.75455465      -0.08403334
H        2.31532349      -0.00750093      -1.12327721
H       -1.34867810      -1.48994945       0.86755900
H       -1.31549699      -0.97659197      -0.86318864
H       -1.60265571       0.73506558      -0.00180394
11
Frame=5 idx=001366 GeodesicLength=0.49837576891077384 rxn_smarts="[N:1](=[C:2](/[O:3][C:4]([C:5](=[O:6])[H:11])([H:9])[H:10])[H:8])\[H:7]>>[N:1]([C:2](=[O:3])[H:8])([C:5]([C:4]([H:9])([H:10])[H:11])=[O:6])[H:7]"
N        0.71010050       0.88746032      -0.17810483
C        1.36361267      -0.17783153      -0.63091317
O        0.81757911      -1.29083173      -0.70581975
C       -0.95621406      -0.77920247       0.14429125
C       -0.57537229       0.51699448       0.69751676
O       -0.62461473       0.88649435       1.87252016
H        1.21605797       1.74873891      -0.04557501
H        2.30741216      -0.00549466      -1.15833612
H       -1.32091632      -1.48286270       0.89160504
H       -1.34044578      -1.01883781      -0.83591655
H       -1.59719922       0.71537284      -0.05126779
11
Frame=6 idx=001366 GeodesicLength=0.5970683115693192 rxn_smarts="[N:1](=[C:2](/[O:3][C:4]([C:5](=[O:6])[H:11])([H:9])[H:10])[H:8])\[H:7]>>[N:1]([C:2](=[O:3])[H:8])([C:5]([C:4]([H:9])([H:10])[H:11])=[O:6])[H:7]"
N        0.74883479       0.88704492      -0.13682666
C        1.36893833      -0.17307444      -0.63966206
O        0.78728912      -1.26628700      -0.75899113
C       -0.95275438      -0.77665399       0.15078366
C       -0.58865994       0.52638145       0.70367246
O       -0.68602762       0.90809312       1.86862585
H        1.26898814       1.73956365      -0.00429045
H        2.29827248      -0.00104295      -1.19275072
H       -1.28971518      -1.47513652       0.91670603
H       -1.36609550      -1.06370890      -0.80450636
H       -1.58907024       0.69482065      -0.10276064
11
Frame=7 idx=001366 GeodesicLength=0.6952256114598653 rxn_smarts="[N:1](=[C:2](/[O:3][C:4]([C:5](=[O:6])[H:11])([H:9])[H:10])[H:8])\[H:7]>>[N:1]([C:2](=[O:3])[H:8])([C:5]([C:4]([H:9])([H:10])[H:11])=[O:6])[H:7]"
N        0.78995542       0.88206227      -0.09071454
C        1.37310227      -0.16827278      -0.64979374
O        0.75383230      -1.23708132      -0.81462930
C       -0.94997198      -0.77394928       0.15713585
C       -0.60316928       0.53676135       0.70808687
O       -0.74933358       0.93124342       1.86052882
H        1.32319701       1.72665601       0.03900341
H        2.28735673       0.00630358      -1.22714600
H       -1.25539068      -1.46634476       0.94253953
H       -1.39129384      -1.11060765      -0.76905409
H       -1.57828437       0.67322917      -0.15595681
11
Frame=8 idx=001366 GeodesicLength=0.7928887009366029 rxn_smarts="[N:1](=[C:2](/[O:3][C:4]([C:5](=[O:6])[H:11])([H:9])[H:10])[H:8])\[H:7]>>[N:1]([C:2](=[O:3])[H:8])([C:5]([C:4]([H:9])([H:10])[H:11])=[O:6])[H:7]"
N        0.83376555       0.87086606      -0.03892001
C        1.37632768      -0.16360567      -0.66061246
O        0.71766333      -1.20312013      -0.87112020
C       -0.94805429      -0.77099562       0.16316383
C       -0.61863767       0.54811122       0.71069675
O       -0.81346811       0.95534132       1.84834426
H        1.37708464       1.71016953       0.08228531
H        2.27404422       0.01720782      -1.26195617
H       -1.21916764      -1.45597576       0.96841334
H       -1.41460220      -1.15866445      -0.73027022
H       -1.56495550       0.65066568      -0.21002442
11
Frame=9 idx=001366 GeodesicLength=0.8900749802315279 rxn_smarts="[N:1](=[C:2](/[O:3][C:4]([C:5](=[O:6])[H:11])([H:9])[H:10])[H:8])\[H:7]>>[N:1]([C:2](=[O:3])[H:8])([C:5]([C:4]([H:9])([H:10])[H:11])=[O:6])[H:7]"
N        0.87978064       0.85238941       0.01768022
C        1.37874758      -0.15929627      -0.67131715
O        0.67929305      -1.16432806      -0.92702117
C       -0.94718484      -0.76761506       0.16841818
C       -0.63428373       0.56012837       0.71162050
O       -0.87552827       0.97899088       1.83296904
H        1.42745985       1.69117200       0.12165260
H        2.25947555       0.03130620      -1.29473985
H       -1.18274540      -1.44367779       0.99312446
H       -1.43494531      -1.20644525      -0.68950647
H       -1.55006910       0.62737558      -0.26288038
11
Frame=10 idx=001366 GeodesicLength=0.9863604670147122 rxn_smarts="[N:1](=[C:2](/[O:3][C:4]([C:5](=[O:6])[H:11])([H:9])[H:10])[H:8])\[H:7]>>[N:1]([C:2](=[O:3])[H:8])([C:5]([C:4]([H:9])([H:10])[H:11])=[O:6])[H:7]"
N        0.92633444       0.82703369       0.07572902
C        1.38041436      -0.15475962      -0.68188104
O        0.64197953      -1.12364322      -0.97669307
C       -0.94740666      -0.76363004       0.17274096
C       -0.64931670       0.57269107       0.71085599
O       -0.93333601       1.00141239       1.81516244
H        1.47351362       1.66865103       0.15822134
H        2.24176403       0.04974785      -1.32778835
H       -1.14952379      -1.42876428       1.01590052
H       -1.44968091      -1.25251541      -0.64920969
H       -1.53474191       0.60377655      -0.31303812
11
Frame=11 idx=001366 GeodesicLength=1.0825376445345773 rxn_smarts="[N:1](=[C:2](/[O:3][C:4]([C:5](=[O:6])[H:11])([H:9])[H:10])[H:8])\[H:7]>>[N:1]([C:2](=[O:3])[H:8])([C:5]([C:4]([H:9])([H:10])[H:11])=[O:6])[H:7]"
N        0.96944382       0.79925383       0.12747761
C        1.38086500      -0.14917987      -0.69315105
O        0.60576262      -1.08150283      -1.02114946
C       -0.94861348      -0.75923065       0.17617970
C       -0.66430014       0.58630815       0.70746634
O       -0.98530114       1.02324900       1.79516202
H        1.51922217       1.64067295       0.19791163
H        2.22329685       0.07105107      -1.35878927
H       -1.11851409      -1.41125754       1.03739781
H       -1.45904526      -1.29803987      -0.60902263
H       -1.52281635       0.57867576      -0.35948269
11
Frame=12 idx=001366 GeodesicLength=1.1786615864773404 rxn_smarts="[N:1](=[C:2](/[O:3][C:4]([C:5](=[O:6])[H:11])([H:9])[H:10])[H:8])\[H:7]>>[N:1]([C:2](=[O:3])[H:8])([C:5]([C:4]([H:9])([H:10])[H:11])=[O:6])[H:7]"
N        1.00862549       0.77039806       0.17221957
C        1.38027527      -0.14272985      -0.70474028
O        0.57070433      -1.03845117      -1.06076096
C       -0.95075146      -0.75433771       0.17863827
C       -0.67943233       0.60072269       0.70194274
O       -1.03155023       1.04391344       1.77418845
H        1.56486758       1.60831762       0.23945332
H        2.20499942       0.09393608      -1.38688511
H       -1.08961534      -1.39149468       1.05725684
H       -1.46302895      -1.34266289      -0.56927301
H       -1.51509379       0.55238840      -0.40203982
11
Frame=13 idx=001366 GeodesicLength=1.2747892256935887 rxn_smarts="[N:1](=[C:2](/[O:3][C:4]([C:5](=[O:6])[H:11])([H:9])[H:10])[H:8])\[H:7]>>[N:1]([C:2](=[O:3])[H:8])([C:5]([C:4]([H:9])([H:10])[H:11])=[O:6])[H:7]"
N        1.04505039       0.74019056       0.21185405
C        1.37926783      -0.13567655      -0.71624334
O        0.53800590      -0.99645152      -1.09435508
C       -0.95381276      -0.74899258       0.18016693
C       -0.69443336       0.61546842       0.69529663
O       -1.07293736       1.06310731       1.75341302
H        1.60947827       1.57307592       0.28029957
H        2.18588943       0.11896330      -1.41355641
H       -1.06455803      -1.36988919       1.07515540
H       -1.46154226      -1.38549520      -0.53092414
H       -1.51040805       0.52569954      -0.44110663
11
Frame=14 idx=001366 GeodesicLength=1.3708181845528038 rxn_smarts="[N:1](=[C:2](/[O:3][C:4]([C:5](=[O:6])[H:11])([H:9])[H:10])[H:8])\[H:7]>>[N:1]([C:2](=[O:3])[H:8])([C:5]([C:4]([H:9])([H:10])[H:11])=[O:6])[H:7]"
N        1.07959965       0.70818273       0.24772193
C        1.37814395      -0.12812830      -0.72755218
O        0.50813232      -0.95665996      -1.12194866
C       -0.95766586      -0.74326663       0.18094537
C       -0.70912737       0.63034733       0.68789870
O       -1.11035521       1.08119343       1.73296258
H        1.65285568       1.53528614       0.31982956
H        2.16491863       0.14709160      -1.43969636
H       -1.04387185      -1.34669140       1.09133974
H       -1.45491303      -1.42623705      -0.49404675
H       -1.50771691       0.49888210      -0.47745393
11
Frame=15 idx=001366 GeodesicLength=1.4669074103824655 rxn_smarts="[N:1](=[C:2](/[O:3][C:4]([C:5](=[O:6])[H:11])([H:9])[H:10])[H:8])\[H:7]>>[N:1]([C:2](=[O:3])[H:8])([C:5]([C:4]([H:9])([H:10])[H:11])=[O:6])[H:7]"
N        1.11226322       0.67520677       0.27967097
C        1.37682744      -0.12035349      -0.73840593
O        0.47989349      -0.91781541      -1.14578024
C       -0.96232840      -0.73713594       0.18087673
C       -0.72377420       0.64529039       0.68007892
O       -1.14421840       1.09778383       1.71355092
H        1.69441440       1.49620742       0.35664088
H        2.14433991       0.17604261      -1.46307078
H       -1.02578764      -1.32254583       1.10569286
H       -1.44423834      -1.46484234      -0.45816119
H       -1.50739147       0.47216200      -0.51109315
11
Frame=16 idx=001366 GeodesicLength=1.5628609843922856 rxn_smarts="[N:1](=[C:2](/[O:3][C:4]([C:5](=[O:6])[H:11])([H:9])[H:10])[H:8])\[H:7]>>[N:1]([C:2](=[O:3])[H:8])([C:5]([C:4]([H:9])([H:10])[H:11])=[O:6])[H:7]"
N        1.14366662       0.64076201       0.30859172
C        1.37548487      -0.11230933      -0.74891651
O        0.45369825      -0.88076360      -1.16571432
C       -0.96765889      -0.73072640       0.18022152
C       -0.73825778       0.66018220       0.67206791
O       -1.17521298       1.11333685       1.69505330
H        1.73410687       1.45590318       0.39076834
H        2.12321881       0.20668601      -1.48465809
H       -1.01086784      -1.29760288       1.11856090
H       -1.42964819      -1.50103632      -0.42335016
H       -1.50852973       0.44556830      -0.54262461
