14
Frame=0 idx=010151 GeodesicLength=0.0 rxn_smarts="[O:1]([C@@:2]1([H:9])[C@@:3]2([H:10])[C@@:4]3([H:11])[C:5]([H:12])([H:13])[C@:6]1([H:14])[N:7]23)[H:8]>>[O:1]([C@@:2]1([H:9])[C@@:3]2([H:10])[C@@:4]([H:11])([C:5]([H:12])([H:13])[C:6]1)[N:7]2[H:14])[H:8]"
O        1.88904178      -0.59386567      -0.89729403
C        1.17588050      -0.36015868       0.28498618
C        0.48405430       0.95334890       0.45723635
C       -0.89481782       0.81782796      -0.09747470
C       -1.07594727      -0.56741640      -0.63343977
C       -0.15379522      -1.15040604       0.45454331
N       -0.63559665       0.53919544       1.33503876
H        1.36184253      -0.31432613      -1.64845850
H        1.86334592      -0.58157465       1.10096573
H        0.93909987       1.92361963       0.63041496
H       -1.48634968       1.69642040      -0.33654879
H       -0.74692365      -0.75159310      -1.65943279
H       -2.09753358      -0.93285793      -0.53370517
H       -0.62230103      -0.67821378       1.54316845
14
Frame=1 idx=010151 GeodesicLength=0.0730862357263469 rxn_smarts="[O:1]([C@@:2]1([H:9])[C@@:3]2([H:10])[C@@:4]3([H:11])[C:5]([H:12])([H:13])[C@:6]1([H:14])[N:7]23)[H:8]>>[O:1]([C@@:2]1([H:9])[C@@:3]2([H:10])[C@@:4]([H:11])([C:5]([H:12])([H:13])[C:6]1)[N:7]2[H:14])[H:8]"
O        1.90475853      -0.55823143      -0.89185342
C        1.17682975      -0.35186567       0.28403517
C        0.48021242       0.95927976       0.46185751
C       -0.89741652       0.82340343      -0.09297338
C       -1.07652228      -0.56028108      -0.63610676
C       -0.14660260      -1.14756879       0.43941215
N       -0.63769263       0.53570806       1.33735145
H        1.37151183      -0.39508232      -1.67070685
H        1.85987396      -0.57491928       1.10421946
H        0.93390270       1.92873191       0.64192172
H       -1.49149959       1.70083592      -0.32883422
H       -0.75803365      -0.73831165      -1.66618669
H       -2.09596065      -0.93075674      -0.52973300
H       -0.62336125      -0.69094214       1.54759687
14
Frame=2 idx=010151 GeodesicLength=0.14614482146001218 rxn_smarts="[O:1]([C@@:2]1([H:9])[C@@:3]2([H:10])[C@@:4]3([H:11])[C:5]([H:12])([H:13])[C@:6]1([H:14])[N:7]23)[H:8]>>[O:1]([C@@:2]1([H:9])[C@@:3]2([H:10])[C@@:4]([H:11])([C:5]([H:12])([H:13])[C:6]1)[N:7]2[H:14])[H:8]"
O        1.91595561      -0.51888687      -0.89016324
C        1.17750478      -0.34218478       0.28181068
C        0.47562727       0.96604850       0.46713181
C       -0.90078731       0.82952275      -0.08765311
C       -1.07704595      -0.55215583      -0.63929232
C       -0.13920523      -1.14395102       0.42335438
N       -0.64001405       0.53178263       1.34009213
H        1.38753832      -0.48743376      -1.68695808
H        1.85774249      -0.56758982       1.10445671
H        0.92750459       1.93472643       0.65468749
H       -1.49817091       1.70554303      -0.31913774
H       -0.76890673      -0.72258228      -1.67348130
H       -2.09396146      -0.92849812      -0.52650832
H       -0.62378143      -0.70434084       1.55166090
14
Frame=3 idx=010151 GeodesicLength=0.21946418610179666 rxn_smarts="[O:1]([C@@:2]1([H:9])[C@@:3]2([H:10])[C@@:4]3([H:11])[C:5]([H:12])([H:13])[C@:6]1([H:14])[N:7]23)[H:8]>>[O:1]([C@@:2]1([H:9])[C@@:3]2([H:10])[C@@:4]([H:11])([C:5]([H:12])([H:13])[C:6]1)[N:7]2[H:14])[H:8]"
O        1.92118941      -0.47475917      -0.89430470
C        1.17799651      -0.33072256       0.27766390
C        0.47014081       0.97381002       0.47331763
C       -0.90521327       0.83632234      -0.08126143
C       -1.07757495      -0.54276441      -0.64319260
C       -0.13151465      -1.13937393       0.40613351
N       -0.64266508       0.52721932       1.34345278
H        1.41110415      -0.59423895      -1.69348470
H        1.85775337      -0.55948369       1.10040740
H        0.91968484       1.94171148       0.66935106
H       -1.50651396       1.71076793      -0.30727864
H       -0.77933243      -0.70389894      -1.68153211
H       -2.09161883      -0.92593809      -0.52454589
H       -0.62343592      -0.71865136       1.55527378
14
Frame=4 idx=010151 GeodesicLength=0.29039891940096507 rxn_smarts="[O:1]([C@@:2]1([H:9])[C@@:3]2([H:10])[C@@:4]3([H:11])[C:5]([H:12])([H:13])[C@:6]1([H:14])[N:7]23)[H:8]>>[O:1]([C@@:2]1([H:9])[C@@:3]2([H:10])[C@@:4]([H:11])([C:5]([H:12])([H:13])[C:6]1)[N:7]2[H:14])[H:8]"
O        1.91845723      -0.43240839      -0.90473326
C        1.17805916      -0.31860258       0.27166884
C        0.46413453       0.98176517       0.47963662
C       -0.91046441       0.84331390      -0.07419510
C       -1.07834989      -0.53277243      -0.64739439
C       -0.12416870      -1.13421207       0.38862169
N       -0.64521309       0.52244382       1.34706758
H        1.44321395      -0.70243202      -1.68771825
H        1.85972816      -0.55130002       1.09212868
H        0.91152002       1.94880112       0.68353762
H       -1.51581438       1.71608206      -0.29450462
H       -0.78933697      -0.68403316      -1.68961101
H       -2.08921612      -0.92336199      -0.52343183
H       -0.62254951      -0.73328341       1.55892743
14
Frame=5 idx=010151 GeodesicLength=0.3614416372581306 rxn_smarts="[O:1]([C@@:2]1([H:9])[C@@:3]2([H:10])[C@@:4]3([H:11])[C:5]([H:12])([H:13])[C@:6]1([H:14])[N:7]23)[H:8]>>[O:1]([C@@:2]1([H:9])[C@@:3]2([H:10])[C@@:4]([H:11])([C:5]([H:12])([H:13])[C:6]1)[N:7]2[H:14])[H:8]"
O        1.90751328      -0.39330341      -0.92110676
C        1.17735439      -0.30625531       0.26383723
C        0.45766868       0.98969452       0.48565310
C       -0.91666352       0.85043231      -0.06645020
C       -1.07987827      -0.52227334      -0.65176552
C       -0.11761494      -1.12867454       0.37076750
N       -0.64747924       0.51753759       1.35089675
H        1.48660882      -0.80891177      -1.67020370
H        1.86328318      -0.54331138       1.07969586
H        0.90348244       1.95570214       0.69646373
H       -1.52610547       1.72157527      -0.28045409
H       -0.79954659      -0.66356963      -1.69756086
H       -2.08737351      -0.92046771      -0.52241839
H       -0.62124924      -0.74817473       1.56264536
14
Frame=6 idx=010151 GeodesicLength=0.43228623252534715 rxn_smarts="[O:1]([C@@:2]1([H:9])[C@@:3]2([H:10])[C@@:4]3([H:11])[C:5]([H:12])([H:13])[C@:6]1([H:14])[N:7]23)[H:8]>>[O:1]([C@@:2]1([H:9])[C@@:3]2([H:10])[C@@:4]([H:11])([C:5]([H:12])([H:13])[C:6]1)[N:7]2[H:14])[H:8]"
O        1.88976321      -0.36005444      -0.94234633
C        1.17606095      -0.29432413       0.25447252
C        0.45119014       0.99717043       0.49081290
C       -0.92347755       0.85742031      -0.05840817
C       -1.08244397      -0.51169252      -0.65608292
C       -0.11200191      -1.12306489       0.35270091
N       -0.64913317       0.51264570       1.35467582
H        1.53973349      -0.90741270      -1.64140136
H        1.86785669      -0.53583853       1.06413922
H        0.89631198       1.96195550       0.70730469
H       -1.53678591       1.72707030      -0.26588720
H       -0.81090254      -0.64334579      -1.70531123
H       -2.08650527      -0.91737449      -0.52114377
H       -0.61966615      -0.76315474       1.56647491
14
Frame=7 idx=010151 GeodesicLength=0.5033813656422564 rxn_smarts="[O:1]([C@@:2]1([H:9])[C@@:3]2([H:10])[C@@:4]3([H:11])[C:5]([H:12])([H:13])[C@:6]1([H:14])[N:7]23)[H:8]>>[O:1]([C@@:2]1([H:9])[C@@:3]2([H:10])[C@@:4]([H:11])([C:5]([H:12])([H:13])[C:6]1)[N:7]2[H:14])[H:8]"
O        1.86667080      -0.33388133      -0.96697531
C        1.17414780      -0.28339919       0.24393576
C        0.44496301       1.00390423       0.49467323
C       -0.93066369       0.86417980      -0.05035204
C       -1.08635338      -0.50128020      -0.66010552
C       -0.10752705      -1.11767566       0.33445995
N       -0.64999366       0.50791491       1.35818154
H        1.60224195      -0.99425279      -1.60332620
H        1.87273729      -0.52929939       1.04644455
H        0.89049472       1.96724171       0.71542004
H       -1.54749234       1.73257646      -0.25110391
H       -0.82425130      -0.62393908      -1.71270086
H       -2.08699907      -0.91399448      -0.51895513
H       -0.61797509      -0.77809499       1.57040389
14
Frame=8 idx=010151 GeodesicLength=0.573077036961305 rxn_smarts="[O:1]([C@@:2]1([H:9])[C@@:3]2([H:10])[C@@:4]3([H:11])[C:5]([H:12])([H:13])[C@:6]1([H:14])[N:7]23)[H:8]>>[O:1]([C@@:2]1([H:9])[C@@:3]2([H:10])[C@@:4]([H:11])([C:5]([H:12])([H:13])[C:6]1)[N:7]2[H:14])[H:8]"
O        1.84104405      -0.31621035      -0.99248462
C        1.17180915      -0.27414370       0.23303966
C        0.43942358       1.00955235       0.49686387
C       -0.93764545       0.87046833      -0.04282071
C       -1.09148069      -0.49150352      -0.66360990
C       -0.10418160      -1.11278196       0.31640809
N       -0.64989492       0.50362817       1.36107757
H        1.66992726      -1.06470598      -1.55983151
H        1.87707034      -0.52399527       1.02848659
H        0.88646203       1.97120640       0.72040415
H       -1.55751627       1.73780222      -0.23706651
H       -0.83980017      -0.60615741      -1.71951589
H       -2.08877692      -0.91053408      -0.51551901
H       -0.61644039      -0.79262522       1.57456823
14
Frame=9 idx=010151 GeodesicLength=0.6432614216022867 rxn_smarts="[O:1]([C@@:2]1([H:9])[C@@:3]2([H:10])[C@@:4]3([H:11])[C:5]([H:12])([H:13])[C@:6]1([H:14])[N:7]23)[H:8]>>[O:1]([C@@:2]1([H:9])[C@@:3]2([H:10])[C@@:4]([H:11])([C:5]([H:12])([H:13])[C:6]1)[N:7]2[H:14])[H:8]"
O        1.81262178      -0.30569240      -1.01938273
C        1.16898650      -0.26632209       0.22144783
C        0.43443607       1.01431777       0.49752002
C       -0.94461859       0.87651904      -0.03553387
C       -1.09805652      -0.48206302      -0.66669322
C       -0.10200359      -1.10835682       0.29807467
N       -0.64887951       0.49957001       1.36353898
H        1.74478078      -1.12213482      -1.51027784
H        1.88085956      -0.51991973       1.00982544
H        0.88409859       1.97408201       0.72255250
H       -1.56714585       1.74307335      -0.22303409
H       -0.85802143      -0.58916958      -1.72599231
H       -2.09205436      -0.90681473      -0.51080571
H       -0.61500342      -0.80708900       1.57876033
14
Frame=10 idx=010151 GeodesicLength=0.7135181929622643 rxn_smarts="[O:1]([C@@:2]1([H:9])[C@@:3]2([H:10])[C@@:4]3([H:11])[C:5]([H:12])([H:13])[C@:6]1([H:14])[N:7]23)[H:8]>>[O:1]([C@@:2]1([H:9])[C@@:3]2([H:10])[C@@:4]([H:11])([C:5]([H:12])([H:13])[C:6]1)[N:7]2[H:14])[H:8]"
O        1.78236140      -0.30252334      -1.04615484
C        1.16558326      -0.26060922       0.20977688
C        0.43017126       1.01783355       0.49665756
C       -0.95125080       0.88221274      -0.02878395
C       -1.10609872      -0.47321020      -0.66906215
C       -0.10120333      -1.10465622       0.27987986
N       -0.64706940       0.49593270       1.36539600
H        1.82576222      -1.16373496      -1.45777703
H        1.88355457      -0.51770351       0.99152352
H        0.88369043       1.97550720       0.72124596
H       -1.57566284       1.74842306      -0.20983725
H       -0.87889155      -0.57364616      -1.73168180
H       -2.09695422      -0.90263934      -0.50440367
H       -0.61399227      -0.82118628       1.58322092
14
Frame=11 idx=010151 GeodesicLength=0.7844008556483246 rxn_smarts="[O:1]([C@@:2]1([H:9])[C@@:3]2([H:10])[C@@:4]3([H:11])[C:5]([H:12])([H:13])[C@:6]1([H:14])[N:7]23)[H:8]>>[O:1]([C@@:2]1([H:9])[C@@:3]2([H:10])[C@@:4]([H:11])([C:5]([H:12])([H:13])[C:6]1)[N:7]2[H:14])[H:8]"
O        1.75064651      -0.30686682      -1.07278110
C        1.16167136      -0.25702245       0.19797112
C        0.42672978       1.02019214       0.49418639
C       -0.95746013       0.88761225      -0.02258828
C       -1.11553312      -0.46497402      -0.67082314
C       -0.10182187      -1.10175689       0.26180865
N       -0.64441148       0.49277401       1.36671033
H        1.91207095      -1.18961784      -1.40257394
H        1.88510760      -0.51732055       0.97370642
H        0.88532398       1.97551817       0.71699447
H       -1.58297890       1.75395641      -0.19742442
H       -0.90233969      -0.55941412      -1.73676849
H       -2.10340277      -0.89815740      -0.49645181
H       -0.61360220      -0.83492288       1.58803379
14
Frame=12 idx=010151 GeodesicLength=0.8546119704405553 rxn_smarts="[O:1]([C@@:2]1([H:9])[C@@:3]2([H:10])[C@@:4]3([H:11])[C:5]([H:12])([H:13])[C@:6]1([H:14])[N:7]23)[H:8]>>[O:1]([C@@:2]1([H:9])[C@@:3]2([H:10])[C@@:4]([H:11])([C:5]([H:12])([H:13])[C:6]1)[N:7]2[H:14])[H:8]"
O        1.71942313      -0.31901184      -1.09816202
C        1.15761062      -0.25534501       0.18629874
C        0.42423842       1.02149758       0.49009433
C       -0.96296522       0.89266253      -0.01718546
C       -1.12564877      -0.45737382      -0.67221507
C       -0.10346568      -1.09953386       0.24406903
N       -0.64085185       0.49013896       1.36729960
H        1.99838950      -1.19994814      -1.34619941
H        1.88546308      -0.51845264       0.95713884
H        0.88880971       1.97417686       0.71022871
H       -1.58945439       1.75922379      -0.18559093
H       -0.92717278      -0.54631638      -1.74133154
H       -2.11064165      -0.89356371      -0.48767572
H       -0.61373411      -0.84815433       1.59323091
14
Frame=13 idx=010151 GeodesicLength=0.9247159006090537 rxn_smarts="[O:1]([C@@:2]1([H:9])[C@@:3]2([H:10])[C@@:4]3([H:11])[C:5]([H:12])([H:13])[C@:6]1([H:14])[N:7]23)[H:8]>>[O:1]([C@@:2]1([H:9])[C@@:3]2([H:10])[C@@:4]([H:11])([C:5]([H:12])([H:13])[C:6]1)[N:7]2[H:14])[H:8]"
O        1.68835374      -0.33812159      -1.12135090
C        1.15315846      -0.25641116       0.17554073
C        0.42280831       1.02136214       0.48481747
C       -0.96746174       0.89731385      -0.01279690
C       -1.13652805      -0.45074599      -0.67286720
C       -0.10657482      -1.09838579       0.22741148
N       -0.63687162       0.48832408       1.36725238
H        2.08538530      -1.19249051      -1.29233280
H        1.88433571      -0.52211651       0.94259571
H        0.89450803       1.97112430       0.70072951
H       -1.59375609       1.76467479      -0.17593126
H       -0.95320182      -0.53533536      -1.74490238
H       -2.11896614      -0.88869276      -0.47761140
H       -0.61518928      -0.86049950       1.59944555
14
Frame=14 idx=010151 GeodesicLength=0.9938681272112987 rxn_smarts="[O:1]([C@@:2]1([H:9])[C@@:3]2([H:10])[C@@:4]3([H:11])[C:5]([H:12])([H:13])[C@:6]1([H:14])[N:7]23)[H:8]>>[O:1]([C@@:2]1([H:9])[C@@:3]2([H:10])[C@@:4]([H:11])([C:5]([H:12])([H:13])[C:6]1)[N:7]2[H:14])[H:8]"
O        1.65854243      -0.36349062      -1.14145196
C        1.14854424      -0.26013070       0.16616951
C        0.42250055       1.01983826       0.47864520
C       -0.97073183       0.90151550      -0.00957891
C       -1.14760089      -0.44517924      -0.67291006
C       -0.11091772      -1.09828229       0.21221890
N       -0.63269036       0.48741199       1.36657533
H        2.16934675      -1.16786236      -1.24323240
H        1.88186087      -0.52825628       0.93064833
H        0.90226709       1.96639365       0.68913127
H       -1.59571542       1.77016244      -0.16894735
H       -0.97936830      -0.52664145      -1.74751721
H       -2.12784604      -0.88370536      -0.46667965
H       -0.61819136      -0.87177354       1.60692901
14
Frame=15 idx=010151 GeodesicLength=1.062946922131687 rxn_smarts="[O:1]([C@@:2]1([H:9])[C@@:3]2([H:10])[C@@:4]3([H:11])[C:5]([H:12])([H:13])[C@:6]1([H:14])[N:7]23)[H:8]>>[O:1]([C@@:2]1([H:9])[C@@:3]2([H:10])[C@@:4]([H:11])([C:5]([H:12])([H:13])[C:6]1)[N:7]2[H:14])[H:8]"
O        1.62962359      -0.39573839      -1.15861466
C        1.14365919      -0.26663921       0.15810139
C        0.42333379       1.01685734       0.47163398
C       -0.97269418       0.90538552      -0.00752400
C       -1.15877159      -0.44053444      -0.67245561
C       -0.11661799      -1.09930961       0.19854701
N       -0.62827567       0.48742753       1.36532819
H        2.25076685      -1.12545999      -1.19857874
H        1.87795638      -0.53725378       0.92110620
H        0.91221436       1.95988082       0.67517442
H       -1.59548779       1.77577256      -0.16409776
H       -1.00549654      -0.52018325      -1.74930157
H       -2.13725076      -0.87827046      -0.45509250
H       -0.62295963      -0.88193465       1.61577366
14
Frame=16 idx=010151 GeodesicLength=1.1317591683253294 rxn_smarts="[O:1]([C@@:2]1([H:9])[C@@:3]2([H:10])[C@@:4]3([H:11])[C:5]([H:12])([H:13])[C@:6]1([H:14])[N:7]23)[H:8]>>[O:1]([C@@:2]1([H:9])[C@@:3]2([H:10])[C@@:4]([H:11])([C:5]([H:12])([H:13])[C:6]1)[N:7]2[H:14])[H:8]"
O        1.60241887      -0.43524987      -1.17233137
C        1.13853647      -0.27593680       0.15142689
C        0.42541901       1.01237832       0.46373712
C       -0.97325333       0.90885311      -0.00672264
C       -1.16982796      -0.43680695      -0.67164509
C       -0.12365300      -1.10148556       0.18653505
N       -0.62356572       0.48835110       1.36345690
H        2.32722516      -1.06468734      -1.15880295
H        1.87275019      -0.54911392       0.91400443
H        0.92449667       1.95136633       0.65921799
H       -1.59302515       1.78136906      -0.16145055
H       -1.03099495      -0.51579034      -1.75035753
H       -2.14703747      -0.87239162      -0.44319781
H       -0.62948878      -0.89085552       1.62612956
