15
Frame=0 idx=011742 GeodesicLength=0.0 rxn_smarts="[C:1]([C@:2]12[C:3]([H:11])([H:12])[O:4][C@@:5]1([H:13])[C@:6]2([O:7][H:15])[H:14])([H:8])([H:9])[H:10]>>[C:1](/[C:2]([C:3]([O:4][H:15])([H:11])[H:12])=[C:5](/[C:6](=[O:7])[H:14])[H:13])([H:8])([H:9])[H:10]"
C       -1.34789099       1.38439913      -0.12570870
C       -0.32578769       0.33210946       0.10230578
C       -0.27776622      -0.72645449       1.13585815
O        1.15677799      -0.84427931       1.22435513
C        1.05599229       0.38575569      -0.18673545
C        1.05749865      -0.65860555      -1.18278030
O        1.10665194      -1.91505188      -0.88215353
H       -0.89702328       2.26556647      -0.58881881
H       -2.15870426       1.05413803      -0.78009732
H       -1.80418215       1.68710961       0.82339664
H       -0.70893193      -1.70940943       0.88780516
H       -0.74482487      -0.38893566       2.07063771
H        1.57362527       1.32460556      -0.42450624
H        1.04459162      -0.39119798      -2.23503966
H        1.26997359      -1.79974970       0.16148149
15
Frame=1 idx=011742 GeodesicLength=0.0689172555442565 rxn_smarts="[C:1]([C@:2]12[C:3]([H:11])([H:12])[O:4][C@@:5]1([H:13])[C@:6]2([O:7][H:15])[H:14])([H:8])([H:9])[H:10]>>[C:1](/[C:2]([C:3]([O:4][H:15])([H:11])[H:12])=[C:5](/[C:6](=[O:7])[H:14])[H:13])([H:8])([H:9])[H:10]"
C       -1.34615320       1.38037569      -0.12589245
C       -0.32210928       0.32910451       0.09788415
C       -0.26750381      -0.71644757       1.14733125
O        1.16624697      -0.84115944       1.22559898
C        1.05843814       0.38437460      -0.19861270
C        1.03131002      -0.66608300      -1.19089634
O        1.09993766      -1.92047563      -0.88276947
H       -0.88603828       2.30294387      -0.48831951
H       -2.09928049       1.08316137      -0.86002736
H       -1.87930818       1.61425183       0.80202158
H       -0.70770972      -1.69765775       0.91010536
H       -0.72170008      -0.36469846       2.08256538
H        1.57695370       1.31864816      -0.44764907
H        1.02249000      -0.40069267      -2.24409048
H        1.27442656      -1.80564550       0.17275068
15
Frame=2 idx=011742 GeodesicLength=0.13771655801579558 rxn_smarts="[C:1]([C@:2]12[C:3]([H:11])([H:12])[O:4][C@@:5]1([H:13])[C@:6]2([O:7][H:15])[H:14])([H:8])([H:9])[H:10]>>[C:1](/[C:2]([C:3]([O:4][H:15])([H:11])[H:12])=[C:5](/[C:6](=[O:7])[H:14])[H:13])([H:8])([H:9])[H:10]"
C       -1.34455860       1.37675682      -0.12556342
C       -0.31952330       0.32498721       0.09193772
C       -0.25768070      -0.70637085       1.15803988
O        1.17526454      -0.83671824       1.22695974
C        1.05990840       0.38293544      -0.21152749
C        1.00566220      -0.67425311      -1.19870110
O        1.09476610      -1.92609894      -0.88257426
H       -0.88090074       2.33232314      -0.38272774
H       -2.03601203       1.12200410      -0.93257343
H       -1.95037793       1.54037421       0.77198618
H       -0.70592006      -1.68624516       0.93219687
H       -0.69988794      -0.34003004       2.09281567
H        1.57820335       1.31299916      -0.47230247
H        1.00117982      -0.41172648      -2.25308477
H        1.27987689      -1.81093726       0.18511862
15
Frame=3 idx=011742 GeodesicLength=0.20622773716695014 rxn_smarts="[C:1]([C@:2]12[C:3]([H:11])([H:12])[O:4][C@@:5]1([H:13])[C@:6]2([O:7][H:15])[H:14])([H:8])([H:9])[H:10]>>[C:1](/[C:2]([C:3]([O:4][H:15])([H:11])[H:12])=[C:5](/[C:6](=[O:7])[H:14])[H:13])([H:8])([H:9])[H:10]"
C       -1.34308776       1.37352156      -0.12473494
C       -0.31798795       0.31978954       0.08450022
C       -0.24846848      -0.69627719       1.16783024
O        1.18367644      -0.83107616       1.22845521
C        1.06048623       0.38145153      -0.22525434
C        0.98079311      -0.68301284      -1.20617037
O        1.09128763      -1.93179282      -0.88170318
H       -0.88155458       2.35270389      -0.27458200
H       -1.97047245       1.16950796      -0.99583329
H       -2.01588170       1.46744728       0.73397532
H       -0.70371832      -1.67518239       0.95371269
H       -0.67976031      -0.31510127       2.10120503
H        1.57751742       1.30768158      -0.49797548
H        0.98085234      -0.42406762      -2.26192972
H        1.28631838      -1.81559306       0.19850461
15
Frame=4 idx=011742 GeodesicLength=0.2744189968192212 rxn_smarts="[C:1]([C@:2]12[C:3]([H:11])([H:12])[O:4][C@@:5]1([H:13])[C@:6]2([O:7][H:15])[H:14])([H:8])([H:9])[H:10]>>[C:1](/[C:2]([C:3]([O:4][H:15])([H:11])[H:12])=[C:5](/[C:6](=[O:7])[H:14])[H:13])([H:8])([H:9])[H:10]"
C       -1.34168267       1.37055266      -0.12355334
C       -0.31731906       0.31368196       0.07581042
C       -0.24002692      -0.68635651       1.17662279
O        1.19128775      -0.82461315       1.23017252
C        1.06034705       0.38000094      -0.23938146
C        0.95688700      -0.69201162      -1.21325265
O        1.08940947      -1.93728066      -0.88040474
H       -0.88763357       2.36365142      -0.16754619
H       -1.90460973       1.22320941      -1.04831702
H       -2.07415611       1.39797918       0.68953532
H       -0.70135991      -1.66455779       0.97423038
H       -0.66158213      -0.29037612       2.10771081
H        1.57523603       1.30280399      -0.52388767
H        0.96165907      -0.43701645      -2.27049124
H        1.29354372      -1.81966725       0.21275208
15
Frame=5 idx=011742 GeodesicLength=0.34253724753712883 rxn_smarts="[C:1]([C@:2]12[C:3]([H:11])([H:12])[O:4][C@@:5]1([H:13])[C@:6]2([O:7][H:15])[H:14])([H:8])([H:9])[H:10]>>[C:1](/[C:2]([C:3]([O:4][H:15])([H:11])[H:12])=[C:5](/[C:6](=[O:7])[H:14])[H:13])([H:8])([H:9])[H:10]"
C       -1.34030630       1.36778377      -0.12210476
C       -0.31729919       0.30690386       0.06618578
C       -0.23232802      -0.67657598       1.18453206
O        1.19817205      -0.81751545       1.23212758
C        1.05971504       0.37858990      -0.25373643
C        0.93391978      -0.70113685      -1.22000687
O        1.08890077      -1.94247325      -0.87888804
H       -0.89857306       2.36570542      -0.06309998
H       -1.83911869       1.28144134      -1.09023198
H       -2.12537805       1.33271821       0.63975368
H       -0.69901667      -1.65425046       0.99372217
H       -0.64522443      -0.26593535       2.11260667
H        1.57181736       1.29829166      -0.54976348
H        0.94330943      -0.45032921      -2.27880935
H        1.30140996      -1.82321760       0.22771296
15
Frame=6 idx=011742 GeodesicLength=0.4102349694152511 rxn_smarts="[C:1]([C@:2]12[C:3]([H:11])([H:12])[O:4][C@@:5]1([H:13])[C@:6]2([O:7][H:15])[H:14])([H:8])([H:9])[H:10]>>[C:1](/[C:2]([C:3]([O:4][H:15])([H:11])[H:12])=[C:5](/[C:6](=[O:7])[H:14])[H:13])([H:8])([H:9])[H:10]"
C       -1.33889023       1.36517346      -0.12047880
C       -0.31770386       0.29969732       0.05594589
C       -0.22521301      -0.66686028       1.19152379
O        1.20439457      -0.81001235       1.23413902
C        1.05866437       0.37712799      -0.26813911
C        0.91176160      -0.71028764      -1.22628812
O        1.08951379      -1.94724676      -0.87718889
H       -0.91392460       2.35958465       0.03774988
H       -1.77431424       1.34275292      -1.12200457
H       -2.16987904       1.27208803       0.58545824
H       -0.69661418      -1.64400342       1.01208166
H       -0.63036664      -0.24180845       2.11587460
H        1.56742918       1.29388211      -0.57533477
H        0.92535138      -0.46379398      -2.28655933
H        1.30979093      -1.82629362       0.24322050
15
Frame=7 idx=011742 GeodesicLength=0.47808091864428937 rxn_smarts="[C:1]([C@:2]12[C:3]([H:11])([H:12])[O:4][C@@:5]1([H:13])[C@:6]2([O:7][H:15])[H:14])([H:8])([H:9])[H:10]>>[C:1](/[C:2]([C:3]([O:4][H:15])([H:11])[H:12])=[C:5](/[C:6](=[O:7])[H:14])[H:13])([H:8])([H:9])[H:10]"
C       -1.33741642       1.36261152      -0.11881423
C       -0.31831039       0.29229923       0.04543972
C       -0.21873379      -0.65737108       1.19785247
O        1.20998354      -0.80243016       1.23641253
C        1.05750160       0.37574969      -0.28232724
C        0.89042156      -0.71916513      -1.23225364
O        1.09090999      -1.95147693      -0.87567229
H       -0.93301205       2.34631489       0.13285928
H       -1.71126178       1.40484794      -1.14412050
H       -2.20760319       1.21701805       0.52831370
H       -0.69450136      -1.63395502       1.02931424
H       -0.61693173      -0.21833291       2.11805274
H        1.56269745       1.28976230      -0.60018122
H        0.90783452      -0.47681761      -2.29399513
H        1.31842207      -1.82905478       0.25911957
15
Frame=8 idx=011742 GeodesicLength=0.5459243060543054 rxn_smarts="[C:1]([C@:2]12[C:3]([H:11])([H:12])[O:4][C@@:5]1([H:13])[C@:6]2([O:7][H:15])[H:14])([H:8])([H:9])[H:10]>>[C:1](/[C:2]([C:3]([O:4][H:15])([H:11])[H:12])=[C:5](/[C:6](=[O:7])[H:14])[H:13])([H:8])([H:9])[H:10]"
C       -1.33586169       1.36009796      -0.11709937
C       -0.31897868       0.28487037       0.03489182
C       -0.21275334      -0.64798444       1.20359066
O        1.21505432      -0.79480383       1.23880822
C        1.05630064       0.37439052      -0.29629118
C        0.86977529      -0.72781709      -1.23789294
O        1.09291764      -1.95520123      -0.87440031
H       -0.95548346       2.32687576       0.22243173
H       -1.64977908       1.46702715      -1.15749994
H       -2.23941160       1.16710440       0.46875474
H       -0.69262857      -1.62390923       1.04551462
H       -0.60462610      -0.19536229       2.11929415
H        1.55778810       1.28574298      -0.62434129
H        0.89043350      -0.48948611      -2.30104082
H        1.32725302      -1.83154492       0.27527990
15
Frame=9 idx=011742 GeodesicLength=0.6139887304634483 rxn_smarts="[C:1]([C@:2]12[C:3]([H:11])([H:12])[O:4][C@@:5]1([H:13])[C@:6]2([O:7][H:15])[H:14])([H:8])([H:9])[H:10]>>[C:1](/[C:2]([C:3]([O:4][H:15])([H:11])[H:12])=[C:5](/[C:6](=[O:7])[H:14])[H:13])([H:8])([H:9])[H:10]"
C       -1.33420174       1.35761031      -0.11540409
C       -0.31960151       0.27752253       0.02445475
C       -0.20711498      -0.63869149       1.20888441
O        1.21975939      -0.78721657       1.24133114
C        1.05511858       0.37304589      -0.31003548
C        0.84964066      -0.73620880      -1.24321623
O        1.09528197      -1.95842313      -0.87337621
H       -0.98113586       2.30205217       0.30658280
H       -1.58959002       1.52886081      -1.16300185
H       -2.26594404       1.12196120       0.40699529
H       -0.69095341      -1.61382285       1.06087571
H       -0.59309838      -0.17290908       2.11983596
H        1.55283047       1.28177259      -0.64790661
H        0.87279569      -0.50172879      -2.30772430
H        1.33621318      -1.83382478       0.29170471
15
Frame=10 idx=011742 GeodesicLength=0.6822726747914187 rxn_smarts="[C:1]([C@:2]12[C:3]([H:11])([H:12])[O:4][C@@:5]1([H:13])[C@:6]2([O:7][H:15])[H:14])([H:8])([H:9])[H:10]>>[C:1](/[C:2]([C:3]([O:4][H:15])([H:11])[H:12])=[C:5](/[C:6](=[O:7])[H:14])[H:13])([H:8])([H:9])[H:10]"
C       -1.33244531       1.35513430      -0.11371238
C       -0.32011030       0.27033001       0.01424324
C       -0.20170525      -0.62941053       1.21381766
O        1.22423615      -0.77967646       1.24391064
C        1.05401521       0.37165596      -0.32359557
C        0.82989864      -0.74436971      -1.24822822
O        1.09784398      -1.96115473      -0.87261787
H       -1.00989825       2.27241369       0.38558848
H       -1.53047393       1.59011954      -1.16116548
H       -2.28774746       1.08119538       0.34307848
H       -0.68945028      -1.60355405       1.07554055
H       -0.58210151      -0.15086960       2.11982069
H        1.54794661       1.27769862      -0.67098740
H        0.85470388      -0.51361199      -2.31403890
H        1.34528782      -1.83590042       0.30834609
15
Frame=11 idx=011742 GeodesicLength=0.7509019203441569 rxn_smarts="[C:1]([C@:2]12[C:3]([H:11])([H:12])[O:4][C@@:5]1([H:13])[C@:6]2([O:7][H:15])[H:14])([H:8])([H:9])[H:10]>>[C:1](/[C:2]([C:3]([O:4][H:15])([H:11])[H:12])=[C:5](/[C:6](=[O:7])[H:14])[H:13])([H:8])([H:9])[H:10]"
C       -1.33056193       1.35268738      -0.11204923
C       -0.32044974       0.26335284       0.00433697
C       -0.19640818      -0.62013522       1.21848715
O        1.22854071      -0.77218026       1.24652879
C        1.05295903       0.37025436      -0.33700997
C        0.81043024      -0.75234101      -1.25294154
O        1.10048177      -1.96350645      -0.87212748
H       -1.04177969       2.23844641       0.45962929
H       -1.47217191       1.65062610      -1.15239276
H       -2.30511737       1.04460636       0.27698930
H       -0.68800840      -1.59315031       1.08966162
H       -0.57141305      -0.12919582       2.11939929
H        1.54308568       1.27357711      -0.69370677
H        0.83596248      -0.52519404      -2.32000889
H        1.35445036      -1.83784743       0.32520424
15
Frame=12 idx=011742 GeodesicLength=0.8199355853225695 rxn_smarts="[C:1]([C@:2]12[C:3]([H:11])([H:12])[O:4][C@@:5]1([H:13])[C@:6]2([O:7][H:15])[H:14])([H:8])([H:9])[H:10]>>[C:1](/[C:2]([C:3]([O:4][H:15])([H:11])[H:12])=[C:5](/[C:6](=[O:7])[H:14])[H:13])([H:8])([H:9])[H:10]"
C       -1.32859634       1.35022984      -0.11040827
C       -0.32060475       0.25660756      -0.00520172
C       -0.19121675      -0.61089591       1.22298377
O        1.23276598      -0.76479865       1.24922950
C        1.05205034       0.36882332      -0.35025324
C        0.79119954      -0.76005710      -1.25741139
O        1.10308446      -1.96542492      -0.87199439
H       -1.07649398       2.20073387       0.52827048
H       -1.41505925       1.70972709      -1.13704872
H       -2.31822223       1.01226310       0.20929733
H       -0.68673888      -1.58259579       1.10329764
H       -0.56094901      -0.10794611       2.11874593
H        1.53844959       1.26935955      -0.71603786
H        0.81665271      -0.53634998      -2.32572626
H        1.36367856      -1.83967588       0.34225721
15
Frame=13 idx=011742 GeodesicLength=0.8893786675201798 rxn_smarts="[C:1]([C@:2]12[C:3]([H:11])([H:12])[O:4][C@@:5]1([H:13])[C@:6]2([O:7][H:15])[H:14])([H:8])([H:9])[H:10]>>[C:1](/[C:2]([C:3]([O:4][H:15])([H:11])[H:12])=[C:5](/[C:6](=[O:7])[H:14])[H:13])([H:8])([H:9])[H:10]"
C       -1.32653473       1.34778350      -0.10877330
C       -0.32056200       0.25010765      -0.01434591
C       -0.18602659      -0.60163650       1.22735946
O        1.23696709      -0.75745945       1.25194763
C        1.05122751       0.36735602      -0.36341071
C        0.77210768      -0.76761537      -1.26163650
O        1.10559286      -1.96702704      -0.87219021
H       -1.11420261       2.15948115       0.59189439
H       -1.35881188       1.76752970      -1.11526829
H       -2.32725670       0.98396925       0.13975021
H       -0.68550727      -1.57187383       1.11659318
H       -0.55053600      -0.08699108       2.11792469
H        1.53391576       1.26503473      -0.73816921
H        0.79662835      -0.54725089      -2.33118293
H        1.37299854      -1.84140782       0.35950750
15
Frame=14 idx=011742 GeodesicLength=0.9592400565619087 rxn_smarts="[C:1]([C@:2]12[C:3]([H:11])([H:12])[O:4][C@@:5]1([H:13])[C@:6]2([O:7][H:15])[H:14])([H:8])([H:9])[H:10]>>[C:1](/[C:2]([C:3]([O:4][H:15])([H:11])[H:12])=[C:5](/[C:6](=[O:7])[H:14])[H:13])([H:8])([H:9])[H:10]"
C       -1.32440283       1.34532764      -0.10715247
C       -0.32033653       0.24383498      -0.02308732
C       -0.18079954      -0.59238008       1.23166919
O        1.24121154      -0.75019540       1.25469767
C        1.05049882       0.36584664      -0.37649018
C        0.75310319      -0.77498955      -1.26563778
O        1.10791809      -1.96830988      -0.87273493
H       -1.15472416       2.11505653       0.65024509
H       -1.30364579       1.82363065      -1.08726684
H       -2.33228634       0.95981125       0.06868616
H       -0.68431820      -1.56099797       1.12962119
H       -0.54007402      -0.06634273       2.11701392
H        1.52950322       1.26060038      -0.76012181
H        0.77594401      -0.55783402      -2.33641241
H        1.38240854      -1.84305842       0.37697053
15
Frame=15 idx=011742 GeodesicLength=1.029445184623835 rxn_smarts="[C:1]([C@:2]12[C:3]([H:11])([H:12])[O:4][C@@:5]1([H:13])[C@:6]2([O:7][H:15])[H:14])([H:8])([H:9])[H:10]>>[C:1](/[C:2]([C:3]([O:4][H:15])([H:11])[H:12])=[C:5](/[C:6](=[O:7])[H:14])[H:13])([H:8])([H:9])[H:10]"
C       -1.32220911       1.34286489      -0.10552926
C       -0.31996200       0.23775221      -0.03143994
C       -0.17551308      -0.58312644       1.23593838
O        1.24551588      -0.74298048       1.25745879
C        1.04982098       0.36429661      -0.38952442
C        0.73416119      -0.78220822      -1.26943630
O        1.11003648      -1.96932104      -0.87364298
H       -1.19788652       2.06775196       0.70321479
H       -1.24970758       1.87769638      -1.05321252
H       -2.33335815       0.93990882      -0.00357633
H       -0.68313170      -1.54999291       1.14243888
H       -0.52951831      -0.04595376       2.11604177
H        1.52513319       1.25607783      -0.78194726
H        0.75469176      -0.56813273      -2.34143324
H        1.39192697      -1.84463313       0.39464965
15
Frame=16 idx=011742 GeodesicLength=1.0999473125313868 rxn_smarts="[C:1]([C@:2]12[C:3]([H:11])([H:12])[O:4][C@@:5]1([H:13])[C@:6]2([O:7][H:15])[H:14])([H:8])([H:9])[H:10]>>[C:1](/[C:2]([C:3]([O:4][H:15])([H:11])[H:12])=[C:5](/[C:6](=[O:7])[H:14])[H:13])([H:8])([H:9])[H:10]"
C       -1.31996428       1.34039520      -0.10388678
C       -0.31948833       0.23180435      -0.03944167
C       -0.17014545      -0.57386792       1.24018867
O        1.24991005      -0.73576915       1.26021618
C        1.04914556       0.36270103      -0.40256362
C        0.71525158      -0.78930764      -1.27305366
O        1.11192673      -1.97009981      -0.87490568
H       -1.24352746       2.01775751       0.75074454
H       -1.19709375       1.92948172      -1.01321286
H       -2.33051833       0.92437274      -0.07679481
H       -0.68190862      -1.53887291       1.15511684
H       -0.51882932      -0.02576359       2.11501588
H        1.52071269       1.25147999      -0.80372563
H        0.73294076      -0.57819798      -2.34627184
H        1.40158817      -1.84611356       0.41257444
