9
Frame=0 idx=006314 GeodesicLength=0.0 rxn_smarts="[O:1]=[c:2]1[n:3]([H:7])[c:4]([H:8])[c:5]([H:9])[o:6]1>>[O:1]=[C:2]=[N:3][C:4]([C:5](=[O:6])[H:9])([H:7])[H:8]"
O        2.27671952      -0.93682021       0.70289336
C        1.24847605      -0.41862675       0.41410461
N        0.87006161       0.85303239       0.16361483
C       -0.56213168       0.79082278      -0.16477772
C       -0.96939542      -0.51859255      -0.02928003
O        0.03516328      -1.28066107       0.27509747
H        0.21682186       0.79505659      -1.06938655
H       -1.16885099       1.68202351      -0.15044479
H       -1.94686425      -0.96623468      -0.14182120
9
Frame=1 idx=006314 GeodesicLength=0.0753790372746756 rxn_smarts="[O:1]=[c:2]1[n:3]([H:7])[c:4]([H:8])[c:5]([H:9])[o:6]1>>[O:1]=[C:2]=[N:3][C:4]([C:5](=[O:6])[H:9])([H:7])[H:8]"
O        2.28670135      -0.93218004       0.69434397
C        1.25358867      -0.41568078       0.42215736
N        0.86622573       0.84681803       0.15998770
C       -0.56164083       0.78722786      -0.16896711
C       -0.97368978      -0.52267519      -0.02945188
O        0.02296931      -1.28670656       0.29230861
H        0.23076434       0.80981989      -1.07949853
H       -1.17076282       1.67673377      -0.14281195
H       -1.95415598      -0.96335696      -0.14806816
9
Frame=2 idx=006314 GeodesicLength=0.150750001085121 rxn_smarts="[O:1]=[c:2]1[n:3]([H:7])[c:4]([H:8])[c:5]([H:9])[o:6]1>>[O:1]=[C:2]=[N:3][C:4]([C:5](=[O:6])[H:9])([H:7])[H:8]"
O        2.29642738      -0.92763229       0.68582916
C        1.25890718      -0.41266289       0.42985852
N        0.86242470       0.84040516       0.15599819
C       -0.56118163       0.78344511      -0.17329980
C       -0.97805509      -0.52687454      -0.02932983
O        0.01043441      -1.29261071       0.31008814
H        0.24494260       0.82544240      -1.08946835
H       -1.17258126       1.67118410      -0.13515899
H       -1.96131827      -0.96069633      -0.15451704
9
Frame=3 idx=006314 GeodesicLength=0.22610835909253352 rxn_smarts="[O:1]=[c:2]1[n:3]([H:7])[c:4]([H:8])[c:5]([H:9])[o:6]1>>[O:1]=[C:2]=[N:3][C:4]([C:5](=[O:6])[H:9])([H:7])[H:8]"
O        2.30589058      -0.92318749       0.67744397
C        1.26443369      -0.40958283       0.43716814
N        0.85865551       0.83377517       0.15162552
C       -0.56075614       0.77945908      -0.17780589
C       -0.98249222      -0.53120266      -0.02894182
O       -0.00242989      -1.29837913       0.32833429
H        0.25936748       0.84201557      -1.09926559
H       -1.17429952       1.66536017      -0.12751624
H       -1.96836949      -0.95825788      -0.16104238
9
Frame=4 idx=006314 GeodesicLength=0.3014497619453013 rxn_smarts="[O:1]=[c:2]1[n:3]([H:7])[c:4]([H:8])[c:5]([H:9])[o:6]1>>[O:1]=[C:2]=[N:3][C:4]([C:5](=[O:6])[H:9])([H:7])[H:8]"
O        2.31509588      -0.91885338       0.66925520
C        1.27016311      -0.40644628       0.44407528
N        0.85491290       0.82690976       0.14685182
C       -0.56036637       0.77525279      -0.18251897
C       -0.98700595      -0.53567009      -0.02830392
O       -0.01561176      -1.30402366       0.34694338
H        0.27405468       0.85962540      -1.10884879
H       -1.17590888       1.65924851      -0.11992886
H       -1.97533362      -0.95604305      -0.16752513
9
Frame=5 idx=006314 GeodesicLength=0.37676318040181345 rxn_smarts="[O:1]=[c:2]1[n:3]([H:7])[c:4]([H:8])[c:5]([H:9])[o:6]1>>[O:1]=[C:2]=[N:3][C:4]([C:5](=[O:6])[H:9])([H:7])[H:8]"
O        2.32406021      -0.91463685       0.66127028
C        1.27608494      -0.40325002       0.45060479
N        0.85119222       0.81978838       0.14165839
C       -0.56001477       0.77080774      -0.18746865
C       -0.99160952      -0.54027900      -0.02739654
O       -0.02910613      -1.30955042       0.36585155
H        0.28901645       0.87833711      -1.11816180
H       -1.17739639       1.65283843      -0.11245281
H       -1.98222700      -0.95405536      -0.17390521
9
Frame=6 idx=006314 GeodesicLength=0.45204915406312346 rxn_smarts="[O:1]=[c:2]1[n:3]([H:7])[c:4]([H:8])[c:5]([H:9])[o:6]1>>[O:1]=[C:2]=[N:3][C:4]([C:5](=[O:6])[H:9])([H:7])[H:8]"
O        2.33279508      -0.91053021       0.65358603
C        1.28219412      -0.40000163       0.45674968
N        0.84748822       0.81238858       0.13601840
C       -0.55970153       0.76610161      -0.19269895
C       -0.99631158      -0.54504149      -0.02623710
O       -0.04288820      -1.31499896       0.38489501
H        0.30427255       0.89824638      -1.12714909
H       -1.17875058       1.64611647      -0.10514964
H       -1.98909808      -0.95228075      -0.18001433
9
Frame=7 idx=006314 GeodesicLength=0.5274212652925483 rxn_smarts="[O:1]=[c:2]1[n:3]([H:7])[c:4]([H:8])[c:5]([H:9])[o:6]1>>[O:1]=[C:2]=[N:3][C:4]([C:5](=[O:6])[H:9])([H:7])[H:8]"
O        2.34133118      -0.90650223       0.64620798
C        1.28847649      -0.39667460       0.46258869
N        0.84380185       0.80469716       0.12992443
C       -0.55941727       0.76111603      -0.19826464
C       -1.00113687      -0.54998874      -0.02484436
O       -0.05695761      -1.32045112       0.40391852
H        0.31987842       0.91943363      -1.13573919
H       -1.17995052       1.63907322      -0.09810536
H       -1.99602567      -0.95070335      -0.18568607
9
Frame=8 idx=006314 GeodesicLength=0.602500444987665 rxn_smarts="[O:1]=[c:2]1[n:3]([H:7])[c:4]([H:8])[c:5]([H:9])[o:6]1>>[O:1]=[C:2]=[N:3][C:4]([C:5](=[O:6])[H:9])([H:7])[H:8]"
O        2.34966685      -0.90260272       0.63916915
C        1.29493118      -0.39331617       0.46803303
N        0.84011891       0.79663856       0.12328102
C       -0.55919296       0.75580855      -0.20415473
C       -1.00609043      -0.55502872      -0.02304682
O       -0.07125516      -1.32579094       0.42299677
H        0.33572539       0.94191924      -1.14382806
H       -1.18098692       1.63169204      -0.09135686
H       -2.00291687      -0.94931984      -0.19109350
9
Frame=9 idx=006314 GeodesicLength=0.6776613393024398 rxn_smarts="[O:1]=[c:2]1[n:3]([H:7])[c:4]([H:8])[c:5]([H:9])[o:6]1>>[O:1]=[C:2]=[N:3][C:4]([C:5](=[O:6])[H:9])([H:7])[H:8]"
O        2.35785346      -0.89879267       0.63237400
C        1.30155060      -0.38986625       0.47321474
N        0.83645728       0.78822628       0.11607974
C       -0.55899712       0.75017002      -0.21044519
C       -1.01121730      -0.56023952      -0.02091544
O       -0.08586716      -1.33113416       0.44210893
H        0.35191873       0.96582558      -1.15134768
H       -1.18182067       1.62397856      -0.08497351
H       -2.00987783      -0.94816784      -0.19609558
9
Frame=10 idx=006314 GeodesicLength=0.7527862785560393 rxn_smarts="[O:1]=[c:2]1[n:3]([H:7])[c:4]([H:8])[c:5]([H:9])[o:6]1>>[O:1]=[C:2]=[N:3][C:4]([C:5](=[O:6])[H:9])([H:7])[H:8]"
O        2.36589966      -0.89515110       0.62561492
C        1.30833355      -0.38632567       0.47814016
N        0.83280844       0.77941214       0.10827826
C       -0.55884225       0.74416497      -0.21717435
C       -1.01651351      -0.56560487      -0.01841319
O       -0.10084508      -1.33635180       0.46161819
H        0.36844593       0.99125244      -1.15815492
H       -1.18245186       1.61590789      -0.07900420
H       -2.01683488      -0.94730400      -0.20090489
9
Frame=11 idx=006314 GeodesicLength=0.8278804912171344 rxn_smarts="[O:1]=[c:2]1[n:3]([H:7])[c:4]([H:8])[c:5]([H:9])[o:6]1>>[O:1]=[C:2]=[N:3][C:4]([C:5](=[O:6])[H:9])([H:7])[H:8]"
O        2.37380565      -0.89173753       0.61874950
C        1.31528212      -0.38268276       0.48282257
N        0.82917598       0.77015484       0.09981880
C       -0.55872362       0.73775533      -0.22439901
C       -1.02198012      -0.57113696      -0.01555213
O       -0.11625380      -1.34135150       0.48176955
H        0.38531767       1.01833938      -1.16409811
H       -1.18286761       1.60744954      -0.07350998
H       -2.02375626      -0.94679033      -0.20560120
9
Frame=12 idx=006314 GeodesicLength=0.90294617907326 rxn_smarts="[O:1]=[c:2]1[n:3]([H:7])[c:4]([H:8])[c:5]([H:9])[o:6]1>>[O:1]=[C:2]=[N:3][C:4]([C:5](=[O:6])[H:9])([H:7])[H:8]"
O        2.38155821      -0.88863324       0.61162972
C        1.32240457      -0.37892945       0.48724487
N        0.82557121       0.76040153       0.09060744
C       -0.55863854       0.73090467      -0.23217228
C       -1.02761586      -0.57684274      -0.01232009
O       -0.13217276      -1.34599542       0.50288710
H        0.40251691       1.04723369      -1.16900811
H       -1.18305002       1.59857728      -0.06852875
H       -2.03057373      -0.94671632      -0.21033990
9
Frame=13 idx=006314 GeodesicLength=0.9779866863261231 rxn_smarts="[O:1]=[c:2]1[n:3]([H:7])[c:4]([H:8])[c:5]([H:9])[o:6]1>>[O:1]=[C:2]=[N:3][C:4]([C:5](=[O:6])[H:9])([H:7])[H:8]"
O        2.38913275      -0.88590183       0.60417873
C        1.32970647      -0.37505361       0.49139781
N        0.82200440       0.75008976       0.08054328
C       -0.55857833       0.72355940      -0.24059251
C       -1.03340511      -0.58275108      -0.00877178
O       -0.14865366      -1.35017157       0.52515163
H        0.42005022       1.07812280      -1.17267303
H       -1.18298088       1.58924205      -0.06413334
H       -2.03727585      -0.94713592      -0.21510079
9
Frame=14 idx=006314 GeodesicLength=1.0529968032677248 rxn_smarts="[O:1]=[c:2]1[n:3]([H:7])[c:4]([H:8])[c:5]([H:9])[o:6]1>>[O:1]=[C:2]=[N:3][C:4]([C:5](=[O:6])[H:9])([H:7])[H:8]"
O        2.39651014      -0.88358994       0.59645538
C        1.33720549      -0.37105157       0.49521931
N        0.81850532       0.73913268       0.06945050
C       -0.55853837       0.71567555      -0.24972126
C       -1.03935494      -0.58885707      -0.00488181
O       -0.16571455      -1.35379265       0.54860016
H        0.43785976       1.11116097      -1.17486810
H       -1.18262550       1.57942133      -0.06040066
H       -2.04384735      -0.94809930      -0.21985351
9
Frame=15 idx=006314 GeodesicLength=1.1279826233608836 rxn_smarts="[O:1]=[c:2]1[n:3]([H:7])[c:4]([H:8])[c:5]([H:9])[o:6]1>>[O:1]=[C:2]=[N:3][C:4]([C:5](=[O:6])[H:9])([H:7])[H:8]"
O        2.40365204      -0.88180618       0.58836169
C        1.34491635      -0.36691234       0.49866288
N        0.81510062       0.72743210       0.05713998
C       -0.55851208       0.70719807      -0.25966297
C       -1.04544656      -0.59518202      -0.00068004
O       -0.18343756      -1.35665111       0.57354898
H        0.45589959       1.14656676      -1.17529545
H       -1.18195028       1.56907448      -0.05739235
H       -2.05022212      -0.94971975      -0.22468272
9
Frame=16 idx=006314 GeodesicLength=1.2029415738749312 rxn_smarts="[O:1]=[c:2]1[n:3]([H:7])[c:4]([H:8])[c:5]([H:9])[o:6]1>>[O:1]=[C:2]=[N:3][C:4]([C:5](=[O:6])[H:9])([H:7])[H:8]"
O        2.41051019      -0.88062159       0.57991197
C        1.35284830      -0.36260842       0.50168857
N        0.81182163       0.71485896       0.04336226
C       -0.55848702       0.69805191      -0.27056354
C       -1.05165134      -0.60175758       0.00375937
O       -0.20186438      -1.35857002       0.60011463
H        0.47412481       1.18456633      -1.17358809
H       -1.18090600       1.55813741      -0.05519600
H       -2.05639619      -0.95205699      -0.22948917
