19
Frame=0 idx=011860 GeodesicLength=0.0 rxn_smarts="[C:1]([C:2]([C@@:3]1([H:13])[C:4]([H:14])([H:15])[C@:5]1([C:6]([H:16])([H:17])[H:18])[O:7][H:19])([H:11])[H:12])([H:8])([H:9])[H:10]>>[C:1](/[C:2](=[C:3](/[C:4]([C@@:5]([C:6]([H:11])([H:17])[H:18])([O:7][H:19])[H:16])([H:14])[H:15])[H:13])[H:12])([H:8])([H:9])[H:10]"
C        2.42164382       0.11848032       0.70798065
C        1.17944400      -0.38484696      -0.01332826
C        0.49391338       0.57237543      -0.84791290
C       -0.74377626       0.19921365      -1.53164395
C       -1.54313568       0.19750421      -0.23807975
C       -1.45984242      -0.91553315       0.69756331
O       -1.99718953       1.41205760       0.23827840
H        2.78136670      -0.61405677       1.43234972
H        2.20901798       1.04386025       1.24863582
H        3.23028747       0.32335757       0.00465494
H        0.39830919      -0.74436936       0.78908220
H        1.38179548      -1.33188488      -0.52966145
H        0.64484960       1.62897106      -0.65161740
H       -0.74621421      -0.79208516      -1.99190631
H       -1.13787416       0.93795635      -2.22511340
H       -2.50136770      -0.59350242      -0.17514159
H       -1.75079394      -0.77728490       1.73027756
H       -1.33673510      -1.91886853       0.31346370
H       -1.52369870       1.63865565       1.04211862
19
Frame=1 idx=011860 GeodesicLength=0.08827087973286511 rxn_smarts="[C:1]([C:2]([C@@:3]1([H:13])[C:4]([H:14])([H:15])[C@:5]1([C:6]([H:16])([H:17])[H:18])[O:7][H:19])([H:11])[H:12])([H:8])([H:9])[H:10]>>[C:1](/[C:2](=[C:3](/[C:4]([C@@:5]([C:6]([H:11])([H:17])[H:18])([O:7][H:19])[H:16])([H:14])[H:15])[H:13])[H:12])([H:8])([H:9])[H:10]"
C        2.42132134       0.12087201       0.71036480
C        1.18736095      -0.38834603      -0.01973587
C        0.48724889       0.56863151      -0.84004492
C       -0.74683419       0.19389084      -1.53358209
C       -1.53849709       0.20116776      -0.23708362
C       -1.46111550      -0.91360155       0.70112319
O       -1.99128901       1.41934964       0.23538724
H        2.78938517      -0.61708445       1.42510475
H        2.19624011       1.03596240       1.26326078
H        3.22998247       0.34464694       0.01265168
H        0.38427007      -0.77188792       0.78356073
H        1.40384610      -1.32366701      -0.55103227
H        0.64264390       1.62618227      -0.65316279
H       -0.74627002      -0.79948121      -1.98846467
H       -1.13743021       0.93338854      -2.22804338
H       -2.51076256      -0.58994659      -0.16697149
H       -1.75406639      -0.76971505       1.73287708
H       -1.34184320      -1.91781038       0.31711843
H       -1.51419083       1.64744828       1.03667244
19
Frame=2 idx=011860 GeodesicLength=0.17644756528016828 rxn_smarts="[C:1]([C:2]([C@@:3]1([H:13])[C:4]([H:14])([H:15])[C@:5]1([C:6]([H:16])([H:17])[H:18])[O:7][H:19])([H:11])[H:12])([H:8])([H:9])[H:10]>>[C:1](/[C:2](=[C:3](/[C:4]([C@@:5]([C:6]([H:11])([H:17])[H:18])([O:7][H:19])[H:16])([H:14])[H:15])[H:13])[H:12])([H:8])([H:9])[H:10]"
C        2.42105067       0.12327647       0.71274455
C        1.19540297      -0.39157562      -0.02621204
C        0.48067591       0.56478551      -0.83216545
C       -0.74984939       0.18853255      -1.53539560
C       -1.53382620       0.20476885      -0.23606500
C       -1.46251527      -0.91177976       0.70463345
O       -1.98531794       1.42656271       0.23253633
H        2.79744745      -0.61984014       1.41786252
H        2.18367602       1.02780928       1.27765173
H        3.22950970       0.36576933       0.02088852
H        0.36989021      -0.79938900       0.77790264
H        1.42580201      -1.31478402      -0.57218682
H        0.64057430       1.62325805      -0.65503809
H       -0.74627602      -0.80685562      -1.98494432
H       -1.13689741       0.92877845      -2.23086658
H       -2.52031136      -0.58635581      -0.15871248
H       -1.75717501      -0.76222134       1.73546895
H       -1.34724346      -1.91683474       0.32063575
H       -1.50461717       1.65609484       1.03126193
19
Frame=3 idx=011860 GeodesicLength=0.2645683588108529 rxn_smarts="[C:1]([C:2]([C@@:3]1([H:13])[C:4]([H:14])([H:15])[C@:5]1([C:6]([H:16])([H:17])[H:18])[O:7][H:19])([H:11])[H:12])([H:8])([H:9])[H:10]>>[C:1](/[C:2](=[C:3](/[C:4]([C@@:5]([C:6]([H:11])([H:17])[H:18])([O:7][H:19])[H:16])([H:14])[H:15])[H:13])[H:12])([H:8])([H:9])[H:10]"
C        2.42085508       0.12568902       0.71510434
C        1.20358094      -0.39452881      -0.03275957
C        0.47419652       0.56084626      -0.82425773
C       -0.75281278       0.18313852      -1.53708095
C       -1.52912584       0.20830311      -0.23502715
C       -1.46404926      -0.91006990       0.70808993
O       -1.97929381       1.43369022       0.22971447
H        2.80557339      -0.62233769       1.41060493
H        2.17136591       1.01940612       1.29179697
H        3.22889103       0.38671095       0.02933456
H        0.35513253      -0.82681604       0.77218514
H        1.44764919      -1.30524456      -0.59313116
H        0.63862568       1.62019837      -0.65721141
H       -0.74621367      -0.81420867      -1.98134299
H       -1.13626471       0.92412183      -2.23358384
H       -2.53001772      -0.58273980      -0.15037387
H       -1.76014893      -0.75481125       1.73804485
H       -1.35293903      -1.91594169       0.32401320
H       -1.49500452       1.66459401       1.02588028
19
Frame=4 idx=011860 GeodesicLength=0.35266699457344375 rxn_smarts="[C:1]([C:2]([C@@:3]1([H:13])[C:4]([H:14])([H:15])[C@:5]1([C:6]([H:16])([H:17])[H:18])[O:7][H:19])([H:11])[H:12])([H:8])([H:9])[H:10]>>[C:1](/[C:2](=[C:3](/[C:4]([C@@:5]([C:6]([H:11])([H:17])[H:18])([O:7][H:19])[H:16])([H:14])[H:15])[H:13])[H:12])([H:8])([H:9])[H:10]"
C        2.42076118       0.12810515       0.71742681
C        1.21190829      -0.39719883      -0.03938293
C        0.46781244       0.55682151      -0.81630216
C       -0.75571396       0.17770727      -1.53863387
C       -1.52439966       0.21176654      -0.23397345
C       -1.46573032      -0.90847376       0.71148892
O       -1.97323537       1.44072640       0.22690883
H        2.81379143      -0.62459285       1.40330412
H        2.15935245       1.01075269       1.30568841
H        3.22814926       0.40746800       0.03795838
H        0.33995908      -0.85411411       0.76649486
H        1.46937422      -1.29505752      -0.61387250
H        0.63678261       1.61700283      -0.65964820
H       -0.74606328      -0.82154219      -1.97765664
H       -1.13551830       0.91941300      -2.23619642
H       -2.53988704      -0.57910742      -0.14196855
H       -1.76302632      -0.74749149       1.74059540
H       -1.35893418      -1.91513060       0.32724849
H       -1.48538252       1.67294538       1.02052051
19
Frame=5 idx=011860 GeodesicLength=0.4407587664973833 rxn_smarts="[C:1]([C:2]([C@@:3]1([H:13])[C:4]([H:14])([H:15])[C@:5]1([C:6]([H:16])([H:17])[H:18])[O:7][H:19])([H:11])[H:12])([H:8])([H:9])[H:10]>>[C:1](/[C:2](=[C:3](/[C:4]([C@@:5]([C:6]([H:11])([H:17])[H:18])([O:7][H:19])[H:16])([H:14])[H:15])[H:13])[H:12])([H:8])([H:9])[H:10]"
C        2.42079777       0.13052197       0.71969230
C        1.22040031      -0.39957794      -0.04608806
C        0.46152486       0.55271881      -0.80827671
C       -0.75854158       0.17223750      -1.54004876
C       -1.51965190       0.21515536      -0.23290699
C       -1.46757534      -0.90699361       0.71482536
O       -1.96716143       1.44766579       0.22410744
H        2.82213337      -0.62661967       1.39593527
H        2.14767879       1.00185348       1.31931707
H        3.22730894       0.42803448       0.04672278
H        0.32433343      -0.88123357       0.76091985
H        1.49096468      -1.28423264      -0.63441557
H        0.63502941       1.61367112      -0.66231174
H       -0.74580429      -0.82885787      -1.97388033
H       -1.13464246       0.91464654      -2.23870422
H       -2.54992642      -0.57546603      -0.13351267
H       -1.76584955      -0.74027014       1.74310984
H       -1.36523624      -1.91440113       0.33033770
H       -1.47578235       1.68114755       1.01517745
19
Frame=6 idx=011860 GeodesicLength=0.5288587077395466 rxn_smarts="[C:1]([C:2]([C@@:3]1([H:13])[C:4]([H:14])([H:15])[C@:5]1([C:6]([H:16])([H:17])[H:18])[O:7][H:19])([H:11])[H:12])([H:8])([H:9])[H:10]>>[C:1](/[C:2](=[C:3](/[C:4]([C@@:5]([C:6]([H:11])([H:17])[H:18])([O:7][H:19])[H:16])([H:14])[H:15])[H:13])[H:12])([H:8])([H:9])[H:10]"
C        2.42099170       0.13293562       0.72188277
C        1.22907196      -0.40166135      -0.05288374
C        0.45533516       0.54853947      -0.80015970
C       -0.76128430       0.16672445      -1.54132015
C       -1.51488630       0.21846638      -0.23182939
C       -1.46960307      -0.90562916       0.71809709
O       -1.96108900       1.45450491       0.22129641
H        2.83063365      -0.62843400       1.38846239
H        2.13638340       0.99269944       1.33268281
H        3.22639127       0.44842068       0.05560334
H        0.30821737      -0.90813042       0.75555638
H        1.51242179      -1.27276850      -0.65478756
H        0.63335240       1.61019922      -0.66516796
H       -0.74541974      -0.83616123      -1.97000696
H       -1.13361963       0.90981415      -2.24110814
H       -2.56014564      -0.57182156      -0.12502094
H       -1.76866668      -0.73315016       1.74557855
H       -1.37185223      -1.91375081       0.33328126
H       -1.46623210       1.68920287       1.00984355
19
Frame=7 idx=011860 GeodesicLength=0.6170007370408971 rxn_smarts="[C:1]([C:2]([C@@:3]1([H:13])[C:4]([H:14])([H:15])[C@:5]1([C:6]([H:16])([H:17])[H:18])[O:7][H:19])([H:11])[H:12])([H:8])([H:9])[H:10]>>[C:1](/[C:2](=[C:3](/[C:4]([C@@:5]([C:6]([H:11])([H:17])[H:18])([O:7][H:19])[H:16])([H:14])[H:15])[H:13])[H:12])([H:8])([H:9])[H:10]"
C        2.42137734       0.13534503       0.72397653
C        1.23794898      -0.40343889      -0.05978799
C        0.44924367       0.54428930      -0.79192364
C       -0.76392847       0.16116351      -1.54244018
C       -1.51010731       0.22169646      -0.23074194
C       -1.47184071      -0.90438117       0.72130077
O       -1.95503809       1.46124000       0.21846155
H        2.83933629      -0.63005253       1.38084490
H        2.12550856       0.98328257       1.34578453
H        3.22542364       0.46863769       0.06456899
H        0.29157087      -0.93476578       0.75050783
H        1.53374013      -1.26067024      -0.67500385
H        0.63173557       1.60658546      -0.66817897
H       -0.74488740      -0.84345854      -1.96602603
H       -1.13243032       0.90490553      -2.24340782
H       -2.57055652      -0.56817701      -0.11651513
H       -1.77153506      -0.72613608       1.74799038
H       -1.37879413      -1.91317778       0.33607641
H       -1.45676702       1.69711245       1.00451366
19
Frame=8 idx=011860 GeodesicLength=0.7051912493205152 rxn_smarts="[C:1]([C:2]([C@@:3]1([H:13])[C:4]([H:14])([H:15])[C@:5]1([C:6]([H:16])([H:17])[H:18])[O:7][H:19])([H:11])[H:12])([H:8])([H:9])[H:10]>>[C:1](/[C:2](=[C:3](/[C:4]([C@@:5]([C:6]([H:11])([H:17])[H:18])([O:7][H:19])[H:16])([H:14])[H:15])[H:13])[H:12])([H:8])([H:9])[H:10]"
C        2.42198221       0.13774560       0.72595657
C        1.24705335      -0.40490456      -0.06681748
C        0.44325096       0.53996727      -0.78354343
C       -0.76646190       0.15554588      -1.54340061
C       -1.50531850       0.22484296      -0.22964416
C       -1.47431437      -0.90324682       0.72443596
O       -1.94902463       1.46786974       0.21558750
H        2.84828137      -0.63149440       1.37303839
H        2.11508631       0.97358370       1.35863046
H        3.22442647       0.48870702       0.07360330
H        0.27435428      -0.96110717       0.74587658
H        1.55493560      -1.24792312      -0.69511263
H        0.63016553       1.60282377      -0.67131286
H       -0.74419031      -0.85076067      -1.96192437
H       -1.13105491       0.89990639      -2.24560316
H       -2.58117182      -0.56453377      -0.10801377
H       -1.77451061      -0.71922599       1.75033655
H       -1.38607319      -1.91267729       0.33872724
H       -1.44741584       1.70488145       0.99917992
19
Frame=9 idx=011860 GeodesicLength=0.7934433911940331 rxn_smarts="[C:1]([C:2]([C@@:3]1([H:13])[C:4]([H:14])([H:15])[C@:5]1([C:6]([H:16])([H:17])[H:18])[O:7][H:19])([H:11])[H:12])([H:8])([H:9])[H:10]>>[C:1](/[C:2](=[C:3](/[C:4]([C@@:5]([C:6]([H:11])([H:17])[H:18])([O:7][H:19])[H:16])([H:14])[H:15])[H:13])[H:12])([H:8])([H:9])[H:10]"
C        2.42285360       0.14013328       0.72779191
C        1.25642823      -0.40604258      -0.07400688
C        0.43735258       0.53558653      -0.77497416
C       -0.76886616       0.14986558      -1.54418626
C       -1.50052787       0.22790395      -0.22853321
C       -1.47706213      -0.90222254       0.72750492
O       -1.94308314       1.47439094       0.21265339
H        2.85753263      -0.63278224       1.36498933
H        2.10516067       0.96358723       1.37121398
H        3.22343906       0.50864442       0.08267488
H        0.25652786      -0.98712394       0.74174261
H        1.57601959      -1.23454316      -0.71511873
H        0.62862059       1.59891917      -0.67451392
H       -0.74329807      -0.85807837      -1.95767718
H       -1.12946662       0.89480139      -2.24769287
H       -2.59200842      -0.56089161      -0.09954484
H       -1.77767550      -0.71242074       1.75260840
H       -1.39370929      -1.91224412       0.34123334
H       -1.43823760       1.71251680       0.99383528
19
Frame=10 idx=011860 GeodesicLength=0.8817440953285909 rxn_smarts="[C:1]([C:2]([C@@:3]1([H:13])[C:4]([H:14])([H:15])[C@:5]1([C:6]([H:16])([H:17])[H:18])[O:7][H:19])([H:11])[H:12])([H:8])([H:9])[H:10]>>[C:1](/[C:2](=[C:3](/[C:4]([C@@:5]([C:6]([H:11])([H:17])[H:18])([O:7][H:19])[H:16])([H:14])[H:15])[H:13])[H:12])([H:8])([H:9])[H:10]"
C        2.42400407       0.14251048       0.72947793
C        1.26608409      -0.40684607      -0.08136847
C        0.43155482       0.53112908      -0.76620568
C       -0.77113168       0.14410654      -1.54479214
C       -1.49573331       0.23087741      -0.22740713
C       -1.48011410      -0.90130540       0.73050672
O       -1.93720588       1.48080709       0.20965106
H        2.86711636      -0.63392366       1.35665612
H        2.09574785       0.95326642       1.38356250
H        3.22246621       0.52848859       0.09178733
H        0.23805816      -1.01282283       0.73822176
H        1.59702149      -1.22047553      -0.73511522
H        0.62709582       1.59485324      -0.67777439
H       -0.74220455      -0.86542880      -1.95327452
H       -1.12764790       0.88957066      -2.24967720
H       -2.60308479      -0.55724425      -0.09112306
H       -1.78107232      -0.70571160       1.75479938
H       -1.40172621      -1.91187388       0.34359916
H       -1.42922813       1.72002251       0.98847584
19
Frame=11 idx=011860 GeodesicLength=0.970056659810108 rxn_smarts="[C:1]([C:2]([C@@:3]1([H:13])[C:4]([H:14])([H:15])[C@:5]1([C:6]([H:16])([H:17])[H:18])[O:7][H:19])([H:11])[H:12])([H:8])([H:9])[H:10]>>[C:1](/[C:2](=[C:3](/[C:4]([C@@:5]([C:6]([H:11])([H:17])[H:18])([O:7][H:19])[H:16])([H:14])[H:15])[H:13])[H:12])([H:8])([H:9])[H:10]"
C        2.42545841       0.14487614       0.73100212
C        1.27604579      -0.40730256      -0.08892668
C        0.42585936       0.52658895      -0.75721286
C       -0.77324521       0.13825515      -1.54520776
C       -1.49093739       0.23376122      -0.22626317
C       -1.48350492      -0.90049072       0.73344320
O       -1.93139970       1.48712007       0.20656722
H        2.87707263      -0.63493030       1.34799280
H        2.08686980       0.94259691       1.39568921
H        3.22152333       0.54826826       0.10093572
H        0.21891270      -1.03820711       0.73539690
H        1.61797117      -1.20568408      -0.75516071
H        0.62557937       1.59061604      -0.68106700
H       -0.74089382      -0.87282911      -1.94869659
H       -1.12557729       0.88419334      -2.25155540
H       -2.61441789      -0.55358409      -0.08276839
H       -1.78475715      -0.69909138       1.75690457
H       -1.41015267      -1.91156071       0.34582992
H       -1.42040651       1.72740397       0.98309691
19
Frame=12 idx=011860 GeodesicLength=1.058383877595 rxn_smarts="[C:1]([C:2]([C@@:3]1([H:13])[C:4]([H:14])([H:15])[C@:5]1([C:6]([H:16])([H:17])[H:18])[O:7][H:19])([H:11])[H:12])([H:8])([H:9])[H:10]>>[C:1](/[C:2](=[C:3](/[C:4]([C@@:5]([C:6]([H:11])([H:17])[H:18])([O:7][H:19])[H:16])([H:14])[H:15])[H:13])[H:12])([H:8])([H:9])[H:10]"
C        2.42724336       0.14722899       0.73235054
C        1.28634754      -0.40739489      -0.09671885
C        0.42026833       0.52195762      -0.74796738
C       -0.77519083       0.13229270      -1.54542049
C       -1.48614056       0.23655376      -0.22509565
C       -1.48727438      -0.89977015       0.73632149
O       -1.92567279       1.49333291       0.20338399
H        2.88745087      -0.63581823       1.33894144
H        2.07854261       0.93153386       1.40761786
H        3.22062453       0.56802983       0.11012975
H        0.19905525      -1.06329456       0.73335498
H        1.63890783      -1.19011738      -0.77533308
H        0.62405890       1.58619557      -0.68436709
H       -0.73934867      -0.88030292      -1.94391739
H       -1.12322946       0.87864112      -2.25332729
H       -2.62603089      -0.54989954      -0.07449889
H       -1.78879206      -0.69254428       1.75892271
H       -1.41902480      -1.91129638       0.34793359
H       -1.41179479       1.73467197       0.97768977
19
Frame=13 idx=011860 GeodesicLength=1.1466918752404427 rxn_smarts="[C:1]([C:2]([C@@:3]1([H:13])[C:4]([H:14])([H:15])[C@:5]1([C:6]([H:16])([H:17])[H:18])[O:7][H:19])([H:11])[H:12])([H:8])([H:9])[H:10]>>[C:1](/[C:2](=[C:3](/[C:4]([C@@:5]([C:6]([H:11])([H:17])[H:18])([O:7][H:19])[H:16])([H:14])[H:15])[H:13])[H:12])([H:8])([H:9])[H:10]"
C        2.42938138       0.14956923       0.73351253
C        1.29702141      -0.40710369      -0.10478159
C        0.41478408       0.51722673      -0.73844491
C       -0.77695494       0.12620006      -1.54541790
C       -1.48134305       0.23925283      -0.22389963
C       -1.49145873      -0.89913546       0.73914805
O       -1.92002811       1.49944883       0.20008670
H        2.89829287      -0.63660080       1.32945195
H        2.07077758       0.92003748       1.41936906
H        3.21978124       0.58781185       0.11938308
H        0.17845232      -1.08811077       0.73216214
H        1.65987018      -1.17371778      -0.79570092
H        0.62252183       1.58157916      -0.68765323
H       -0.73755363      -0.88787407      -1.93891081
H       -1.12058344       0.87288502      -2.25499238
H       -2.63794255      -0.54617653      -0.06633150
H       -1.79322903      -0.68605455       1.76085333
H       -1.42838199      -1.91107258       0.34991794
H       -1.40340742       1.74183505       0.97224809
19
Frame=14 idx=011860 GeodesicLength=1.2349815947933458 rxn_smarts="[C:1]([C:2]([C@@:3]1([H:13])[C:4]([H:14])([H:15])[C@:5]1([C:6]([H:16])([H:17])[H:18])[O:7][H:19])([H:11])[H:12])([H:8])([H:9])[H:10]>>[C:1](/[C:2](=[C:3](/[C:4]([C@@:5]([C:6]([H:11])([H:17])[H:18])([O:7][H:19])[H:16])([H:14])[H:15])[H:13])[H:12])([H:8])([H:9])[H:10]"
C        2.43189410       0.15189158       0.73448100
C        1.30810649      -0.40640436      -0.11316105
C        0.40941096       0.51238328      -0.72862059
C       -0.77852214       0.11995046      -1.54518599
C       -1.47654161       0.24185595      -0.22266691
C       -1.49609819      -0.89857326       0.74193387
O       -1.91446642       1.50547256       0.19665462
H        2.90964871      -0.63729469       1.31945360
H        2.06357835       0.90803565       1.43097770
H        3.21899676       0.60767464       0.12873036
H        0.15706380      -1.11269220       0.73189096
H        1.68091140      -1.15639821      -0.81636087
H        0.62095590       1.57675194      -0.69090898
H       -0.73549255      -0.89557611      -1.93364251
H       -1.11761561       0.86688483      -2.25655167
H       -2.65017706      -0.54239642      -0.05828083
H       -1.79812295      -0.67959623       1.76270024
H       -1.43827198      -1.91087726       0.35179821
H       -1.39525794       1.74890785       0.96675882
19
Frame=15 idx=011860 GeodesicLength=1.3232253325463244 rxn_smarts="[C:1]([C:2]([C@@:3]1([H:13])[C:4]([H:14])([H:15])[C@:5]1([C:6]([H:16])([H:17])[H:18])[O:7][H:19])([H:11])[H:12])([H:8])([H:9])[H:10]>>[C:1](/[C:2](=[C:3](/[C:4]([C@@:5]([C:6]([H:11])([H:17])[H:18])([O:7][H:19])[H:16])([H:14])[H:15])[H:13])[H:12])([H:8])([H:9])[H:10]"
C        2.43480083       0.15419240       0.73524929
C        1.31964115      -0.40526858      -0.12190594
C        0.40415424       0.50741346      -0.71847158
C       -0.77987756       0.11351633      -1.54471006
C       -1.47173221       0.24435985      -0.22138909
C       -1.50123041      -0.89807002       0.74469059
O       -1.90898561       1.51140822       0.19306834
H        2.92156664      -0.63791463       1.30888213
H        2.05694520       0.89545891       1.44247502
H        3.21827147       0.62767338       0.13821186
H        0.13485136      -1.13708188       0.73259038
H        1.70208110      -1.13806588      -0.83739726
H        0.61934859       1.57169730      -0.69411936
H       -0.73315006      -0.90344334      -1.92807724
H       -1.11430454       0.86059943      -2.25800548
H       -2.66275656      -0.53853808      -0.05035919
H       -1.80352105      -0.67314268       1.76446876
H       -1.44874766      -1.91069798       0.35358909
H       -1.38735492       1.75590379       0.96120972
19
Frame=16 idx=011860 GeodesicLength=1.4113931017785633 rxn_smarts="[C:1]([C:2]([C@@:3]1([H:13])[C:4]([H:14])([H:15])[C@:5]1([C:6]([H:16])([H:17])[H:18])[O:7][H:19])([H:11])[H:12])([H:8])([H:9])[H:10]>>[C:1](/[C:2](=[C:3](/[C:4]([C@@:5]([C:6]([H:11])([H:17])[H:18])([O:7][H:19])[H:16])([H:14])[H:15])[H:13])[H:12])([H:8])([H:9])[H:10]"
C        2.43811919       0.15646601       0.73581195
C        1.33166344      -0.40366358      -0.13106608
C        0.39902066       0.50229998      -0.70797470
C       -0.78100496       0.10686497      -1.54397465
C       -1.46690944       0.24676062      -0.22005722
C       -1.50689402      -0.89760937       0.74743367
O       -1.90358098       1.51726079       0.18930467
H        2.93410035      -0.63847445       1.29766198
H        2.05087526       0.88221787       1.45389951
H        3.21759698       0.64786977       0.14788077
H        0.11177545      -1.16133255       0.73430372
H        1.72343454      -1.11860234      -0.85890517
H        0.61768716       1.56639605      -0.69727262
H       -0.73050966      -0.91151608      -1.92217479
H       -1.11062608       0.85398038      -2.25935545
H       -2.67570419      -0.53457656      -0.04257687
H       -1.80946882      -0.66666047       1.76616771
H       -1.45987008      -1.91051997       0.35530954
H       -1.37970481       1.76283893       0.95558403
