15
Frame=0 idx=009286 GeodesicLength=0.0 rxn_smarts="[C:1]([C:2]([C:3]([H:12])([H:13])[H:14])([C:4](=[O:5])[C:6]#[C:7][H:15])[H:11])([H:8])([H:9])[H:10]>>[C:1]([C:2]([C:3]([H:12])([H:13])[H:14])([C:4](=[O:5])[C:6](=[C:7])[H:15])[H:11])([H:8])([H:9])[H:10]"
C       -1.37477635       0.53242284      -1.13571963
C       -0.23918660      -0.19657798      -0.43496950
C       -0.73204367      -1.07473256       0.72148015
C        0.79760222       0.78502569       0.07310091
O        0.68162676       1.98286811       0.07504850
C        2.01942124       0.16309158       0.59880666
C        3.04634690      -0.40536230       1.03255698
H       -1.91097679       1.17743900      -0.43843279
H       -2.08077686      -0.19068818      -1.54635719
H       -1.00774927       1.15862347      -1.94859173
H        0.28530819      -0.84232648      -1.14978061
H       -1.23931542      -0.46813128       1.47470760
H       -1.44345910      -1.81158860       0.34744715
H        0.08436039      -1.61098656       1.20708539
H        3.11361841       0.80092330       1.12361806
15
Frame=1 idx=009286 GeodesicLength=0.044568496977332756 rxn_smarts="[C:1]([C:2]([C:3]([H:12])([H:13])[H:14])([C:4](=[O:5])[C:6]#[C:7][H:15])[H:11])([H:8])([H:9])[H:10]>>[C:1]([C:2]([C:3]([H:12])([H:13])[H:14])([C:4](=[O:5])[C:6](=[C:7])[H:15])[H:11])([H:8])([H:9])[H:10]"
C       -1.37969199       0.53222991      -1.13400119
C       -0.23896545      -0.19318294      -0.43779117
C       -0.72411076      -1.07456288       0.71897800
C        0.79717876       0.79134178       0.06627318
O        0.68000201       1.98889943       0.06212001
C        2.02096778       0.17481365       0.59430918
C        3.00912169      -0.42330750       1.07248533
H       -1.91558827       1.17509508      -0.43446425
H       -2.08495399      -0.19273594      -1.54267391
H       -1.01758415       1.16021471      -1.94768589
H        0.28476413      -0.83640052      -1.15550476
H       -1.23296210      -0.47140570       1.47393351
H       -1.43309616      -1.81463170       0.34654717
H        0.09685133      -1.60689684       1.20192878
H        3.13806715       0.79052947       1.11554601
15
Frame=2 idx=009286 GeodesicLength=0.08910030851233364 rxn_smarts="[C:1]([C:2]([C:3]([H:12])([H:13])[H:14])([C:4](=[O:5])[C:6]#[C:7][H:15])[H:11])([H:8])([H:9])[H:10]>>[C:1]([C:2]([C:3]([H:12])([H:13])[H:14])([C:4](=[O:5])[C:6](=[C:7])[H:15])[H:11])([H:8])([H:9])[H:10]"
C       -1.38405039       0.53212193      -1.13228166
C       -0.23869389      -0.18996369      -0.44013016
C       -0.71692693      -1.07482540       0.71637143
C        0.79656683       0.79725892       0.06083396
O        0.67806906       1.99450074       0.05078766
C        2.02198036       0.18579470       0.59196536
C        2.97054998      -0.43690244       1.11407013
H       -1.92001642       1.17267446      -0.43064654
H       -2.08838845      -0.19450680      -1.53962715
H       -1.02634049       1.16208292      -1.94636686
H        0.28464686      -0.83049031      -1.16059122
H       -1.22767842      -0.47528593       1.47295220
H       -1.42337587      -1.81785924       0.34489698
H        0.10819104      -1.60351823       1.19695506
H        3.16546672       0.77891838       1.10081082
15
Frame=3 idx=009286 GeodesicLength=0.13365219067965345 rxn_smarts="[C:1]([C:2]([C:3]([H:12])([H:13])[H:14])([C:4](=[O:5])[C:6]#[C:7][H:15])[H:11])([H:8])([H:9])[H:10]>>[C:1]([C:2]([C:3]([H:12])([H:13])[H:14])([C:4](=[O:5])[C:6](=[C:7])[H:15])[H:11])([H:8])([H:9])[H:10]"
C       -1.38810492       0.53173211      -1.13082990
C       -0.23837787      -0.18666942      -0.44203757
C       -0.71007027      -1.07481021       0.71415429
C        0.79565662       0.80349131       0.05605054
O        0.67572996       2.00036526       0.03973721
C        2.02236238       0.19734559       0.59144600
C        2.93339573      -0.44850103       1.14858987
H       -1.92452777       1.17006509      -0.42749578
H       -2.09120442      -0.19677304      -1.53699235
H       -1.03449839       1.16348438      -1.94530227
H        0.28502196      -0.82459797      -1.16481840
H       -1.22316272      -0.47881879       1.47197706
H       -1.41363150      -1.82102416       0.34345697
H        0.11905963      -1.59955132       1.19288602
H        3.19235158       0.76426220       1.08917830
15
Frame=4 idx=009286 GeodesicLength=0.17799655813682053 rxn_smarts="[C:1]([C:2]([C:3]([H:12])([H:13])[H:14])([C:4](=[O:5])[C:6]#[C:7][H:15])[H:11])([H:8])([H:9])[H:10]>>[C:1]([C:2]([C:3]([H:12])([H:13])[H:14])([C:4](=[O:5])[C:6](=[C:7])[H:15])[H:11])([H:8])([H:9])[H:10]"
C       -1.39176239       0.53137400      -1.12943215
C       -0.23803719      -0.18348279      -0.44357158
C       -0.70377687      -1.07506809       0.71190266
C        0.79454172       0.80952221       0.05228409
O        0.67311793       2.00599669       0.02977281
C        2.02211140       0.20850343       0.59286951
C        2.89632565      -0.45636526       1.18343760
H       -1.92893765       1.16739845      -0.42455202
H       -2.09347055      -0.19889040      -1.53486824
H       -1.04186704       1.16502484      -1.94401512
H        0.28575191      -0.81869938      -1.16851756
H       -1.21950584      -0.48274555       1.47083737
H       -1.40431953      -1.82432073       0.34150078
H        0.12912102      -1.59593931       1.18905479
H        3.22070744       0.74769189       1.07329707
15
Frame=5 idx=009286 GeodesicLength=0.2223969180549354 rxn_smarts="[C:1]([C:2]([C:3]([H:12])([H:13])[H:14])([C:4](=[O:5])[C:6]#[C:7][H:15])[H:11])([H:8])([H:9])[H:10]>>[C:1]([C:2]([C:3]([H:12])([H:13])[H:14])([C:4](=[O:5])[C:6](=[C:7])[H:15])[H:11])([H:8])([H:9])[H:10]"
C       -1.39527669       0.53079181      -1.12820769
C       -0.23763567      -0.18019723      -0.44487801
C       -0.69753755      -1.07504591       0.70993216
C        0.79325193       0.81588099       0.04876020
O        0.67014011       2.01189610       0.01985615
C        2.02155090       0.22035705       0.59526657
C        2.86037799      -0.46302304       1.21336510
H       -1.93344528       1.16455763      -0.42202266
H       -2.09538002      -0.20141773      -1.53293480
H       -1.04899872       1.16621194      -1.94293930
H        0.28681827      -0.81277271      -1.17171272
H       -1.21611452      -0.48633659       1.46976201
H       -1.39486405      -1.82748643       0.33981062
H        0.13905891      -1.59184320       1.18577796
H        3.24805439       0.72842730       1.06016439
15
Frame=6 idx=009286 GeodesicLength=0.26691741256988477 rxn_smarts="[C:1]([C:2]([C:3]([H:12])([H:13])[H:14])([C:4](=[O:5])[C:6]#[C:7][H:15])[H:11])([H:8])([H:9])[H:10]>>[C:1]([C:2]([C:3]([H:12])([H:13])[H:14])([C:4](=[O:5])[C:6](=[C:7])[H:15])[H:11])([H:8])([H:9])[H:10]"
C       -1.39856829       0.53008858      -1.12712110
C       -0.23718138      -0.17687117      -0.44591121
C       -0.69151722      -1.07495332       0.70811664
C        0.79175518       0.82241405       0.04577689
O        0.66678826       2.01792118       0.01039211
C        2.02054312       0.23261800       0.59900977
C        2.82537175      -0.46801749       1.24073337
H       -1.93800433       1.16158405      -0.41983766
H       -2.09687146      -0.20414578      -1.53132425
H       -1.05571371       1.16725373      -1.94192058
H        0.28825384      -0.80678809      -1.17440860
H       -1.21319769      -0.48988155       1.46865826
H       -1.38545002      -1.83062915       0.33808463
H        0.14866569      -1.58755909       1.18292634
H        3.27512626       0.70696606       1.04682537
15
Frame=7 idx=009286 GeodesicLength=0.31090614895565316 rxn_smarts="[C:1]([C:2]([C:3]([H:12])([H:13])[H:14])([C:4](=[O:5])[C:6]#[C:7][H:15])[H:11])([H:8])([H:9])[H:10]>>[C:1]([C:2]([C:3]([H:12])([H:13])[H:14])([C:4](=[O:5])[C:6](=[C:7])[H:15])[H:11])([H:8])([H:9])[H:10]"
C       -1.40165676       0.52931559      -1.12611031
C       -0.23666664      -0.17353111      -0.44674463
C       -0.68564358      -1.07483838       0.70639187
C        0.79012897       0.82903291       0.04320868
O        0.66317796       2.02398134       0.00129210
C        2.01917926       0.24512073       0.60381273
C        2.79120883      -0.47110930       1.26650970
H       -1.94253945       1.15852493      -0.41786264
H       -2.09803754      -0.20696428      -1.52993615
H       -1.06207935       1.16821640      -1.94090571
H        0.28996804      -0.80075732      -1.17675827
H       -1.21059086      -0.49343888       1.46752806
H       -1.37607453      -1.83374031       0.33629457
H        0.15804009      -1.58317335       1.18033766
H        3.30158557       0.68336104       1.03294234
15
Frame=8 idx=009286 GeodesicLength=0.3551520112180978 rxn_smarts="[C:1]([C:2]([C:3]([H:12])([H:13])[H:14])([C:4](=[O:5])[C:6]#[C:7][H:15])[H:11])([H:8])([H:9])[H:10]>>[C:1]([C:2]([C:3]([H:12])([H:13])[H:14])([C:4](=[O:5])[C:6](=[C:7])[H:15])[H:11])([H:8])([H:9])[H:10]"
C       -1.40454528       0.52834434      -1.12528438
C       -0.23605325      -0.17003717      -0.44728544
C       -0.67984878      -1.07450477       0.70490716
C        0.78822204       0.83607000       0.04116198
O        0.65900368       2.03038706      -0.00742439
C        2.01739636       0.25857613       0.60990858
C        2.75806153      -0.47372573       1.28899537
H       -1.94723973       1.15522749      -0.41632744
H       -2.09870460      -0.21017528      -1.52887378
H       -1.06811144       1.16893651      -1.94003795
H        0.29219452      -0.79453872      -1.17853101
H       -1.20837543      -0.49681855       1.46642003
H       -1.36651486      -1.83677608       0.33461091
H        0.16724111      -1.57837686       1.17829328
H        3.32727415       0.65741163       1.01946707
15
Frame=9 idx=009286 GeodesicLength=0.3992577014094977 rxn_smarts="[C:1]([C:2]([C:3]([H:12])([H:13])[H:14])([C:4](=[O:5])[C:6]#[C:7][H:15])[H:11])([H:8])([H:9])[H:10]>>[C:1]([C:2]([C:3]([H:12])([H:13])[H:14])([C:4](=[O:5])[C:6](=[C:7])[H:15])[H:11])([H:8])([H:9])[H:10]"
C       -1.40720690       0.52727775      -1.12456551
C       -0.23533494      -0.16644916      -0.44757824
C       -0.67414614      -1.07411675       0.70353211
C        0.78610487       0.84335424       0.03967394
O        0.65441479       2.03697741      -0.01565285
C        2.01524407       0.27260832       0.61715690
C        2.72560097      -0.47494676       1.31028721
H       -1.95199801       1.15176275      -0.41506643
H       -2.09893250      -0.21356614      -1.52810220
H       -1.07377527       1.16958135      -1.93918833
H        0.29485415      -0.78813754      -1.17987697
H       -1.20653358      -0.50024654       1.46526779
H       -1.35683792      -1.83981325       0.33283279
H        0.17626147      -1.57339388       1.17659149
H        3.35228494       0.62910821       1.00468829
15
Frame=10 idx=009286 GeodesicLength=0.4433738111375388 rxn_smarts="[C:1]([C:2]([C:3]([H:12])([H:13])[H:14])([C:4](=[O:5])[C:6]#[C:7][H:15])[H:11])([H:8])([H:9])[H:10]>>[C:1]([C:2]([C:3]([H:12])([H:13])[H:14])([C:4](=[O:5])[C:6](=[C:7])[H:15])[H:11])([H:8])([H:9])[H:10]"
C       -1.40966330       0.52603301      -1.12400461
C       -0.23450859      -0.16275759      -0.44763593
C       -0.66846165      -1.07344919       0.70245198
C        0.78385824       0.85092449       0.03850690
O        0.64943724       2.04378146      -0.02364511
C        2.01289601       0.28743547       0.62525257
C        2.69459026      -0.47666617       1.32755072
H       -1.95679989       1.14814652      -0.41419276
H       -2.09876095      -0.21728346      -1.52751970
H       -1.07912438       1.16994765      -1.93851659
H        0.29789930      -0.78168136      -1.18072704
H       -1.20490175      -0.50335216       1.46420495
H       -1.34702863      -1.84266539       0.33134275
H        0.18517493      -1.56798007       1.17542948
H        3.37539316       0.59956682       0.99150240
15
Frame=11 idx=009286 GeodesicLength=0.48742554633736757 rxn_smarts="[C:1]([C:2]([C:3]([H:12])([H:13])[H:14])([C:4](=[O:5])[C:6]#[C:7][H:15])[H:11])([H:8])([H:9])[H:10]>>[C:1]([C:2]([C:3]([H:12])([H:13])[H:14])([C:4](=[O:5])[C:6](=[C:7])[H:15])[H:11])([H:8])([H:9])[H:10]"
C       -1.41180630       0.52467789      -1.12358724
C       -0.23351566      -0.15889916      -0.44735695
C       -0.66286264      -1.07273818       0.70148595
C        0.78130306       0.85888066       0.03816889
O        0.64387786       2.05089414      -0.03089290
C        2.01006124       0.30309394       0.63484924
C        2.66400768      -0.47699302       1.34446331
H       -1.96172279       1.14426153      -0.41367578
H       -2.09793338      -0.22124608      -1.52738099
H       -1.08397954       1.17028690      -1.93783612
H        0.30159235      -0.77488427      -1.18101703
H       -1.20377522      -0.50660453       1.46305943
H       -1.33697233      -1.84557602       0.32965288
H        0.19388800      -1.56235183       1.17469506
H        3.39783767       0.56719803       0.97537225
15
Frame=12 idx=009286 GeodesicLength=0.5315004759040933 rxn_smarts="[C:1]([C:2]([C:3]([H:12])([H:13])[H:14])([C:4](=[O:5])[C:6]#[C:7][H:15])[H:11])([H:8])([H:9])[H:10]>>[C:1]([C:2]([C:3]([H:12])([H:13])[H:14])([C:4](=[O:5])[C:6](=[C:7])[H:15])[H:11])([H:8])([H:9])[H:10]"
C       -1.41367566       0.52320081      -1.12328855
C       -0.23235640      -0.15490938      -0.44681840
C       -0.65725409      -1.07186851       0.70071306
C        0.77860414       0.86713132       0.03835001
O        0.63791799       2.05822486      -0.03768295
C        2.00699654       0.31949002       0.64542635
C        2.63421770      -0.47698087       1.35954447
H       -1.96667642       1.14017961      -0.41346884
H       -2.09658478      -0.22545575      -1.52750910
H       -1.08844557       1.17050475      -1.93721467
H        0.30578125      -0.76789331      -1.18083521
H       -1.20287752      -0.50977077       1.46194278
H       -1.32670354      -1.84839968       0.32802769
H        0.20250074      -1.55646308       1.17437856
H        3.41855562       0.53300998       0.95843478
15
Frame=13 idx=009286 GeodesicLength=0.5755889575023824 rxn_smarts="[C:1]([C:2]([C:3]([H:12])([H:13])[H:14])([C:4](=[O:5])[C:6]#[C:7][H:15])[H:11])([H:8])([H:9])[H:10]>>[C:1]([C:2]([C:3]([H:12])([H:13])[H:14])([C:4](=[O:5])[C:6](=[C:7])[H:15])[H:11])([H:8])([H:9])[H:10]"
C       -1.41522653       0.52163335      -1.12308577
C       -0.23098460      -0.15075304      -0.44599773
C       -0.65159705      -1.07093488       0.70005012
C        0.77571583       0.87572829       0.03921622
O        0.63151874       2.06582088      -0.04387589
C        2.00363540       0.33663512       0.65713356
C        2.60474356      -0.47569579       1.37448082
H       -1.97166947       1.13585329      -0.41352760
H       -2.09461679      -0.22987615      -1.52797043
H       -1.09247706       1.17070596      -1.93657210
H        0.31057329      -0.76057188      -1.18019389
H       -1.20224574      -0.51305157       1.46078853
H       -1.31610973      -1.85123640       0.32627505
H        0.21105735      -1.55039602       1.17439926
H        3.43768281       0.49613885       0.93887985
15
Frame=14 idx=009286 GeodesicLength=0.6197383057769593 rxn_smarts="[C:1]([C:2]([C:3]([H:12])([H:13])[H:14])([C:4](=[O:5])[C:6]#[C:7][H:15])[H:11])([H:8])([H:9])[H:10]>>[C:1]([C:2]([C:3]([H:12])([H:13])[H:14])([C:4](=[O:5])[C:6](=[C:7])[H:15])[H:11])([H:8])([H:9])[H:10]"
C       -1.41648831       0.52000397      -1.12292437
C       -0.22938448      -0.14644721      -0.44496922
C       -0.64578893      -1.06994578       0.69946072
C        0.77274289       0.88460830       0.04059486
O        0.62481919       2.07362134      -0.04962064
C        2.00014190       0.35437798       0.66959285
C        2.57544906      -0.47299315       1.38959866
H       -1.97663590       1.13131714      -0.41373471
H       -2.09212267      -0.23445013      -1.52864643
H       -1.09616758       1.17091484      -1.93588274
H        0.31587473      -0.75294943      -1.17923123
H       -1.20166350      -0.51644253       1.45962445
H       -1.30515805      -1.85406133       0.32442648
H        0.21968129      -1.54421714       1.17462005
H        3.45470035       0.45666313       0.91709128
15
Frame=15 idx=009286 GeodesicLength=0.6640018035625102 rxn_smarts="[C:1]([C:2]([C:3]([H:12])([H:13])[H:14])([C:4](=[O:5])[C:6]#[C:7][H:15])[H:11])([H:8])([H:9])[H:10]>>[C:1]([C:2]([C:3]([H:12])([H:13])[H:14])([C:4](=[O:5])[C:6](=[C:7])[H:15])[H:11])([H:8])([H:9])[H:10]"
C       -1.41754056       0.51836404      -1.12271209
C       -0.22756089      -0.14203201      -0.44386290
C       -0.63970014      -1.06893607       0.69886594
C        0.76983361       0.89365359       0.04219518
O        0.61804305       2.08151690      -0.05518115
C        1.99675425       0.37243647       0.68220006
C        2.54612122      -0.46855185       1.40543654
H       -1.98148878       1.12664189      -0.41388826
H       -2.08929902      -0.23907138      -1.52934428
H       -1.09970197       1.17117807      -1.93509898
H        0.32149357      -0.74508834      -1.17819306
H       -1.20083044      -0.51996142       1.45847788
H       -1.29382970      -1.85685841       0.32250018
H        0.22854284      -1.53804194       1.17480558
H        3.46916297       0.41475049       0.89379936
15
Frame=16 idx=009286 GeodesicLength=0.7083619818497788 rxn_smarts="[C:1]([C:2]([C:3]([H:12])([H:13])[H:14])([C:4](=[O:5])[C:6]#[C:7][H:15])[H:11])([H:8])([H:9])[H:10]>>[C:1]([C:2]([C:3]([H:12])([H:13])[H:14])([C:4](=[O:5])[C:6](=[C:7])[H:15])[H:11])([H:8])([H:9])[H:10]"
C       -1.41844795       0.51675224      -1.12239320
C       -0.22554816      -0.13757158      -0.44277699
C       -0.63328600      -1.06792092       0.69823436
C        0.76710915       0.90271760       0.04377142
O        0.61137819       2.08937377      -0.06072431
C        1.99366536       0.39049861       0.69443584
C        2.51686446      -0.46245956       1.42185648
H       -1.98614740       1.12191556      -0.41386158
H       -2.08632574      -0.24364353      -1.52992200
H       -1.10319096       1.17150671      -1.93420451
H        0.32722550      -0.73711057      -1.17725540
H       -1.19956132      -0.52356760       1.45737935
H       -1.28219545      -1.85959129       0.32055989
H        0.23772147      -1.53192934       1.17482161
H        3.48073886       0.37102992       0.87007905
