6
Frame=0 idx=003933 GeodesicLength=0.0 rxn_smarts="[O:1]=[C:2]([C:3]#[N:4])[C:5]#[N:6]>>[O:1]=[C:2]=[C:3]=[N:4][C:5]#[N:6]"
O        0.15014560       1.90286617      -0.49263691
C       -0.31552363       0.91328686      -0.23588985
C       -1.27811471      -0.04831193       0.01234856
N       -1.22587915      -1.19702463       0.30901904
C        0.97187554      -1.22882769       0.31784669
N        1.69749634      -0.34198878       0.08931246
6
Frame=1 idx=003933 GeodesicLength=0.06673449369970855 rxn_smarts="[O:1]=[C:2]([C:3]#[N:4])[C:5]#[N:6]>>[O:1]=[C:2]=[C:3]=[N:4][C:5]#[N:6]"
O        0.13484855       1.91647407      -0.46044517
C       -0.30742008       0.90243273      -0.25012125
C       -1.27979670      -0.05502154      -0.01099314
N       -1.23145139      -1.19743575       0.31430761
C        0.95536081      -1.19132669       0.36116641
N        1.72845882      -0.37512283       0.04608554
6
Frame=2 idx=003933 GeodesicLength=0.13330446371120658 rxn_smarts="[O:1]=[C:2]([C:3]#[N:4])[C:5]#[N:6]>>[O:1]=[C:2]=[C:3]=[N:4][C:5]#[N:6]"
O        0.12019483       1.92731913      -0.42778468
C       -0.30090292       0.89164747      -0.27134175
C       -1.28164586      -0.05890936      -0.02410874
N       -1.23385612      -1.19898136       0.31401410
C        0.94075097      -1.14878438       0.40143136
N        1.75545910      -0.41229150       0.00778972
6
Frame=3 idx=003933 GeodesicLength=0.20007536006318 rxn_smarts="[O:1]=[C:2]([C:3]#[N:4])[C:5]#[N:6]>>[O:1]=[C:2]=[C:3]=[N:4][C:5]#[N:6]"
O        0.10521882       1.93607496      -0.39287667
C       -0.29551847       0.88219578      -0.29429785
C       -1.28306723      -0.06406597      -0.04220967
N       -1.23400249      -1.19789356       0.32048815
C        0.92787122      -1.10404970       0.43309047
N        1.77949816      -0.45226151      -0.02419444
6
Frame=4 idx=003933 GeodesicLength=0.26730652303287905 rxn_smarts="[O:1]=[C:2]([C:3]#[N:4])[C:5]#[N:6]>>[O:1]=[C:2]=[C:3]=[N:4][C:5]#[N:6]"
O        0.09066829       1.94228019      -0.36171052
C       -0.29175837       0.87487520      -0.31611901
C       -1.28464869      -0.06699304      -0.05265988
N       -1.23066856      -1.19873110       0.32020235
C        0.91675905      -1.05487298       0.46305551
N        1.79964829      -0.49655826      -0.05276845
6
Frame=5 idx=003933 GeodesicLength=0.33476761590444565 rxn_smarts="[O:1]=[C:2]([C:3]#[N:4])[C:5]#[N:6]>>[O:1]=[C:2]=[C:3]=[N:4][C:5]#[N:6]"
O        0.07563212       1.94748026      -0.33520820
C       -0.28904994       0.86974375      -0.33492672
C       -1.28611814      -0.06864717      -0.05902503
N       -1.22456499      -1.20026294       0.31747263
C        0.90722183      -1.00488092       0.48645342
N        1.81687912      -0.54343299      -0.07476610
6
Frame=6 idx=003933 GeodesicLength=0.4017538349400379 rxn_smarts="[O:1]=[C:2]([C:3]#[N:4])[C:5]#[N:6]>>[O:1]=[C:2]=[C:3]=[N:4][C:5]#[N:6]"
O        0.05741423       1.95376097      -0.31299580
C       -0.28526511       0.86623701      -0.34862288
C       -1.28655579      -0.07153578      -0.07066851
N       -1.21993199      -1.19801420       0.32424758
C        0.89820326      -0.96344504       0.49214888
N        1.83613540      -0.58700297      -0.08410927
6
Frame=7 idx=003933 GeodesicLength=0.46853200000362133 rxn_smarts="[O:1]=[C:2]([C:3]#[N:4])[C:5]#[N:6]>>[O:1]=[C:2]=[C:3]=[N:4][C:5]#[N:6]"
O        0.03784792       1.96065177      -0.29613845
C       -0.28186711       0.86426399      -0.35959542
C       -1.28696235      -0.07240281      -0.07623299
N       -1.21380109      -1.19691886       0.32716236
C        0.89028195      -0.92395634       0.49241329
N        1.85450067      -0.63163776      -0.08760878
6
Frame=8 idx=003933 GeodesicLength=0.5350951750958048 rxn_smarts="[O:1]=[C:2]([C:3]#[N:4])[C:5]#[N:6]>>[O:1]=[C:2]=[C:3]=[N:4][C:5]#[N:6]"
O        0.01718300       1.96866613      -0.28472393
C       -0.27915739       0.86389110      -0.36796781
C       -1.28743377      -0.07086240      -0.07428005
N       -1.20508718      -1.19808969       0.32382611
C        0.88376483      -0.88476292       0.49018423
N        1.87073051      -0.67884222      -0.08703855
6
Frame=9 idx=003933 GeodesicLength=0.601157986255615 rxn_smarts="[O:1]=[C:2]([C:3]#[N:4])[C:5]#[N:6]>>[O:1]=[C:2]=[C:3]=[N:4][C:5]#[N:6]"
O       -0.00543325       1.97828196      -0.27695666
C       -0.27657614       0.86500486      -0.37378518
C       -1.28743004      -0.06829853      -0.06942221
N       -1.19483935      -1.19962412       0.31885594
C        0.87861829      -0.84772181       0.48316230
N        1.88566048      -0.72764235      -0.08185419
6
Frame=10 idx=003933 GeodesicLength=0.6667467309294995 rxn_smarts="[O:1]=[C:2]([C:3]#[N:4])[C:5]#[N:6]>>[O:1]=[C:2]=[C:3]=[N:4][C:5]#[N:6]"
O       -0.03041394       1.98957650      -0.27164100
C       -0.27389291       0.86757992      -0.37734323
C       -1.28670746      -0.06534129      -0.06377888
N       -1.18352029      -1.20067662       0.31426759
C        0.87488142      -0.81329294       0.47059563
N        1.89965317      -0.77784558      -0.07210010
6
Frame=11 idx=003933 GeodesicLength=0.7318871495120777 rxn_smarts="[O:1]=[C:2]([C:3]#[N:4])[C:5]#[N:6]>>[O:1]=[C:2]=[C:3]=[N:4][C:5]#[N:6]"
O       -0.05840781       2.00275393      -0.26835386
C       -0.27060450       0.87167230      -0.37818250
C       -1.28507867      -0.06233977      -0.05906095
N       -1.17195677      -1.20046705       0.31202339
C        0.87243417      -0.78288244       0.45071869
N        1.91361358      -0.82873697      -0.05714476
6
Frame=12 idx=003933 GeodesicLength=0.7965878726390184 rxn_smarts="[O:1]=[C:2]([C:3]#[N:4])[C:5]#[N:6]>>[O:1]=[C:2]=[C:3]=[N:4][C:5]#[N:6]"
O       -0.08961941       2.01774586      -0.26678818
C       -0.26658785       0.87742920      -0.37614401
C       -1.28245816      -0.05938149      -0.05578020
N       -1.16014004      -1.19885845       0.31256046
C        0.87135271      -0.75655219       0.42305569
N        1.92745275      -0.88038292      -0.03690376
6
Frame=13 idx=003933 GeodesicLength=0.8607044181555001 rxn_smarts="[O:1]=[C:2]([C:3]#[N:4])[C:5]#[N:6]>>[O:1]=[C:2]=[C:3]=[N:4][C:5]#[N:6]"
O       -0.12407497       2.03452339      -0.26751593
C       -0.26202202       0.88513093      -0.37093483
C       -1.27866872      -0.05619016      -0.05243482
N       -1.14680076      -1.19665536       0.31384506
C        0.87210530      -0.73279577       0.38899259
N        1.93946118      -0.93401302      -0.01195207
6
Frame=14 idx=003933 GeodesicLength=0.9241050759073063 rxn_smarts="[O:1]=[C:2]([C:3]#[N:4])[C:5]#[N:6]>>[O:1]=[C:2]=[C:3]=[N:4][C:5]#[N:6]"
O       -0.16142221       2.05283598      -0.27221164
C       -0.25674049       0.89475531      -0.36106055
C       -1.27403939      -0.05187943      -0.04647019
N       -1.13287549      -1.19413965       0.31502293
C        0.87406078      -0.71420246       0.34433969
N        1.95101679      -0.98736974       0.02037976
6
Frame=15 idx=003933 GeodesicLength=0.9878548099372224 rxn_smarts="[O:1]=[C:2]([C:3]#[N:4])[C:5]#[N:6]>>[O:1]=[C:2]=[C:3]=[N:4][C:5]#[N:6]"
O       -0.20232071       2.07260432      -0.28070170
C       -0.25234931       0.90714691      -0.34912325
C       -1.26729358      -0.04661304      -0.03392298
N       -1.11162811      -1.19399253       0.30938725
C        0.88054710      -0.69021748       0.29818378
N        1.95304461      -1.04892818       0.05617690
6
Frame=16 idx=003933 GeodesicLength=1.0509772965947364 rxn_smarts="[O:1]=[C:2]([C:3]#[N:4])[C:5]#[N:6]>>[O:1]=[C:2]=[C:3]=[N:4][C:5]#[N:6]"
O       -0.24663120       2.09342232      -0.29140948
C       -0.24694894       0.92236294      -0.33038111
C       -1.25891409      -0.04113358      -0.02093705
N       -1.08903637      -1.19197064       0.30836679
C        0.88863835      -0.67393850       0.22675383
N        1.95289225      -1.10874254       0.10760701
