13
Frame=0 idx=008470 GeodesicLength=0.0 rxn_smarts="[N:1]([c:2]1[c:3]([O:4][H:10])[c:5]([H:11])[c:6]([H:12])[n:7]1[H:13])([H:8])[H:9]>>[N:1]([C:2]1=[C:3]([O-:4])[C:5]([H:10])([H:11])[C+:6]([H:12])[N:7]1[H:13])([H:8])[H:9]"
N        1.90490265       0.61666072      -0.11230993
C        0.58416102       0.31891519      -0.03454351
C        0.05122736      -0.99838632      -0.09247820
O        0.84696951      -2.11459084      -0.30085956
C       -1.39471398      -0.81262450      -0.22231318
C       -1.64792834       0.50698160      -0.11499606
N       -0.43683925       1.19472728      -0.00160399
H        2.46997717      -0.22088349      -0.14399727
H        2.27863508       1.37024087       0.43797296
H        0.39151461      -1.49415031       0.90055086
H       -2.12038621      -1.60378457      -0.31514187
H       -2.57989120       1.04566182      -0.06792157
H       -0.34762843       2.19123256       0.06764133
13
Frame=1 idx=008470 GeodesicLength=0.11687591186632526 rxn_smarts="[N:1]([c:2]1[c:3]([O:4][H:10])[c:5]([H:11])[c:6]([H:12])[n:7]1[H:13])([H:8])[H:9]>>[N:1]([C:2]1=[C:3]([O-:4])[C:5]([H:10])([H:11])[C+:6]([H:12])[N:7]1[H:13])([H:8])[H:9]"
N        1.91072964       0.63587245      -0.10311613
C        0.58930694       0.32443861      -0.05105274
C        0.06168635      -0.99122722      -0.12497803
O        0.84180715      -2.11601695      -0.29699574
C       -1.39110253      -0.81945657      -0.16881078
C       -1.64559737       0.50773960      -0.10884148
N       -0.43724765       1.19694801      -0.03287806
H        2.48502778      -0.19073249      -0.19622064
H        2.27551874       1.33844695       0.51687187
H        0.34849176      -1.51699189       0.90235087
H       -2.11280545      -1.60845377      -0.30329616
H       -2.57823462       1.04501566      -0.05796246
H       -0.34758073       2.19441762       0.02492948
13
Frame=2 idx=008470 GeodesicLength=0.2339462264527916 rxn_smarts="[N:1]([c:2]1[c:3]([O:4][H:10])[c:5]([H:11])[c:6]([H:12])[n:7]1[H:13])([H:8])[H:9]>>[N:1]([C:2]1=[C:3]([O-:4])[C:5]([H:10])([H:11])[C+:6]([H:12])[N:7]1[H:13])([H:8])[H:9]"
N        1.91577532       0.65480117      -0.09606791
C        0.59432751       0.32960453      -0.06700471
C        0.07106911      -0.98446804      -0.15304896
O        0.83661811      -2.11634601      -0.28816460
C       -1.38433606      -0.82476869      -0.12547014
C       -1.64257342       0.50806778      -0.10359366
N       -0.43793562       1.19841443      -0.06190374
H        2.49912936      -0.15661166      -0.24802209
H        2.27175628       1.30197589       0.58670446
H        0.30326648      -1.53954768       0.90688924
H       -2.10301114      -1.61093526      -0.29194834
H       -2.57615831       1.04339796      -0.04872731
H       -0.34792763       2.19641557      -0.00964225
13
Frame=3 idx=008470 GeodesicLength=0.3511411608402846 rxn_smarts="[N:1]([c:2]1[c:3]([O:4][H:10])[c:5]([H:11])[c:6]([H:12])[n:7]1[H:13])([H:8])[H:9]>>[N:1]([C:2]1=[C:3]([O-:4])[C:5]([H:10])([H:11])[C+:6]([H:12])[N:7]1[H:13])([H:8])[H:9]"
N        1.92029505       0.67366173      -0.09102841
C        0.59935587       0.33448725      -0.08199415
C        0.08006873      -0.97817876      -0.17721583
O        0.83185864      -2.11577250      -0.27402802
C       -1.37555575      -0.82911303      -0.09211867
C       -1.63903965       0.50819611      -0.09883343
N       -0.43878389       1.19926106      -0.08749982
H        2.51237881      -0.11884874      -0.29900426
H        2.26854276       1.26216376       0.64706013
H        0.25530137      -1.56223963       0.91388078
H       -2.09218874      -1.61245501      -0.28192401
H       -2.57376738       1.04122032      -0.03996000
H       -0.34846582       2.19761745      -0.03733431
13
Frame=4 idx=008470 GeodesicLength=0.46843371081809126 rxn_smarts="[N:1]([c:2]1[c:3]([O:4][H:10])[c:5]([H:11])[c:6]([H:12])[n:7]1[H:13])([H:8])[H:9]>>[N:1]([C:2]1=[C:3]([O-:4])[C:5]([H:10])([H:11])[C+:6]([H:12])[N:7]1[H:13])([H:8])[H:9]"
N        1.92443303       0.69261264      -0.08801347
C        0.60439778       0.33909687      -0.09493161
C        0.08900878      -0.97242772      -0.19717543
O        0.82761691      -2.11441434      -0.25426783
C       -1.36577570      -0.83304968      -0.06607687
C       -1.63529912       0.50820182      -0.09414596
N       -0.43979998       1.19960756      -0.10833684
H        2.52451874      -0.07770833      -0.35004121
H        2.26742645       1.22013250       0.69763720
H        0.20461009      -1.58566792       0.92343471
H       -2.08071753      -1.61337716      -0.27625684
H       -2.57128846       1.03868557      -0.03229758
H       -0.34913099       2.19830819      -0.05952826
13
Frame=5 idx=008470 GeodesicLength=0.5859690163155669 rxn_smarts="[N:1]([c:2]1[c:3]([O:4][H:10])[c:5]([H:11])[c:6]([H:12])[n:7]1[H:13])([H:8])[H:9]>>[N:1]([C:2]1=[C:3]([O-:4])[C:5]([H:10])([H:11])[C+:6]([H:12])[N:7]1[H:13])([H:8])[H:9]"
N        1.92819236       0.71173963      -0.08603789
C        0.60950282       0.34346752      -0.10684616
C        0.09807053      -0.96710892      -0.21393767
O        0.82358467      -2.11204321      -0.23035145
C       -1.35533741      -0.83686120      -0.04530495
C       -1.63099760       0.50812354      -0.08833645
N       -0.44068379       1.19950935      -0.12590417
H        2.53552843      -0.03343612      -0.39926750
H        2.26753056       1.17623616       0.74032414
H        0.15160799      -1.61031961       0.93416744
H       -2.06888253      -1.61375126      -0.27472509
H       -2.56835903       1.03587537      -0.02370875
H       -0.34975700       2.19856876      -0.08007149
13
Frame=6 idx=008470 GeodesicLength=0.7034993872501919 rxn_smarts="[N:1]([c:2]1[c:3]([O:4][H:10])[c:5]([H:11])[c:6]([H:12])[n:7]1[H:13])([H:8])[H:9]>>[N:1]([C:2]1=[C:3]([O-:4])[C:5]([H:10])([H:11])[C+:6]([H:12])[N:7]1[H:13])([H:8])[H:9]"
N        1.93182508       0.73107159      -0.08576843
C        0.61469765       0.34757691      -0.11594674
C        0.10742167      -0.96229518      -0.22684313
O        0.81992176      -2.10884778      -0.20103941
C       -1.34481638      -0.84082611      -0.02870554
C       -1.62664894       0.50789478      -0.08210616
N       -0.44159006       1.19905218      -0.13864283
H        2.54500137       0.01366251      -0.44884521
H        2.27127417       1.13178935       0.77371078
H        0.09564490      -1.63672865       0.94647975
H       -2.05667496      -1.61364570      -0.27859274
H       -2.56558836       1.03278977      -0.01759538
H       -0.35046790       2.19850633      -0.09610497
13
Frame=7 idx=008470 GeodesicLength=0.8210681362309514 rxn_smarts="[N:1]([c:2]1[c:3]([O:4][H:10])[c:5]([H:11])[c:6]([H:12])[n:7]1[H:13])([H:8])[H:9]>>[N:1]([C:2]1=[C:3]([O-:4])[C:5]([H:10])([H:11])[C+:6]([H:12])[N:7]1[H:13])([H:8])[H:9]"
N        1.93539157       0.75063999      -0.08662993
C        0.62003912       0.35147270      -0.12289606
C        0.11716493      -0.95791901      -0.23652131
O        0.81643616      -2.10465912      -0.16681780
C       -1.33429162      -0.84504227      -0.01525365
C       -1.62211034       0.50749855      -0.07495434
N       -0.44237616       1.19828434      -0.14763966
H        2.55280187       0.06350997      -0.49820263
H        2.27836979       1.08686992       0.79911524
H        0.03676441      -1.66520962       0.95937823
H       -2.04411195      -1.61301478      -0.28712250
H       -2.56289384       1.02939518      -0.01331445
H       -0.35118393       2.19817415      -0.10914113
13
Frame=8 idx=008470 GeodesicLength=0.9386933089441638 rxn_smarts="[N:1]([c:2]1[c:3]([O:4][H:10])[c:5]([H:11])[c:6]([H:12])[n:7]1[H:13])([H:8])[H:9]>>[N:1]([C:2]1=[C:3]([O-:4])[C:5]([H:10])([H:11])[C+:6]([H:12])[N:7]1[H:13])([H:8])[H:9]"
N        1.93899453       0.77045584      -0.08846416
C        0.62558528       0.35517241      -0.12769224
C        0.12738624      -0.95396602      -0.24319465
O        0.81298588      -2.09936684      -0.12751136
C       -1.32383880      -0.84959696      -0.00424908
C       -1.61737488       0.50693031      -0.06646699
N       -0.44298180       1.19723978      -0.15308037
H        2.55870107       0.11602008      -0.54750425
H        2.28914694       1.04186991       0.81692923
H       -0.02529137      -1.69621002       0.97219251
H       -2.03111663      -1.61177445      -0.30008817
H       -2.56034227       1.02563233      -0.01140853
H       -0.35185419       2.19759364      -0.11946193
13
Frame=9 idx=008470 GeodesicLength=1.056500858385706 rxn_smarts="[N:1]([c:2]1[c:3]([O:4][H:10])[c:5]([H:11])[c:6]([H:12])[n:7]1[H:13])([H:8])[H:9]>>[N:1]([C:2]1=[C:3]([O-:4])[C:5]([H:10])([H:11])[C+:6]([H:12])[N:7]1[H:13])([H:8])[H:9]"
N        1.94259108       0.79045912      -0.09025307
C        0.63140016       0.35869809      -0.13196386
C        0.13813404      -0.95041559      -0.24801643
O        0.80930277      -2.09279516      -0.08408413
C       -1.31328841      -0.85445815       0.00497893
C       -1.61219758       0.50628759      -0.05617041
N       -0.44331545       1.19593010      -0.15694509
H        2.56314100       0.17106208      -0.59479355
H        2.30196215       0.99663793       0.82903130
H       -0.09007448      -1.73004127       0.98350284
H       -2.01774573      -1.60980138      -0.31616673
H       -2.55742398       1.02168591      -0.00876993
H       -0.35248558       2.19675071      -0.13034988
13
Frame=10 idx=008470 GeodesicLength=1.174293888520956 rxn_smarts="[N:1]([c:2]1[c:3]([O:4][H:10])[c:5]([H:11])[c:6]([H:12])[n:7]1[H:13])([H:8])[H:9]>>[N:1]([C:2]1=[C:3]([O-:4])[C:5]([H:10])([H:11])[C+:6]([H:12])[N:7]1[H:13])([H:8])[H:9]"
N        1.94632476       0.81066003      -0.09269477
C        0.63754416       0.36204349      -0.13452189
C        0.14952156      -0.94727633      -0.25036854
O        0.80521303      -2.08467603      -0.03498438
C       -1.30270989      -0.85972281       0.01278355
C       -1.60668886       0.50543477      -0.04352844
N       -0.44336485       1.19432928      -0.15786733
H        2.56549506       0.22855758      -0.64168093
H        2.31833527       0.95195489       0.83421393
H       -0.15852224      -1.76737110       0.99297807
H       -2.00367375      -1.60679241      -0.33611694
H       -2.55447405       1.01722971      -0.00848953
H       -0.35300022       2.19562893      -0.13972280
13
Frame=11 idx=008470 GeodesicLength=1.2920802791130246 rxn_smarts="[N:1]([c:2]1[c:3]([O:4][H:10])[c:5]([H:11])[c:6]([H:12])[n:7]1[H:13])([H:8])[H:9]>>[N:1]([C:2]1=[C:3]([O-:4])[C:5]([H:10])([H:11])[C+:6]([H:12])[N:7]1[H:13])([H:8])[H:9]"
N        1.95020706       0.83102498      -0.09553653
C        0.64408492       0.36521476      -0.13599083
C        0.16166851      -0.94457156      -0.25060854
O        0.80036422      -2.07459685       0.02033576
C       -1.29195264      -0.86539283       0.01950573
C       -1.60066980       0.50436687      -0.02814522
N       -0.44306932       1.19240765      -0.15656000
H        2.56581662       0.28837187      -0.68754208
H        2.33770509       0.90804462       0.83301900
H       -0.23087941      -1.80875099       0.99934184
H       -1.98871034      -1.60244295      -0.35966779
H       -2.55113886       1.01217210      -0.00920402
H       -0.35342605       2.19415233      -0.14894731
13
Frame=12 idx=008470 GeodesicLength=1.4098762401259253 rxn_smarts="[N:1]([c:2]1[c:3]([O:4][H:10])[c:5]([H:11])[c:6]([H:12])[n:7]1[H:13])([H:8])[H:9]>>[N:1]([C:2]1=[C:3]([O-:4])[C:5]([H:10])([H:11])[C+:6]([H:12])[N:7]1[H:13])([H:8])[H:9]"
N        1.95428024       0.85153010      -0.09835464
C        0.65110213       0.36819432      -0.13759536
C        0.17468318      -0.94240122      -0.24933662
O        0.79423683      -2.06200710       0.08234775
C       -1.28084249      -0.87146448       0.02551993
C       -1.59391448       0.50305650      -0.00969205
N       -0.44238328       1.19008777      -0.15440104
H        2.56469074       0.35029087      -0.73113337
H        2.35890915       0.86522004       0.82641666
H       -0.30720096      -1.85481057       1.00088558
H       -1.97278983      -1.59639531      -0.38628344
H       -2.54694885       1.00650991      -0.00815753
H       -0.35382237       2.19218918      -0.16021586
13
Frame=13 idx=008470 GeodesicLength=1.5276390414220755 rxn_smarts="[N:1]([c:2]1[c:3]([O:4][H:10])[c:5]([H:11])[c:6]([H:12])[n:7]1[H:13])([H:8])[H:9]>>[N:1]([C:2]1=[C:3]([O-:4])[C:5]([H:10])([H:11])[C+:6]([H:12])[N:7]1[H:13])([H:8])[H:9]"
N        1.95862255       0.87216835      -0.10128167
C        0.65869899       0.37094157      -0.13995983
C        0.18881668      -0.94091483      -0.24649396
O        0.78614737      -2.04601995       0.15280755
C       -1.26921508      -0.87798588       0.03103913
C       -1.58620714       0.50142023       0.01214178
N       -0.44129154       1.18726753      -0.15214465
H        2.56252663       0.41390122      -0.77206180
H        2.38148758       0.82418729       0.81462701
H       -0.38796997      -1.90659645       0.99559610
H       -1.95557070      -1.58809793      -0.41626561
H       -2.54173389       1.00020538      -0.00334467
H       -0.35431147       2.18952347      -0.17465938
13
Frame=14 idx=008470 GeodesicLength=1.645250878754254 rxn_smarts="[N:1]([c:2]1[c:3]([O:4][H:10])[c:5]([H:11])[c:6]([H:12])[n:7]1[H:13])([H:8])[H:9]>>[N:1]([C:2]1=[C:3]([O-:4])[C:5]([H:10])([H:11])[C+:6]([H:12])[N:7]1[H:13])([H:8])[H:9]"
N        1.96329520       0.89294300      -0.10450337
C        0.66699391       0.37334890      -0.14427054
C        0.20439681      -0.94036992      -0.24190952
O        0.77484319      -2.02521813       0.23414320
C       -1.25690360      -0.88505570       0.03627637
C       -1.57713061       0.49928038       0.03755191
N       -0.43975480       1.18367970      -0.15133321
H        2.56012740       0.47849961      -0.80957435
H        2.40448780       0.78607758       0.79823141
H       -0.47347402      -1.96531890       0.98042233
H       -1.93674218      -1.57681399      -0.45000103
H       -2.53508756       0.99320944       0.00887799
H       -0.35505155       2.18573802      -0.19391120
13
Frame=15 idx=008470 GeodesicLength=1.7624757553763044 rxn_smarts="[N:1]([c:2]1[c:3]([O:4][H:10])[c:5]([H:11])[c:6]([H:12])[n:7]1[H:13])([H:8])[H:9]>>[N:1]([C:2]1=[C:3]([O-:4])[C:5]([H:10])([H:11])[C+:6]([H:12])[N:7]1[H:13])([H:8])[H:9]"
N        1.96804906       0.91373560      -0.10814912
C        0.67602345       0.37520968      -0.15249931
C        0.22172756      -0.94112188      -0.23549133
O        0.75804837      -1.99761371       0.32855999
C       -1.24359610      -0.89277521       0.04205463
C       -1.56595311       0.49652954       0.06669223
N       -0.43773900       1.17899828      -0.15396324
H        2.55853476       0.54307843      -0.84255730
H        2.42602968       0.75187381       0.77835336
H       -0.56252930      -2.03210180       0.95111406
H       -1.91600583      -1.56181132      -0.48660431
H       -2.52633997       0.98566845       0.03197165
H       -0.35624958       2.18033014      -0.21948129
13
Frame=16 idx=008470 GeodesicLength=1.8790663111518549 rxn_smarts="[N:1]([c:2]1[c:3]([O:4][H:10])[c:5]([H:11])[c:6]([H:12])[n:7]1[H:13])([H:8])[H:9]>>[N:1]([C:2]1=[C:3]([O-:4])[C:5]([H:10])([H:11])[C+:6]([H:12])[N:7]1[H:13])([H:8])[H:9]"
N        1.97261473       0.93417314      -0.11232587
C        0.68567501       0.37617512      -0.16527356
C        0.24103842      -0.94344720      -0.22649775
O        0.73199363      -1.96117344       0.43713449
C       -1.22921923      -0.90127891       0.04985133
C       -1.55227658       0.49312241       0.09899290
N       -0.43537324       1.17286809      -0.16046799
H        2.55802000       0.60704490      -0.87119116
H        2.44549543       0.72142487       0.75573323
H       -0.65145868      -2.10663074       0.90353130
H       -1.89318348      -1.54271877      -0.52394367
H       -2.51515299       0.97764254       0.06548540
H       -0.35817302       2.17279798      -0.25102867
