12
Frame=0 idx=001031 GeodesicLength=0.0 rxn_smarts="[O:1]([C:2]1([C:5](=[O:6])[H:12])[C:3]([H:8])([H:9])[C:4]1([H:10])[H:11])[H:7]>>[C-:5]#[O+:6].[H:8][H:12].[O:1]([C:2]1=[C:3]([H:9])[C:4]1([H:10])[H:11])[H:7]"
O        0.04615319       1.36764649      -1.39984187
C       -0.18168603       0.44953822      -0.43837169
C       -0.84818231      -0.71088042      -0.33775624
C       -1.02841995       0.29550710       0.76522695
C        1.69940986      -0.07941658       0.21107259
O        2.69531764       0.27499145      -0.20725339
H        0.43328708       2.15274116      -1.00428261
H        0.21011854      -1.70301940       0.21811337
H       -1.51014602      -1.30897109      -0.93997124
H       -0.52905201       0.12072049       1.72119674
H       -1.97935092       0.82060639       0.84148853
H        0.99255092      -1.67946380       0.57037891
12
Frame=1 idx=001031 GeodesicLength=0.06982006470063346 rxn_smarts="[O:1]([C:2]1([C:5](=[O:6])[H:12])[C:3]([H:8])([H:9])[C:4]1([H:10])[H:11])[H:7]>>[C-:5]#[O+:6].[H:8][H:12].[O:1]([C:2]1=[C:3]([H:9])[C:4]1([H:10])[H:11])[H:7]"
O        0.03911842       1.36100750      -1.39729655
C       -0.18052459       0.44339488      -0.43304318
C       -0.85752917      -0.71514297      -0.33392751
C       -1.03351085       0.29457642       0.76742261
C        1.71208752      -0.07742713       0.22522356
O        2.68826519       0.30685706      -0.21682076
H        0.46255846       2.13134847      -1.00947868
H        0.20752621      -1.71170064       0.21602066
H       -1.52715568      -1.29800269      -0.94259602
H       -0.54239892       0.11275964       1.72598797
H       -1.97850309       0.83065144       0.83842245
H        1.01006650      -1.67832197       0.56008545
12
Frame=2 idx=001031 GeodesicLength=0.13954414046441582 rxn_smarts="[O:1]([C:2]1([C:5](=[O:6])[H:12])[C:3]([H:8])([H:9])[C:4]1([H:10])[H:11])[H:7]>>[C-:5]#[O+:6].[H:8][H:12].[O:1]([C:2]1=[C:3]([H:9])[C:4]1([H:10])[H:11])[H:7]"
O        0.03241625       1.35430453      -1.39470191
C       -0.17923834       0.43711379      -0.42783365
C       -0.86704131      -0.71931346      -0.33013714
C       -1.03821004       0.29372347       0.76966689
C        1.72511118      -0.07564515       0.23890633
O        2.68083737       0.33876822      -0.22416434
H        0.49028148       2.10947713      -1.01571483
H        0.20475371      -1.72053628       0.21354923
H       -1.54436207      -1.28652342      -0.94508489
H       -0.55525707       0.10482020       1.73063960
H       -1.97697883       0.84089045       0.83570400
H        1.02768769      -1.67707949       0.54917070
12
Frame=3 idx=001031 GeodesicLength=0.20921298462669902 rxn_smarts="[O:1]([C:2]1([C:5](=[O:6])[H:12])[C:3]([H:8])([H:9])[C:4]1([H:10])[H:11])[H:7]>>[C-:5]#[O+:6].[H:8][H:12].[O:1]([C:2]1=[C:3]([H:9])[C:4]1([H:10])[H:11])[H:7]"
O        0.02602505       1.34753354      -1.39206054
C       -0.17784160       0.43069434      -0.42274005
C       -0.87670599      -0.72339887      -0.32638713
C       -1.04256269       0.29293717       0.77193946
C        1.73847364      -0.07402600       0.25215754
O        2.67306668       0.37062937      -0.22951770
H        0.51655309       2.08718745      -1.02284914
H        0.20179330      -1.72951606       0.21073924
H       -1.56170248      -1.27456915      -0.94744059
H       -0.56769545       0.09692368       1.73515241
H       -1.97483634       0.85128394       0.83327620
H        1.04543278      -1.67567941       0.53773031
12
Frame=4 idx=001031 GeodesicLength=0.2788733145694428 rxn_smarts="[O:1]([C:2]1([C:5](=[O:6])[H:12])[C:3]([H:8])([H:9])[C:4]1([H:10])[H:11])[H:7]>>[C-:5]#[O+:6].[H:8][H:12].[O:1]([C:2]1=[C:3]([H:9])[C:4]1([H:10])[H:11])[H:7]"
O        0.01994346       1.34069533      -1.38937510
C       -0.17634491       0.42413770      -0.41775894
C       -0.88651208      -0.72740586      -0.32268662
C       -1.04661040       0.29220794       0.77422451
C        1.75217018      -0.07252150       0.26501156
O        2.66497864       0.40232719      -0.23311252
H        0.54143557       2.06454108      -1.03074095
H        0.19864168      -1.73863723       0.20761804
H       -1.57912011      -1.26217299      -0.94967823
H       -0.57977525       0.08909060       1.73952986
H       -1.97213157       0.86179929       0.83109130
H        1.06332478      -1.67406154       0.52587710
12
Frame=5 idx=001031 GeodesicLength=0.3485576485067373 rxn_smarts="[O:1]([C:2]1([C:5](=[O:6])[H:12])[C:3]([H:8])([H:9])[C:4]1([H:10])[H:11])[H:7]>>[C-:5]#[O+:6].[H:8][H:12].[O:1]([C:2]1=[C:3]([H:9])[C:4]1([H:10])[H:11])[H:7]"
O        0.01415929       1.33379837      -1.38664025
C       -0.17476065       0.41744705      -0.41288495
C       -0.89644895      -0.73133799      -0.31904422
C       -1.05039053       0.29152404       0.77650606
C        1.76619604      -0.07108200       0.27749629
O        2.65659673       0.43375748      -0.23516745
H        0.56500209       2.04159155      -1.03926636
H        0.19528847      -1.74789700       0.20421177
H       -1.59656073      -1.24936333      -0.95181250
H       -0.59155098       0.08133146       1.74377206
H       -1.96891643       0.87240113       0.82910620
H        1.08138565      -1.67217075       0.51372333
12
Frame=6 idx=001031 GeodesicLength=0.418312816729576 rxn_smarts="[O:1]([C:2]1([C:5](=[O:6])[H:12])[C:3]([H:8])([H:9])[C:4]1([H:10])[H:11])[H:7]>>[C-:5]#[O+:6].[H:8][H:12].[O:1]([C:2]1=[C:3]([H:9])[C:4]1([H:10])[H:11])[H:7]"
O        0.00866509       1.32682502      -1.38387082
C       -0.17309725       0.41061034      -0.40812651
C       -0.90652658      -0.73519717      -0.31546312
C       -1.05391484       0.29087839       0.77877863
C        1.78054639      -0.06970742       0.28959351
O        2.64792926       0.46496540      -0.23573598
H        0.58732526       2.01835263      -1.04837582
H        0.19169863      -1.75731056       0.20050021
H       -1.61402132      -1.23615582      -0.95383180
H       -0.60304241       0.07364783       1.74788043
H       -1.96519462       0.88307954       0.82730884
H        1.09963240      -1.66998817       0.50134244
12
Frame=7 idx=001031 GeodesicLength=0.48810875193447834 rxn_smarts="[O:1]([C:2]1([C:5](=[O:6])[H:12])[C:3]([H:8])([H:9])[C:4]1([H:10])[H:11])[H:7]>>[C-:5]#[O+:6].[H:8][H:12].[O:1]([C:2]1=[C:3]([H:9])[C:4]1([H:10])[H:11])[H:7]"
O        0.00345437       1.31978521      -1.38105138
C       -0.17136331       0.40363104      -0.40347479
C       -0.91673672      -0.73898216      -0.31195196
C       -1.05721080       0.29026174       0.78103110
C        1.79522141      -0.06834994       0.30132679
O        2.63898250       0.49587300      -0.23499698
H        0.60846419       1.99485169      -1.05798049
H        0.18785941      -1.76688295       0.19650419
H       -1.63145739      -1.22256619      -0.95575313
H       -0.61429227       0.06604133       1.75185625
H       -1.96100417       0.89380704       0.82566636
H        1.11808277      -1.66746981       0.48882405
12
Frame=8 idx=001031 GeodesicLength=0.5579589293162972 rxn_smarts="[O:1]([C:2]1([C:5](=[O:6])[H:12])[C:3]([H:8])([H:9])[C:4]1([H:10])[H:11])[H:7]>>[C-:5]#[O+:6].[H:8][H:12].[O:1]([C:2]1=[C:3]([H:9])[C:4]1([H:10])[H:11])[H:7]"
O       -0.00148538       1.31267307      -1.37819131
C       -0.16956850       0.39650101      -0.39893463
C       -0.92708897      -0.74269289      -0.30851385
C       -1.06028767       0.28966656       0.78325919
C        1.81021989      -0.06699471       0.31268356
O        2.62973812       0.52651307      -0.23299951
H        0.62850354       1.97108561      -1.06804235
H        0.18373303      -1.77662956       0.19221130
H       -1.64886288      -1.20860709      -0.95756999
H       -0.62531482       0.05851008       1.75569963
H       -1.95634877       0.90457151       0.82417155
H        1.13676242      -1.66459665       0.47622641
12
Frame=9 idx=001031 GeodesicLength=0.627827906865818 rxn_smarts="[O:1]([C:2]1([C:5](=[O:6])[H:12])[C:3]([H:8])([H:9])[C:4]1([H:10])[H:11])[H:7]>>[C-:5]#[O+:6].[H:8][H:12].[O:1]([C:2]1=[C:3]([H:9])[C:4]1([H:10])[H:11])[H:7]"
O       -0.00615423       1.30547690      -1.37533813
C       -0.16771265       0.38921492      -0.39449725
C       -0.93759138      -0.74632119      -0.30514982
C       -1.06315576       0.28908807       0.78547196
C        1.82553769      -0.06562446       0.32369008
O        2.62016907       0.55694021      -0.22980445
H        0.64753038       1.94703166      -1.07852901
H        0.17929241      -1.78656066       0.18759548
H       -1.66623418      -1.19429229      -0.95928162
H       -0.63612373       0.05104902       1.75942133
H       -1.95123973       0.91536461       0.82283405
H        1.15568210      -1.66136680       0.46358740
12
Frame=10 idx=001031 GeodesicLength=0.6977539701112628 rxn_smarts="[O:1]([C:2]1([C:5](=[O:6])[H:12])[C:3]([H:8])([H:9])[C:4]1([H:10])[H:11])[H:7]>>[C-:5]#[O+:6].[H:8][H:12].[O:1]([C:2]1=[C:3]([H:9])[C:4]1([H:10])[H:11])[H:7]"
O       -0.01058462       1.29822373      -1.37242338
C       -0.16580982       0.38177751      -0.39015936
C       -0.94823961      -0.74986519      -0.30187856
C       -1.06583981       0.28851252       0.78764738
C        1.84118458      -0.06416220       0.33434993
O        2.61031096       0.58703632      -0.22561514
H        0.66559406       1.92272362      -1.08935473
H        0.17449853      -1.79669725       0.18268666
H       -1.68353079      -1.17961993      -0.96092192
H       -0.64676380       0.04363957       1.76301385
H       -1.94571056       0.92615775       0.82161125
H        1.17489088      -1.65772645       0.45104402
12
Frame=11 idx=001031 GeodesicLength=0.7677522639050769 rxn_smarts="[O:1]([C:2]1([C:5](=[O:6])[H:12])[C:3]([H:8])([H:9])[C:4]1([H:10])[H:11])[H:7]>>[C-:5]#[O+:6].[H:8][H:12].[O:1]([C:2]1=[C:3]([H:9])[C:4]1([H:10])[H:11])[H:7]"
O       -0.01479365       1.29088476      -1.36949550
C       -0.16386582       0.37416583      -0.38594190
C       -0.95905907      -0.75332380      -0.29869377
C       -1.06832429       0.28793768       0.78979059
C        1.85715852      -0.06263041       0.34462347
O        2.60007832       0.61694747      -0.22031940
H        0.68281221       1.89811599      -1.10054476
H        0.16928719      -1.80705896       0.17744088
H       -1.70078752      -1.16459876      -0.96245218
H       -0.65721911       0.03627936       1.76647480
H       -1.93972238       0.93695810       0.82052833
H        1.19443560      -1.65367727       0.43858944
12
Frame=12 idx=001031 GeodesicLength=0.8377715570795852 rxn_smarts="[O:1]([C:2]1([C:5](=[O:6])[H:12])[C:3]([H:8])([H:9])[C:4]1([H:10])[H:11])[H:7]>>[C-:5]#[O+:6].[H:8][H:12].[O:1]([C:2]1=[C:3]([H:9])[C:4]1([H:10])[H:11])[H:7]"
O       -0.01878147       1.28346931      -1.36652085
C       -0.16188378       0.36638194      -0.38182883
C       -0.97005257      -0.75668830      -0.29561209
C       -1.07062961       0.28735608       0.79189998
C        1.87346214      -0.06095043       0.35455560
O        2.58949254       0.64662412      -0.21407742
H        0.69922871       1.87319608      -1.11205875
H        0.16362957      -1.81766944       0.17186685
H       -1.71798512      -1.14922281      -0.96390442
H       -0.66752292       0.02894586       1.76981248
H       -1.93330673       0.94775523       0.81957259
H        1.21434922      -1.64919764       0.42629487
12
Frame=13 idx=001031 GeodesicLength=0.9077929863333766 rxn_smarts="[O:1]([C:2]1([C:5](=[O:6])[H:12])[C:3]([H:8])([H:9])[C:4]1([H:10])[H:11])[H:7]>>[C-:5]#[O+:6].[H:8][H:12].[O:1]([C:2]1=[C:3]([H:9])[C:4]1([H:10])[H:11])[H:7]"
O       -0.02256256       1.27595318      -1.36353111
C       -0.15986898       0.35840350      -0.37783343
C       -0.98124574      -0.75995348      -0.29262554
C       -1.07273995       0.28676692       0.79398045
C        1.89009824      -0.05912048       0.36412593
O        2.57848010       0.67620457      -0.20677748
H        0.71494244       1.84788832      -1.12394026
H        0.15745715      -1.82855450       0.16594101
H       -1.73515622      -1.13348833      -0.96524831
H       -0.67766195       0.02163146       1.77302730
H       -1.92642477       0.95856114       0.81876247
H        1.23468225      -1.64429230       0.41411898
12
Frame=14 idx=001031 GeodesicLength=0.9778093679149579 rxn_smarts="[O:1]([C:2]1([C:5](=[O:6])[H:12])[C:3]([H:8])([H:9])[C:4]1([H:10])[H:11])[H:7]>>[C-:5]#[O+:6].[H:8][H:12].[O:1]([C:2]1=[C:3]([H:9])[C:4]1([H:10])[H:11])[H:7]"
O       -0.02614493       1.26831499      -1.36054003
C       -0.15782741       0.35020956      -0.37396353
C       -0.99266522      -0.76311189      -0.28973091
C       -1.07464254       0.28616866       0.79603890
C        1.90707329      -0.05711174       0.37332986
O        2.56696484       0.70581716      -0.19832227
H        0.73005473       1.82208830      -1.13624759
H        0.15069752      -1.83974668       0.15964389
H       -1.75233538      -1.11737911      -0.96646351
H       -0.68762464       0.01432016       1.77612238
H       -1.91904364       0.96938737       0.81811843
H        1.25549338      -1.63895679       0.40201438
12
Frame=15 idx=001031 GeodesicLength=1.0477943819892828 rxn_smarts="[O:1]([C:2]1([C:5](=[O:6])[H:12])[C:3]([H:8])([H:9])[C:4]1([H:10])[H:11])[H:7]>>[C-:5]#[O+:6].[H:8][H:12].[O:1]([C:2]1=[C:3]([H:9])[C:4]1([H:10])[H:11])[H:7]"
O       -0.02953633       1.26052978      -1.35757238
C       -0.15576454       0.34177495      -0.37023100
C       -1.00434548      -0.76615311      -0.28691857
C       -1.07631427       0.28556460       0.79808724
C        1.92439453      -0.05490445       0.38215516
O        2.55484540       0.73564121      -0.18852132
H        0.74467275       1.79564794      -1.14908927
H        0.14327224      -1.85128102       0.15295204
H       -1.76956963      -1.10087841      -0.96751797
H       -0.69738347       0.00699881       1.77910347
H       -1.91111717       0.98025884       0.81767307
H        1.27684596      -1.63319914       0.38987952
12
Frame=16 idx=001031 GeodesicLength=1.1177061175531346 rxn_smarts="[O:1]([C:2]1([C:5](=[O:6])[H:12])[C:3]([H:8])([H:9])[C:4]1([H:10])[H:11])[H:7]>>[C-:5]#[O+:6].[H:8][H:12].[O:1]([C:2]1=[C:3]([H:9])[C:4]1([H:10])[H:11])[H:7]"
O       -0.03273136       1.25261073      -1.35459701
C       -0.15368809       0.33309171      -0.36662537
C       -1.01630351      -0.76906307      -0.28419486
C       -1.07775966       0.28494496       0.80013394
C        1.94206745      -0.05240163       0.39064958
O        2.54205901       0.76568616      -0.17741390
H        0.75888725       1.76843973      -1.16250489
H        0.13512832      -1.86317987       0.14584991
H       -1.78686441      -1.08395550      -0.96842329
H       -0.70695518      -0.00036492       1.78197956
H       -1.90264128       0.99116601       0.81744048
H        1.29880145      -1.62697432       0.37770586
