14
Frame=0 idx=007904 GeodesicLength=0.0 rxn_smarts="[C:1](/[C:2](=[N:3]\[O:4][H:11])[C@@:5]1([H:12])[C:6]([H:13])([H:14])[O:7]1)([H:8])([H:9])[H:10]>>[C:1](/[C:2](=[N:3]\[O:4][H:11])[C:6]([C:5](=[O:7])[H:12])([H:13])[H:14])([H:8])([H:9])[H:10]"
C       -0.99855629      -1.22761452       0.16394620
C       -0.31989303       0.06962747      -0.06895644
N       -0.71639835       1.22802910       0.22291674
O       -1.99589256       1.26254632       0.74319933
C        1.06414613       0.01170771      -0.95537329
C        1.91481334       0.50855774       0.12844586
O        1.41751541      -1.21857202      -1.16029082
H       -1.66783301      -1.15417879       1.01944793
H       -1.58156097      -1.49946486      -0.71919054
H       -0.24463124      -1.99946049       0.30337605
H       -2.13623343       2.19635380       0.91621151
H        0.87321365       0.70328025      -1.79642250
H        2.83462234      -0.04503121       0.28927236
H        1.55668796       1.16421947       0.91341758
14
Frame=1 idx=007904 GeodesicLength=0.07282738791871682 rxn_smarts="[C:1](/[C:2](=[N:3]\[O:4][H:11])[C@@:5]1([H:12])[C:6]([H:13])([H:14])[O:7]1)([H:8])([H:9])[H:10]>>[C:1](/[C:2](=[N:3]\[O:4][H:11])[C:6]([C:5](=[O:7])[H:12])([H:13])[H:14])([H:8])([H:9])[H:10]"
C       -1.00251105      -1.22344290       0.16357015
C       -0.31443220       0.07188185      -0.05668530
N       -0.71820240       1.22991536       0.22933236
O       -1.99546631       1.26022079       0.75485132
C        1.06399107       0.00960137      -0.97231365
C        1.90049449       0.49012804       0.12751661
O        1.44583157      -1.21505350      -1.15612251
H       -1.69613180      -1.15827208       1.00011891
H       -1.56555346      -1.49852755      -0.73124304
H       -0.25405478      -1.99559852       0.32929703
H       -2.13394534       2.19205854       0.93939785
H        0.87665844       0.69796711      -1.81506388
H        2.82904502      -0.04504808       0.29896711
H        1.56427678       1.18416957       0.88837705
14
Frame=2 idx=007904 GeodesicLength=0.1456659501532012 rxn_smarts="[C:1](/[C:2](=[N:3]\[O:4][H:11])[C@@:5]1([H:12])[C:6]([H:13])([H:14])[O:7]1)([H:8])([H:9])[H:10]>>[C:1](/[C:2](=[N:3]\[O:4][H:11])[C:6]([C:5](=[O:7])[H:12])([H:13])[H:14])([H:8])([H:9])[H:10]"
C       -1.00687835      -1.21923879       0.16300025
C       -0.30941087       0.07397028      -0.04500003
N       -0.72008863       1.23162350       0.23554036
O       -1.99460102       1.25788674       0.76744129
C        1.06406613       0.00680151      -0.98858011
C        1.88566499       0.47222603       0.12696056
O        1.47468084      -1.21109328      -1.15175416
H       -1.72455770      -1.16199704       0.97958822
H       -1.54947866      -1.49803079      -0.74303694
H       -0.26485845      -1.99158699       0.35549335
H       -2.13098303       2.18769119       0.96327151
H        0.88101491       0.69169626      -1.83346462
H        2.82361218      -0.04276198       0.30812020
H        1.57181767       1.20281336       0.86242013
14
Frame=3 idx=007904 GeodesicLength=0.21851754120002648 rxn_smarts="[C:1](/[C:2](=[N:3]\[O:4][H:11])[C@@:5]1([H:12])[C:6]([H:13])([H:14])[O:7]1)([H:8])([H:9])[H:10]>>[C:1](/[C:2](=[N:3]\[O:4][H:11])[C:6]([C:5](=[O:7])[H:12])([H:13])[H:14])([H:8])([H:9])[H:10]"
C       -1.01161099      -1.21498974       0.16226068
C       -0.30484529       0.07592817      -0.03397422
N       -0.72209406       1.23319402       0.24145290
O       -1.99326366       1.25553384       0.78101033
C        1.06439361       0.00336366      -1.00428853
C        1.87039275       0.45492419       0.12663582
O        1.50408846      -1.20661876      -1.14723315
H       -1.75305491      -1.16529215       0.95784657
H       -1.53324219      -1.49809382      -0.75451334
H       -0.27699444      -1.98731734       0.38206811
H       -2.12729687       2.18324655       0.98789310
H        0.88626108       0.68450874      -1.85172093
H        2.81811514      -0.03834191       0.31685458
H        1.57915136       1.21995455       0.83570807
14
Frame=4 idx=007904 GeodesicLength=0.2913862331615997 rxn_smarts="[C:1](/[C:2](=[N:3]\[O:4][H:11])[C@@:5]1([H:12])[C:6]([H:13])([H:14])[O:7]1)([H:8])([H:9])[H:10]>>[C:1](/[C:2](=[N:3]\[O:4][H:11])[C:6]([C:5](=[O:7])[H:12])([H:13])[H:14])([H:8])([H:9])[H:10]"
C       -1.01665055      -1.21069205       0.16139056
C       -0.30070745       0.07778286      -0.02357870
N       -0.72420554       1.23464508       0.24714578
O       -1.99135167       1.25310703       0.79578877
C        1.06496946      -0.00062871      -1.01954242
C        1.85478627       0.43826354       0.12638553
O        1.53404161      -1.20151585      -1.14267873
H       -1.78153991      -1.16815050       0.93491179
H       -1.51675999      -1.49876580      -0.76560275
H       -0.29042217      -1.98271121       0.40907150
H       -2.12304044       2.17877952       1.01289487
H        0.89230212       0.67651552      -1.86987188
H        2.81235933      -0.03207201       0.32526664
H        1.58621892       1.23544257       0.80841902
14
Frame=5 idx=007904 GeodesicLength=0.3642736467418508 rxn_smarts="[C:1](/[C:2](=[N:3]\[O:4][H:11])[C@@:5]1([H:12])[C:6]([H:13])([H:14])[O:7]1)([H:8])([H:9])[H:10]>>[C:1](/[C:2](=[N:3]\[O:4][H:11])[C:6]([C:5](=[O:7])[H:12])([H:13])[H:14])([H:8])([H:9])[H:10]"
C       -1.02194300      -1.20633335       0.16039550
C       -0.29699707       0.07957158      -0.01391569
N       -0.72649717       1.23601831       0.25241795
O       -1.98883877       1.25058935       0.81172697
C        1.06581719      -0.00514099      -1.03448448
C        1.83890213       0.42236517       0.12601832
O        1.56459247      -1.19571416      -1.13811504
H       -1.80995160      -1.17050043       0.91074368
H       -1.49991569      -1.50018676      -0.77625232
H       -0.30510132      -1.97763985       0.43661123
H       -2.11802277       2.17422952       1.03861081
H        0.89910406       0.66769802      -1.88806958
H        2.80602816      -0.02424638       0.33365611
H        1.59282337       1.24929000       0.78065652
14
Frame=6 idx=007904 GeodesicLength=0.4371830914187261 rxn_smarts="[C:1](/[C:2](=[N:3]\[O:4][H:11])[C@@:5]1([H:12])[C:6]([H:13])([H:14])[O:7]1)([H:8])([H:9])[H:10]>>[C:1](/[C:2](=[N:3]\[O:4][H:11])[C:6]([C:5](=[O:7])[H:12])([H:13])[H:14])([H:8])([H:9])[H:10]"
C       -1.02742667      -1.20191182       0.15931000
C       -0.29366703       0.08131927      -0.00495200
N       -0.72896624       1.23732379       0.25732184
O       -1.98563856       1.24791457       0.82896260
C        1.06692591      -0.01010062      -1.04922635
C        1.82284106       0.40727881       0.12536254
O        1.59573472      -1.18909076      -1.13366331
H       -1.83819161      -1.17233238       0.88535659
H       -1.48262592      -1.50240015      -0.78638274
H       -0.32100655      -1.97202048       0.46472645
H       -2.11234718       2.16961777       1.06478720
H        0.90655117       0.65814887      -1.90636740
H        2.79890415      -0.01525045       0.34220494
H        1.59891275       1.26150358       0.75255965
14
Frame=7 idx=007904 GeodesicLength=0.5101173558859071 rxn_smarts="[C:1](/[C:2](=[N:3]\[O:4][H:11])[C@@:5]1([H:12])[C:6]([H:13])([H:14])[O:7]1)([H:8])([H:9])[H:10]>>[C:1](/[C:2](=[N:3]\[O:4][H:11])[C:6]([C:5](=[O:7])[H:12])([H:13])[H:14])([H:8])([H:9])[H:10]"
C       -1.03305510      -1.19742396       0.15814879
C       -0.29068398       0.08304957       0.00329842
N       -0.73164526       1.23857637       0.26180706
O       -1.98169962       1.24503310       0.84750067
C        1.06829593      -0.01546872      -1.06388106
C        1.80667062       0.39306923       0.12425920
O        1.62749060      -1.18154793      -1.12938705
H       -1.86618331      -1.17360973       0.85873287
H       -1.46480664      -1.50547863      -0.79592678
H       -0.33813841      -1.96575593       0.49347117
H       -2.10597041       2.16490826       1.09146664
H        0.91455725       0.64789543      -1.92485293
H        2.79077702      -0.00542752       0.35113577
H        1.60439131       1.27218047       0.72422726
14
Frame=8 idx=007904 GeodesicLength=0.5830787575458428 rxn_smarts="[C:1](/[C:2](=[N:3]\[O:4][H:11])[C@@:5]1([H:12])[C:6]([H:13])([H:14])[O:7]1)([H:8])([H:9])[H:10]>>[C:1](/[C:2](=[N:3]\[O:4][H:11])[C:6]([C:5](=[O:7])[H:12])([H:13])[H:14])([H:8])([H:9])[H:10]"
C       -1.03878182      -1.19287159       0.15696170
C       -0.28797357       0.08476806       0.01094396
N       -0.73448101       1.23975835       0.26606146
O       -1.97700122       1.24187252       0.86731661
C        1.06990201      -0.02118133      -1.07851705
C        1.79049458       0.37971619       0.12259248
O        1.65983386      -1.17295281      -1.12542125
H       -1.89381837      -1.17432750       0.83092202
H       -1.44642384      -1.50939650      -0.80478153
H       -0.35652363      -1.95879925       0.52284019
H       -2.09908857       2.16010957       1.11830605
H        0.92297969       0.63705722      -1.94351115
H        2.78157980       0.00487234       0.36050134
H        1.60930210       1.28137474       0.69578518
14
Frame=9 idx=007904 GeodesicLength=0.6560588315731434 rxn_smarts="[C:1](/[C:2](=[N:3]\[O:4][H:11])[C@@:5]1([H:12])[C:6]([H:13])([H:14])[O:7]1)([H:8])([H:9])[H:10]>>[C:1](/[C:2](=[N:3]\[O:4][H:11])[C:6]([C:5](=[O:7])[H:12])([H:13])[H:14])([H:8])([H:9])[H:10]"
C       -1.04455832      -1.18825127       0.15581836
C       -0.28545454       0.08648116       0.01810560
N       -0.73739097       1.24086064       0.27031110
O       -1.97165580       1.23839453       0.88810151
C        1.07171616      -0.02717903      -1.09319236
C        1.77441854       0.36716182       0.12027390
O        1.69272720      -1.16318193      -1.12191647
H       -1.92096638      -1.17445994       0.80202111
H       -1.42747278      -1.51411239      -0.81281749
H       -0.37618681      -1.95110943       0.55282711
H       -2.09188370       2.15517194       1.14510591
H        0.93167484       0.62576825      -1.96231204
H        2.77130919       0.01531802       0.37030919
H        1.61372337       1.28913763       0.66736457
14
Frame=10 idx=007904 GeodesicLength=0.7290536188419291 rxn_smarts="[C:1](/[C:2](=[N:3]\[O:4][H:11])[C@@:5]1([H:12])[C:6]([H:13])([H:14])[O:7]1)([H:8])([H:9])[H:10]>>[C:1](/[C:2](=[N:3]\[O:4][H:11])[C:6]([C:5](=[O:7])[H:12])([H:13])[H:14])([H:8])([H:9])[H:10]"
C       -1.05032788      -1.18355513       0.15483182
C       -0.28300874       0.08818200       0.02500077
N       -0.74020226       1.24185938       0.27495433
O       -1.96591504       1.23458337       0.90932738
C        1.07369435      -0.03338441      -1.10793028
C        1.75858209       0.35527554       0.11724831
O        1.72610404      -1.15209232      -1.11908502
H       -1.94745703      -1.17399498       0.77222569
H       -1.40800322      -1.51949354      -0.81986445
H       -0.39715571      -1.94269222       0.58337901
H       -2.08469239       2.15004069       1.17151523
H        0.94046280       0.61423090      -1.98115366
H        2.76007761       0.02558862       0.38042616
H        1.61784137       1.29545210       0.63912471
14
Frame=11 idx=007904 GeodesicLength=0.8020395640065314 rxn_smarts="[C:1](/[C:2](=[N:3]\[O:4][H:11])[C@@:5]1([H:12])[C:6]([H:13])([H:14])[O:7]1)([H:8])([H:9])[H:10]>>[C:1](/[C:2](=[N:3]\[O:4][H:11])[C:6]([C:5](=[O:7])[H:12])([H:13])[H:14])([H:8])([H:9])[H:10]"
C       -1.05601569      -1.17877781       0.15414659
C       -0.28049849       0.08986354       0.03189473
N       -0.74267691       1.24275046       0.28048345
O       -1.96012748       1.23045730       0.93036573
C        1.07577332      -0.03969983      -1.12274808
C        1.74314760       0.34386944       0.11349028
O        1.75986450      -1.13954684      -1.11721502
H       -1.97308710      -1.17294086       0.74180786
H       -1.38809514      -1.52538012      -0.82573867
H       -0.41941497      -1.93358709       0.61443115
H       -2.07798648       2.14469404       1.19705806
H        0.94912940       0.60271852      -1.99990793
H        2.74807689       0.03533427       0.39065384
H        1.62191053       1.30024498       0.61127803
14
Frame=12 idx=007904 GeodesicLength=0.8750243841415823 rxn_smarts="[C:1](/[C:2](=[N:3]\[O:4][H:11])[C@@:5]1([H:12])[C:6]([H:13])([H:14])[O:7]1)([H:8])([H:9])[H:10]>>[C:1](/[C:2](=[N:3]\[O:4][H:11])[C:6]([C:5](=[O:7])[H:12])([H:13])[H:14])([H:8])([H:9])[H:10]"
C       -1.06160972      -1.17394162       0.15380005
C       -0.27783737       0.09149900       0.03895808
N       -0.74469085       1.24355384       0.28709101
O       -1.95454452       1.22609297       0.95080897
C        1.07793282      -0.04614125      -1.13764925
C        1.72818539       0.33284312       0.10903731
O        1.79403730      -1.12549523      -1.11638363
H       -1.99777011      -1.17132449       0.71088625
H       -1.36780253      -1.53169052      -0.83041499
H       -0.44305841      -1.92388037       0.64591682
H       -2.07189329       2.13909879       1.22176271
H        0.95754441       0.59127410      -2.01856237
H        2.73545073       0.04444932       0.40091921
H        1.62605616       1.30366234       0.58382984
14
Frame=13 idx=007904 GeodesicLength=0.9480355797060824 rxn_smarts="[C:1](/[C:2](=[N:3]\[O:4][H:11])[C@@:5]1([H:12])[C:6]([H:13])([H:14])[O:7]1)([H:8])([H:9])[H:10]>>[C:1](/[C:2](=[N:3]\[O:4][H:11])[C:6]([C:5](=[O:7])[H:12])([H:13])[H:14])([H:8])([H:9])[H:10]"
C       -1.06711284      -1.16896112       0.15381216
C       -0.27503874       0.09308381       0.04609576
N       -0.74624012       1.24419288       0.29456315
O       -1.94944084       1.22146353       0.97003781
C        1.08020408      -0.05274190      -1.15262588
C        1.71366873       0.32214767       0.10382467
O        1.82862179      -1.10979678      -1.11649054
H       -2.02153222      -1.16902357       0.67936522
H       -1.34704920      -1.53848659      -0.83371118
H       -0.46815982      -1.91325192       0.67791179
H       -2.06600056       2.13292569       1.24632055
H        0.96573906       0.57980438      -2.03705010
H        2.72217593       0.05292901       0.41117574
H        1.63016474       1.30571493       0.55677087
14
Frame=14 idx=007904 GeodesicLength=1.0210971091544774 rxn_smarts="[C:1](/[C:2](=[N:3]\[O:4][H:11])[C@@:5]1([H:12])[C:6]([H:13])([H:14])[O:7]1)([H:8])([H:9])[H:10]>>[C:1](/[C:2](=[N:3]\[O:4][H:11])[C:6]([C:5](=[O:7])[H:12])([H:13])[H:14])([H:8])([H:9])[H:10]"
C       -1.07263855      -1.16392950       0.15396435
C       -0.27222076       0.09461643       0.05305128
N       -0.74760950       1.24479912       0.30222893
O       -1.94476889       1.21674760       0.98811540
C        1.08268632      -0.05976799      -1.16774028
C        1.69941404       0.31196387       0.09794806
O        1.86387363      -1.09258176      -1.11711246
H       -2.04459630      -1.16604671       0.64675473
H       -1.32563953      -1.54615991      -0.83586787
H       -0.49505674      -1.90165106       0.71057007
H       -2.05927156       2.12601120       1.27226200
H        0.97382447       0.56781696      -2.05571726
H        2.70809846       0.06117943       0.42176438
H        1.63390490       1.30700232       0.52977867
14
Frame=15 idx=007904 GeodesicLength=1.0942774937021413 rxn_smarts="[C:1](/[C:2](=[N:3]\[O:4][H:11])[C@@:5]1([H:12])[C:6]([H:13])([H:14])[O:7]1)([H:8])([H:9])[H:10]>>[C:1](/[C:2](=[N:3]\[O:4][H:11])[C:6]([C:5](=[O:7])[H:12])([H:13])[H:14])([H:8])([H:9])[H:10]"
C       -1.07826769      -1.15882806       0.15414349
C       -0.26943554       0.09607211       0.05971626
N       -0.74892164       1.24532930       0.30978438
O       -1.94039559       1.21189297       1.00524529
C        1.08544667      -0.06737088      -1.18295793
C        1.68533590       0.30232672       0.09143195
O        1.89990802      -1.07374385      -1.11799953
H       -2.06707960      -1.16232563       0.61268144
H       -1.30343242      -1.55486746      -0.83686035
H       -0.52407971      -1.88884071       0.74392178
H       -2.05120737       2.11814556       1.30013063
H        0.98183298       0.55500874      -2.07459618
H        2.69317156       0.06946610       0.43270053
H        1.63712442       1.30773508       0.50265825
14
Frame=16 idx=007904 GeodesicLength=1.1675393790859636 rxn_smarts="[C:1](/[C:2](=[N:3]\[O:4][H:11])[C@@:5]1([H:12])[C:6]([H:13])([H:14])[O:7]1)([H:8])([H:9])[H:10]>>[C:1](/[C:2](=[N:3]\[O:4][H:11])[C:6]([C:5](=[O:7])[H:12])([H:13])[H:14])([H:8])([H:9])[H:10]"
C       -1.08385174      -1.15366317       0.15461214
C       -0.26644411       0.09740293       0.06659566
N       -0.74970661       1.24573405       0.31817574
O       -1.93655851       1.20689887       1.02121096
C        1.08836024      -0.07533657      -1.19825349
C        1.67170089       0.29286322       0.08430111
O        1.93647165      -1.05301261      -1.11974887
H       -2.08859540      -1.15797656       0.57769606
H       -1.28063831      -1.56424204      -0.83639402
H       -0.55509890      -1.87498972       0.77768671
H       -2.04310817       2.10962038       1.32811969
H        0.98937429       0.54196339      -2.09338045
H        2.67777288       0.07725256       0.44351856
H        1.64032179       1.30748526       0.47586020
