11
Frame=0 idx=010774 GeodesicLength=0.0 rxn_smarts="[O:1]=[C:2]([C:3]1([C:6](=[O:7])[H:11])[C:4]([H:9])([H:10])[O:5]1)[H:8]>>[O:1]1[C@:2]2([H:8])[C@@:3]3([C:4]([H:9])([H:10])[O:5]2)[C@:6]1([H:11])[O:7]3"
O       -0.47895159       1.30290599      -1.30028629
C       -0.81868936       0.89504245      -0.13142346
C        0.32509724       0.09185172       0.26432001
C       -0.19600437      -1.11414016       0.92544782
O       -1.29777957      -0.81748533       0.08667410
C        1.04722305       0.37609902      -0.94083424
O        1.78410074       1.02451673      -0.13108398
H       -1.59319559       1.38441662       0.44974032
H        0.30423692      -2.05079979       0.67813844
H       -0.39977118      -1.03217884       1.99499624
H        1.32373372      -0.06022839      -1.89568892
11
Frame=1 idx=010774 GeodesicLength=0.05921954500692815 rxn_smarts="[O:1]=[C:2]([C:3]1([C:6](=[O:7])[H:11])[C:4]([H:9])([H:10])[O:5]1)[H:8]>>[O:1]1[C@:2]2([H:8])[C@@:3]3([C:4]([H:9])([H:10])[O:5]2)[C@:6]1([H:11])[O:7]3"
O       -0.50792146       1.29915698      -1.30439186
C       -0.82426470       0.89795217      -0.12565698
C        0.32199838       0.08992816       0.25877492
C       -0.19329086      -1.11693525       0.92231520
O       -1.27943611      -0.82810548       0.06072411
C        1.04399618       0.38071924      -0.94533030
O        1.77849693       1.02988899      -0.13091650
H       -1.56806169       1.40798804       0.47779147
H        0.31964279      -2.04919630       0.68504545
H       -0.42393797      -1.02885364       1.98570240
H        1.33277851      -0.08254291      -1.88405791
11
Frame=2 idx=010774 GeodesicLength=0.11830044473873164 rxn_smarts="[O:1]=[C:2]([C:3]1([C:6](=[O:7])[H:11])[C:4]([H:9])([H:10])[O:5]1)[H:8]>>[O:1]1[C@:2]2([H:8])[C@@:3]3([C:4]([H:9])([H:10])[O:5]2)[C@:6]1([H:11])[O:7]3"
O       -0.53787551       1.29491396      -1.30807864
C       -0.83039329       0.90026032      -0.11997357
C        0.31866484       0.08802833       0.25319798
C       -0.19061063      -1.11974102       0.91914699
O       -1.26093286      -0.83852001       0.03552924
C        1.04036828       0.38539154      -0.94989212
O        1.77230382       1.03540201      -0.13079750
H       -1.54081928       1.43242594       0.50451474
H        0.33479199      -2.04732256       0.69175669
H       -0.44767859      -1.02635550       1.97574754
H        1.34218124      -0.10448301      -1.87115135
11
Frame=3 idx=010774 GeodesicLength=0.17738553591885492 rxn_smarts="[O:1]=[C:2]([C:3]1([C:6](=[O:7])[H:11])[C:4]([H:9])([H:10])[O:5]1)[H:8]>>[O:1]1[C@:2]2([H:8])[C@@:3]3([C:4]([H:9])([H:10])[O:5]2)[C@:6]1([H:11])[O:7]3"
O       -0.56886860       1.29012922      -1.31126369
C       -0.83714379       0.90203365      -0.11419282
C        0.31513262       0.08617959       0.24761289
C       -0.18803091      -1.12258870       0.91597689
O       -1.24244690      -0.84887516       0.01107142
C        1.03645205       0.39008801      -0.95462018
O        1.76574737       1.04117135      -0.13081614
H       -1.51154222       1.45777717       0.52989498
H        0.34971213      -2.04526602       0.69825176
H       -0.47115786      -1.02466742       1.96527538
H        1.35214611      -0.12598169      -1.85719049
11
Frame=4 idx=010774 GeodesicLength=0.236539777148073 rxn_smarts="[O:1]=[C:2]([C:3]1([C:6](=[O:7])[H:11])[C:4]([H:9])([H:10])[O:5]1)[H:8]>>[O:1]1[C@:2]2([H:8])[C@@:3]3([C:4]([H:9])([H:10])[O:5]2)[C@:6]1([H:11])[O:7]3"
O       -0.60095315       1.28481647      -1.31383043
C       -0.84446029       0.90335184      -0.10823734
C        0.31141135       0.08435029       0.24204719
C       -0.18550041      -1.12547985       0.91278217
O       -1.22388381      -0.85907883      -0.01273330
C        1.03215682       0.39474255      -0.95943573
O        1.75874403       1.04705453      -0.13094112
H       -1.48013998       1.48402283       0.55361039
H        0.36446161      -2.04302375       0.70458097
H       -0.49432929      -1.02382831       1.95422361
H        1.36249315      -0.14692776      -1.84206641
11
Frame=5 idx=010774 GeodesicLength=0.29552991917260374 rxn_smarts="[O:1]=[C:2]([C:3]1([C:6](=[O:7])[H:11])[C:4]([H:9])([H:10])[O:5]1)[H:8]>>[O:1]1[C@:2]2([H:8])[C@@:3]3([C:4]([H:9])([H:10])[O:5]2)[C@:6]1([H:11])[O:7]3"
O       -0.63399388       1.27894640      -1.31569260
C       -0.85221782       0.90422113      -0.10197341
C        0.30751383       0.08253407       0.23654398
C       -0.18307340      -1.12841648       0.90961816
O       -1.20524945      -0.86911638      -0.03582207
C        1.02751320       0.39935338      -0.96435266
O        1.75133424       1.05301853      -0.13122709
H       -1.44665114       1.51096116       0.57537796
H        0.37891803      -2.04056744       0.71076530
H       -0.51722825      -1.02387653       1.94270333
H        1.37313464      -0.16705783      -1.82594089
11
Frame=6 idx=010774 GeodesicLength=0.3545569924105993 rxn_smarts="[O:1]=[C:2]([C:3]1([C:6](=[O:7])[H:11])[C:4]([H:9])([H:10])[O:5]1)[H:8]>>[O:1]1[C@:2]2([H:8])[C@@:3]3([C:4]([H:9])([H:10])[O:5]2)[C@:6]1([H:11])[O:7]3"
O       -0.66802806       1.27255947      -1.31671497
C       -0.86038216       0.90478965      -0.09526635
C        0.30351151       0.08074756       0.23115763
C       -0.18072648      -1.13140174       0.90647097
O       -1.18660647      -0.87893111      -0.05824054
C        1.02258467       0.40385049      -0.96932792
O        1.74369362       1.05901407      -0.13162539
H       -1.41131191       1.53847096       0.59494910
H        0.39312239      -2.03797044       0.71678012
H       -0.53982781      -1.02475739       1.93071827
H        1.38397071      -0.18637152      -1.80890093
11
Frame=7 idx=010774 GeodesicLength=0.4135909549847926 rxn_smarts="[O:1]=[C:2]([C:3]1([C:6](=[O:7])[H:11])[C:4]([H:9])([H:10])[O:5]1)[H:8]>>[O:1]1[C@:2]2([H:8])[C@@:3]3([C:4]([H:9])([H:10])[O:5]2)[C@:6]1([H:11])[O:7]3"
O       -0.70295208       1.26570424      -1.31682951
C       -0.86883358       0.90516036      -0.08802248
C        0.29943310       0.07899476       0.22592987
C       -0.17847484      -1.13445956       0.90338780
O       -1.16797272      -0.88843562      -0.07993151
C        1.01742335       0.40821419      -0.97436343
O        1.73588493       1.06499668      -0.13216128
H       -1.37435822       1.56638438       0.61206760
H        0.40700288      -2.03530459       0.72262181
H       -0.56210141      -1.02652050       1.91839320
H        1.39494860      -0.20473433      -1.79109206
11
Frame=8 idx=010774 GeodesicLength=0.4726280955582808 rxn_smarts="[O:1]=[C:2]([C:3]1([C:6](=[O:7])[H:11])[C:4]([H:9])([H:10])[O:5]1)[H:8]>>[O:1]1[C@:2]2([H:8])[C@@:3]3([C:4]([H:9])([H:10])[O:5]2)[C@:6]1([H:11])[O:7]3"
O       -0.73874373       1.25839209      -1.31592544
C       -0.87744944       0.90539675      -0.08023812
C        0.29531880       0.07727988       0.22086035
C       -0.17627884      -1.13746832       0.90029472
O       -1.14937282      -0.89742595      -0.10094053
C        1.01199076       0.41236548      -0.97937534
O        1.72793512       1.07078204      -0.13277541
H       -1.33597057       1.59431755       0.62665191
H        0.42053985      -2.03241727       0.72822556
H       -0.58392034      -1.02904512       1.90561317
H        1.40595121      -0.22217713      -1.77239087
11
Frame=9 idx=010774 GeodesicLength=0.5315791627429461 rxn_smarts="[O:1]=[C:2]([C:3]1([C:6](=[O:7])[H:11])[C:4]([H:9])([H:10])[O:5]1)[H:8]>>[O:1]1[C@:2]2([H:8])[C@@:3]3([C:4]([H:9])([H:10])[O:5]2)[C@:6]1([H:11])[O:7]3"
O       -0.77518624       1.25065624      -1.31390978
C       -0.88607283       0.90561192      -0.07173730
C        0.29124739       0.07562877       0.21603769
C       -0.17420111      -1.14053054       0.89730153
O       -1.13088064      -0.90593884      -0.12111656
C        1.00652015       0.41632286      -0.98438082
O        1.72011343       1.07646191      -0.13350281
H       -1.29667619       1.62217756       0.63837769
H        0.43359502      -2.02952991       0.73358779
H       -0.60534668      -1.03235968       1.89262323
H        1.41688770      -0.23850031      -1.75328066
11
Frame=10 idx=010774 GeodesicLength=0.5905773319000875 rxn_smarts="[O:1]=[C:2]([C:3]1([C:6](=[O:7])[H:11])[C:4]([H:9])([H:10])[O:5]1)[H:8]>>[O:1]1[C@:2]2([H:8])[C@@:3]3([C:4]([H:9])([H:10])[O:5]2)[C@:6]1([H:11])[O:7]3"
O       -0.81228960       1.24260317      -1.31073947
C       -0.89460286       0.90590829      -0.06263859
C        0.28724140       0.07403277       0.21141992
C       -0.17216217      -1.14351450       0.89430880
O       -1.11250565      -0.91371183      -0.14054505
C        1.00092928       0.41997595      -0.98930050
O        1.71235758       1.08179312      -0.13428575
H       -1.25673285       1.64961076       0.64737246
H        0.44621789      -2.02651146       0.73864891
H       -0.62618424      -1.03631384       1.87927312
H        1.42773122      -0.25387245      -1.73351386
11
Frame=11 idx=010774 GeodesicLength=0.6495669022347884 rxn_smarts="[O:1]=[C:2]([C:3]1([C:6](=[O:7])[H:11])[C:4]([H:9])([H:10])[O:5]1)[H:8]>>[O:1]1[C@:2]2([H:8])[C@@:3]3([C:4]([H:9])([H:10])[O:5]2)[C@:6]1([H:11])[O:7]3"
O       -0.84989622       1.23426370      -1.30638945
C       -0.90292807       0.90635840      -0.05286227
C        0.28335197       0.07253114       0.20703967
C       -0.17023310      -1.14648720       0.89139295
O       -1.09430932      -0.92081530      -0.15918749
C        0.99539672       0.42338779      -0.99421199
O        1.70485859       1.08692769      -0.13517428
H       -1.21646419       1.67649877       0.65361026
H        0.45832188      -2.02349960       0.74343957
H       -0.64656859      -1.04091550       1.86575742
H        1.43847034      -0.26824988      -1.71341440
11
Frame=12 idx=010774 GeodesicLength=0.7085741809126116 rxn_smarts="[O:1]=[C:2]([C:3]1([C:6](=[O:7])[H:11])[C:4]([H:9])([H:10])[O:5]1)[H:8]>>[O:1]1[C@:2]2([H:8])[C@@:3]3([C:4]([H:9])([H:10])[O:5]2)[C@:6]1([H:11])[O:7]3"
O       -0.88795708       1.22562389      -1.30078968
C       -0.91094932       0.90698510      -0.04242334
C        0.27962882       0.07111917       0.20291171
C       -0.16837808      -1.14939203       0.88851454
O       -1.07631791      -0.92716425      -0.17705641
C        0.98998619       0.42651465      -0.99902443
O        1.69770767       1.09175471      -0.13608124
H       -1.17617642       1.70271227       0.65709197
H        0.46991108      -2.02044662       0.74790999
H       -0.66644589      -1.04604003       1.85200191
H        1.44899094      -0.28166685      -1.69305502
11
Frame=13 idx=010774 GeodesicLength=0.7676415498002519 rxn_smarts="[O:1]=[C:2]([C:3]1([C:6](=[O:7])[H:11])[C:4]([H:9])([H:10])[O:5]1)[H:8]>>[O:1]1[C@:2]2([H:8])[C@@:3]3([C:4]([H:9])([H:10])[O:5]2)[C@:6]1([H:11])[O:7]3"
O       -0.92641792       1.21677594      -1.29392877
C       -0.91859245       0.90786978      -0.03139855
C        0.27607406       0.06979830       0.19900972
C       -0.16658443      -1.15222599       0.88566246
O       -1.05854303      -0.93269117      -0.19417992
C        0.98470209       0.42932732      -1.00373825
O        1.69087932       1.09624008      -0.13701738
H       -1.13609322       1.72815598       0.65791564
H        0.48098150      -2.01740788       0.75205879
H       -0.68575358      -1.05164564       1.83803800
H        1.45934766      -0.29419673      -1.67242174
11
Frame=14 idx=010774 GeodesicLength=0.8269171820013794 rxn_smarts="[O:1]=[C:2]([C:3]1([C:6](=[O:7])[H:11])[C:4]([H:9])([H:10])[O:5]1)[H:8]>>[O:1]1[C@:2]2([H:8])[C@@:3]3([C:4]([H:9])([H:10])[O:5]2)[C@:6]1([H:11])[O:7]3"
O       -0.96531043       1.20770016      -1.28576027
C       -0.92587563       0.90904776      -0.01975090
C        0.27274945       0.06859804       0.19534167
C       -0.16488455      -1.15499847       0.88284580
O       -1.04109055      -0.93748796      -0.21060416
C        0.97971414       0.43182598      -1.00840259
O        1.68462399       1.10048255      -0.13796248
H       -1.09652248       1.75288366       0.65625362
H        0.49156214      -2.01444165       0.75585798
H       -0.70462584      -1.05764851       1.82393696
H        1.46965975      -0.30596156      -1.65175562
11
Frame=15 idx=010774 GeodesicLength=0.8859511444156911 rxn_smarts="[O:1]=[C:2]([C:3]1([C:6](=[O:7])[H:11])[C:4]([H:9])([H:10])[O:5]1)[H:8]>>[O:1]1[C@:2]2([H:8])[C@@:3]3([C:4]([H:9])([H:10])[O:5]2)[C@:6]1([H:11])[O:7]3"
O       -1.00434219       1.19843564      -1.27631747
C       -0.93254462       0.91046077      -0.00764786
C        0.26958696       0.06748669       0.19186223
C       -0.16326248      -1.15765445       0.88003404
O       -1.02378078      -0.94138134      -0.22635332
C        0.97487851       0.43409477      -1.01291890
O        1.67856222       1.10432209      -0.13891929
H       -1.05727119       1.77644626       0.65204997
H        0.50155927      -2.01139465       0.75941275
H       -0.72291372      -1.06400488       1.80957647
H        1.47952801      -0.31681089      -1.63077861
11
Frame=16 idx=010774 GeodesicLength=0.9451464530395782 rxn_smarts="[O:1]=[C:2]([C:3]1([C:6](=[O:7])[H:11])[C:4]([H:9])([H:10])[O:5]1)[H:8]>>[O:1]1[C@:2]2([H:8])[C@@:3]3([C:4]([H:9])([H:10])[O:5]2)[C@:6]1([H:11])[O:7]3"
O       -1.04371066       1.18897010      -1.26551693
C       -0.93872871       0.91219377       0.00496529
C        0.26667270       0.06648997       0.18859233
C       -0.16171460      -1.16022002       0.87722143
O       -1.00677271      -0.94449618      -0.24148319
C        0.97039283       0.43605676      -1.01732587
O        1.67306881       1.10785154      -0.13980643
H       -1.01880951       1.79918023       0.64550007
H        0.51106250      -2.00842054       0.76262081
H       -0.74072502      -1.07062090       1.79504051
H        1.48926435      -0.32698472      -1.60980802
