10
Frame=0 idx=003747 GeodesicLength=0.0 rxn_smarts="[C:1]1([H:5])([H:6])[C:2]([H:7])([H:8])[O:3][C:4]1([H:9])[H:10]>>[C:1]([C:2]([O+:3]=[C-:4][H:10])([H:7])[H:8])([H:5])([H:6])[H:9]"
C        0.00546269       0.86005392      -0.10633372
C        0.82938885      -0.43394669      -0.06116663
O       -0.13999227      -1.35032036      -0.51669966
C       -1.28301419      -0.72019994      -0.01438285
H        0.10653449       1.42189644      -1.03683133
H        0.04016402       1.50987637       0.76264928
H        1.70879961      -0.45034867      -0.70860939
H        1.12958173      -0.66502843       0.96981582
H       -1.19544466       0.50926578      -0.38081565
H       -1.20148029      -0.68124843       1.09237412
10
Frame=1 idx=003747 GeodesicLength=0.0586172599164409 rxn_smarts="[C:1]1([H:5])([H:6])[C:2]([H:7])([H:8])[O:3][C:4]1([H:9])[H:10]>>[C:1]([C:2]([O+:3]=[C-:4][H:10])([H:7])[H:8])([H:5])([H:6])[H:9]"
C        0.00259336       0.85569828      -0.10357782
C        0.83389118      -0.43237605      -0.06278458
O       -0.13752098      -1.36252169      -0.49294118
C       -1.28213531      -0.72581637      -0.01239394
H        0.12562253       1.43319526      -1.02146922
H        0.02870790       1.49427873       0.77436464
H        1.69901399      -0.45040426      -0.72908910
H        1.15621907      -0.65728514       0.96232757
H       -1.20340193       0.51024490      -0.40849273
H       -1.22298980      -0.66501367       1.09405637
10
Frame=2 idx=003747 GeodesicLength=0.11720763182582272 rxn_smarts="[C:1]1([H:5])([H:6])[C:2]([H:7])([H:8])[O:3][C:4]1([H:9])[H:10]>>[C:1]([C:2]([O+:3]=[C-:4][H:10])([H:7])[H:8])([H:5])([H:6])[H:9]"
C       -0.00022360       0.85131317      -0.10075191
C        0.83849699      -0.43077450      -0.06445168
O       -0.13477485      -1.37459559      -0.46789622
C       -1.28117934      -0.73142731      -0.01046047
H        0.14435687       1.44464677      -1.00501836
H        0.01736361       1.47838986       0.78602679
H        1.68843466      -0.45090974      -0.74989968
H        1.18358329      -0.64891939       0.95415276
H       -1.21057324       0.51084000      -0.43652529
H       -1.24548440      -0.64856327       1.09482405
10
Frame=3 idx=003747 GeodesicLength=0.17574818211849522 rxn_smarts="[C:1]1([H:5])([H:6])[C:2]([H:7])([H:8])[O:3][C:4]1([H:9])[H:10]>>[C:1]([C:2]([O+:3]=[C-:4][H:10])([H:7])[H:8])([H:5])([H:6])[H:9]"
C       -0.00297811       0.84690891      -0.09784061
C        0.84320677      -0.42913668      -0.06617054
O       -0.13173694      -1.38646923      -0.44151943
C       -1.28012641      -0.73705921      -0.00858648
H        0.16269492       1.45619935      -0.98748983
H        0.00618424       1.46222049       0.79764522
H        1.67702516      -0.45189219      -0.77100014
H        1.21165916      -0.63992657       0.94522827
H       -1.21695195       0.51107098      -0.46485613
H       -1.26897683      -0.63191585       1.09458966
10
Frame=4 idx=003747 GeodesicLength=0.23421814003016236 rxn_smarts="[C:1]1([H:5])([H:6])[C:2]([H:7])([H:8])[O:3][C:4]1([H:9])[H:10]>>[C:1]([C:2]([O+:3]=[C-:4][H:10])([H:7])[H:8])([H:5])([H:6])[H:9]"
C       -0.00566135       0.84249877      -0.09483039
C        0.84801987      -0.42745839      -0.06794269
O       -0.12839353      -1.39806041      -0.41377699
C       -1.27895458      -0.74273917      -0.00676968
H        0.18060167       1.46780175      -0.96890625
H       -0.00478376       1.44578706       0.80923008
H        1.66475130      -0.45338336      -0.79234100
H        1.24041916      -0.63030851       0.93549439
H       -1.22253903       0.51096454      -0.49342429
H       -1.29345975      -0.61510226       1.09326682
10
Frame=5 idx=003747 GeodesicLength=0.29256939394050957 rxn_smarts="[C:1]1([H:5])([H:6])[C:2]([H:7])([H:8])[O:3][C:4]1([H:9])[H:10]>>[C:1]([C:2]([O+:3]=[C-:4][H:10])([H:7])[H:8])([H:5])([H:6])[H:9]"
C       -0.00826266       0.83809322      -0.09172169
C        0.85293063      -0.42573208      -0.06976073
O       -0.12474415      -1.40925189      -0.38467688
C       -1.27764203      -0.74848127      -0.00498815
H        0.19804947       1.47938731      -0.94931077
H       -0.01549660       1.42911560       0.82076158
H        1.65159538      -0.45540554      -0.81383507
H        1.26979668      -0.62009003       0.92489789
H       -1.22735061       0.51055923      -0.52214758
H       -1.31887612      -0.59819455       1.09078141
10
Frame=6 idx=003747 GeodesicLength=0.3508372734510922 rxn_smarts="[C:1]1([H:5])([H:6])[C:2]([H:7])([H:8])[O:3][C:4]1([H:9])[H:10]>>[C:1]([C:2]([O+:3]=[C-:4][H:10])([H:7])[H:8])([H:5])([H:6])[H:9]"
C       -0.01077838       0.83370057      -0.08846365
C        0.85794706      -0.42395385      -0.07164573
O       -0.12075319      -1.42000370      -0.35405774
C       -1.27615913      -0.75432657      -0.00325258
H        0.21503357       1.49094304      -0.92866296
H       -0.02594812       1.41216231       0.83232762
H        1.63746071      -0.45800791      -0.83552268
H        1.29984951      -0.60922820       0.91333186
H       -1.23134936       0.50984523      -0.55105641
H       -1.34530267      -0.58113092       1.08700225
10
Frame=7 idx=003747 GeodesicLength=0.40903698655930665 rxn_smarts="[C:1]1([H:5])([H:6])[C:2]([H:7])([H:8])[O:3][C:4]1([H:9])[H:10]>>[C:1]([C:2]([O+:3]=[C-:4][H:10])([H:7])[H:8])([H:5])([H:6])[H:9]"
C       -0.01320262       0.82933114      -0.08502770
C        0.86306974      -0.42211781      -0.07360506
O       -0.11640263      -1.43022959      -0.32180204
C       -1.27447666      -0.76030039      -0.00154978
H        0.23155609       1.50245026      -0.90694383
H       -0.03613160       1.39490661       0.84397176
H        1.62226026      -0.46123834      -0.85739453
H        1.33059370      -0.59770784       0.90069614
H       -1.23450857       0.50883028      -0.58015487
H       -1.37275770      -0.56392432       1.08180991
10
Frame=8 idx=003747 GeodesicLength=0.4671468837538092 rxn_smarts="[C:1]1([H:5])([H:6])[C:2]([H:7])([H:8])[O:3][C:4]1([H:9])[H:10]>>[C:1]([C:2]([O+:3]=[C-:4][H:10])([H:7])[H:8])([H:5])([H:6])[H:9]"
C       -0.01553071       0.82500627      -0.08139925
C        0.86829345      -0.42021630      -0.07563985
O       -0.11168099      -1.43979587      -0.28790275
C       -1.27255767      -0.76643737       0.00013919
H        0.24759470       1.51384864      -0.88420566
H       -0.04600910       1.37737501       0.85570460
H        1.60596192      -0.46514610      -0.87936318
H        1.36195090      -0.58555413       0.88692698
H       -1.23684979       0.50755518      -0.60935374
H       -1.40117270      -0.54663533       1.07509365
10
Frame=9 idx=003747 GeodesicLength=0.5251271408988235 rxn_smarts="[C:1]1([H:5])([H:6])[C:2]([H:7])([H:8])[O:3][C:4]1([H:9])[H:10]>>[C:1]([C:2]([O+:3]=[C-:4][H:10])([H:7])[H:8])([H:5])([H:6])[H:9]"
C       -0.01775101       0.82073104      -0.07757780
C        0.87360277      -0.41824310      -0.07774047
O       -0.10660194      -1.44854055      -0.25236025
C       -1.27037502      -0.77273705       0.00186559
H        0.26314606       1.52507534      -0.86048151
H       -0.05556197       1.35956758       0.86750448
H        1.58852709      -0.46974280      -0.90131393
H        1.39384935      -0.57280747       0.87194245
H       -1.23838163       0.50604811      -0.63860208
H       -1.43045371      -0.52935111       1.06676354
10
Frame=10 idx=003747 GeodesicLength=0.5830477034936781 rxn_smarts="[C:1]1([H:5])([H:6])[C:2]([H:7])([H:8])[O:3][C:4]1([H:9])[H:10]>>[C:1]([C:2]([O+:3]=[C-:4][H:10])([H:7])[H:8])([H:5])([H:6])[H:9]"
C       -0.01985980       0.81654024      -0.07352586
C        0.87899762      -0.41620058      -0.07992623
O       -0.10113469      -1.45637816      -0.21508571
C       -1.26788038      -0.77926153       0.00364254
H        0.27819935       1.53613080      -0.83580045
H       -0.06477443       1.34149981       0.87944380
H        1.56989553      -0.47509763      -0.92322316
H        1.42625496      -0.55948512       0.85565795
H       -1.23910123       0.50434169      -0.66786676
H       -1.46059693      -0.51208950       1.05668388
10
Frame=11 idx=003747 GeodesicLength=0.6408717244758192 rxn_smarts="[C:1]1([H:5])([H:6])[C:2]([H:7])([H:8])[O:3][C:4]1([H:9])[H:10]>>[C:1]([C:2]([O+:3]=[C-:4][H:10])([H:7])[H:8])([H:5])([H:6])[H:9]"
C       -0.02185165       0.81242894      -0.06919884
C        0.88447399      -0.41406941      -0.08221724
O       -0.09525296      -1.46312383      -0.17597668
C       -1.26502199      -0.78604544       0.00548892
H        0.29274146       1.54693955      -0.81015226
H       -0.07361976       1.32311816       0.89155397
H        1.54999099      -0.48127184      -0.94500665
H        1.45913355      -0.54557904       0.83793326
H       -1.23902314       0.50244548      -0.69705904
H       -1.49157048      -0.49484256       1.04463457
10
Frame=12 idx=003747 GeodesicLength=0.6986319790066058 rxn_smarts="[C:1]1([H:5])([H:6])[C:2]([H:7])([H:8])[O:3][C:4]1([H:9])[H:10]>>[C:1]([C:2]([O+:3]=[C-:4][H:10])([H:7])[H:8])([H:5])([H:6])[H:9]"
C       -0.02371396       0.80843690      -0.06462540
C        0.88999586      -0.41186563      -0.08459623
O       -0.08899603      -1.46862207      -0.13519235
C       -1.26176448      -0.79309684       0.00750147
H        0.30676551       1.55747808      -0.78366687
H       -0.08208107       1.30450719       0.90379527
H        1.52885575      -0.48825792      -0.96648758
H        1.49229435      -0.53122281       0.81876947
H       -1.23819475       0.50043265      -0.72611797
H       -1.52316117      -0.47778956       1.03062018
10
Frame=13 idx=003747 GeodesicLength=0.7563505887348995 rxn_smarts="[C:1]1([H:5])([H:6])[C:2]([H:7])([H:8])[O:3][C:4]1([H:9])[H:10]>>[C:1]([C:2]([O+:3]=[C-:4][H:10])([H:7])[H:8])([H:5])([H:6])[H:9]"
C       -0.02545617       0.80459010      -0.05980949
C        0.89554276      -0.40957775      -0.08707675
O       -0.08237286      -1.47269704      -0.09282585
C       -1.25806899      -0.80044935       0.00975986
H        0.32031768       1.56771836      -0.75638879
H       -0.09018251       1.28569613       0.91615332
H        1.50650066      -0.49610655      -0.98753263
H        1.52557873      -0.51649503       0.79812095
H       -1.23668248       0.49832982      -0.75496397
H       -1.55517682      -0.46100869       1.01456335
10
Frame=14 idx=003747 GeodesicLength=0.8140410899453964 rxn_smarts="[C:1]1([H:5])([H:6])[C:2]([H:7])([H:8])[O:3][C:4]1([H:9])[H:10]>>[C:1]([C:2]([O+:3]=[C-:4][H:10])([H:7])[H:8])([H:5])([H:6])[H:9]"
C       -0.02707443       0.80091694      -0.05479016
C        0.90107474      -0.40720981      -0.08964040
O       -0.07543795      -1.47518494      -0.04914213
C       -1.25392395      -0.80809304       0.01238478
H        0.33341360       1.57761275      -0.72844699
H       -0.09792357       1.26676599       0.92854788
H        1.48302724      -0.50477229      -1.00792501
H        1.55875240      -0.50156185       0.77601910
H       -1.23457454       0.49618988      -0.78352063
H       -1.58733356      -0.44466364       0.99651355
10
Frame=15 idx=003747 GeodesicLength=0.8717214910475906 rxn_smarts="[C:1]1([H:5])([H:6])[C:2]([H:7])([H:8])[O:3][C:4]1([H:9])[H:10]>>[C:1]([C:2]([O+:3]=[C-:4][H:10])([H:7])[H:8])([H:5])([H:6])[H:9]"
C       -0.02855924       0.79744195      -0.04959905
C        0.90655068      -0.40478348      -0.09228116
O       -0.06822540      -1.47597892      -0.00444319
C       -1.24929452      -0.81603089       0.01548519
H        0.34602994       1.58710888      -0.70001836
H       -0.10525999       1.24781410       0.94092103
H        1.45858673      -0.51419830      -1.02747135
H        1.59154695      -0.48658179       0.75255454
H       -1.23199103       0.49410230      -0.81166419
H       -1.61938412      -0.42889386       0.97651654
10
Frame=16 idx=003747 GeodesicLength=0.929345974686525 rxn_smarts="[C:1]1([H:5])([H:6])[C:2]([H:7])([H:8])[O:3][C:4]1([H:9])[H:10]>>[C:1]([C:2]([O+:3]=[C-:4][H:10])([H:7])[H:8])([H:5])([H:6])[H:9]"
C       -0.02993147       0.79418064      -0.04432239
C        0.91192324      -0.40227190      -0.09497756
O       -0.06080474      -1.47497711       0.04067864
C       -1.24418827      -0.82423240       0.01921377
H        0.35818812       1.59610665      -0.67130531
H       -0.11219451       1.22897649       0.95311529
H        1.43343114      -0.52427300      -1.04589680
H        1.62355749      -0.47180623       0.72797000
H       -1.22915273       0.49212121      -0.83925711
H       -1.65082828      -0.41382435       0.95478147
