13
Frame=0 idx=003694 GeodesicLength=0.0 rxn_smarts="[C:1]1([H:7])([H:8])[C@@:2]2([H:9])[C@@:3]3([H:10])[C:4]([H:11])([H:12])[N:5]1[C@@:6]23[H:13]>>[C:1]1([H:7])([H:8])[C:2][C@@:6]2([H:13])[C:3]([H:9])([H:10])[C:4]([H:11])([H:12])[N:5]12"
C       -0.87707612       1.08434338      -0.33258670
C       -1.41369786      -0.32408550      -0.05937559
C        0.29580948      -1.08953469      -0.09375413
C        1.24433652       0.09082463      -0.20564078
N        0.30714966       0.94269960       0.57403356
C       -0.38305802      -0.34342150       1.02489804
H       -1.59284895       1.76588881       0.13156972
H       -0.66924336       1.42129187      -1.35120342
H       -0.63253936      -1.10677917      -0.90320835
H        0.51501271      -2.14994188      -0.03738355
H        2.13915292      -0.08723307       0.39052841
H        1.52560830       0.46853549      -1.19070503
H       -0.45860592      -0.67258794       2.05282788
13
Frame=1 idx=003694 GeodesicLength=0.047237887085422155 rxn_smarts="[C:1]1([H:7])([H:8])[C@@:2]2([H:9])[C@@:3]3([H:10])[C:4]([H:11])([H:12])[N:5]1[C@@:6]23[H:13]>>[C:1]1([H:7])([H:8])[C:2][C@@:6]2([H:13])[C:3]([H:9])([H:10])[C:4]([H:11])([H:12])[N:5]12"
C       -0.87623935       1.08786557      -0.33144864
C       -1.40971534      -0.32057351      -0.06286712
C        0.29584592      -1.09041568      -0.09503204
C        1.24494194       0.09003890      -0.20602647
N        0.30771972       0.94194718       0.57445174
C       -0.38399403      -0.34328323       1.02449478
H       -1.59285651       1.76776746       0.13441635
H       -0.66810290       1.42831473      -1.34886623
H       -0.64484923      -1.12302408      -0.90976898
H        0.52433184      -2.14825952      -0.02850268
H        2.14131661      -0.08612300       0.38837750
H        1.52449239       0.46930011      -1.19104582
H       -0.46289106      -0.67355492       2.05181758
13
Frame=2 idx=003694 GeodesicLength=0.09447462235053264 rxn_smarts="[C:1]1([H:7])([H:8])[C@@:2]2([H:9])[C@@:3]3([H:10])[C:4]([H:11])([H:12])[N:5]1[C@@:6]23[H:13]>>[C:1]1([H:7])([H:8])[C:2][C@@:6]2([H:13])[C:3]([H:9])([H:10])[C:4]([H:11])([H:12])[N:5]12"
C       -0.87535198       1.09142039      -0.33031433
C       -1.40560842      -0.31707703      -0.06650586
C        0.29595036      -1.09128370      -0.09634317
C        1.24559796       0.08929442      -0.20639096
N        0.30831195       0.94121269       0.57488416
C       -0.38492579      -0.34313623       1.02404842
H       -1.59288569       1.76959524       0.13725280
H       -0.66687487       1.43540455      -1.34650027
H       -0.65754972      -1.13961077      -0.91596045
H        0.53364498      -2.14641099      -0.01979445
H        2.14351690      -0.08496237       0.38625569
H        1.52341607       0.47009760      -1.19136674
H       -0.46724176      -0.67454380       2.05073516
13
Frame=3 idx=003694 GeodesicLength=0.14171112828299834 rxn_smarts="[C:1]1([H:7])([H:8])[C@@:2]2([H:9])[C@@:3]3([H:10])[C:4]([H:11])([H:12])[N:5]1[C@@:6]23[H:13]>>[C:1]1([H:7])([H:8])[C:2][C@@:6]2([H:13])[C:3]([H:9])([H:10])[C:4]([H:11])([H:12])[N:5]12"
C       -0.87441363       1.09500680      -0.32918567
C       -1.40137352      -0.31359765      -0.07029518
C        0.29612825      -1.09213665      -0.09769004
C        1.24630873       0.08859474      -0.20673109
N        0.30892549       0.94049747       0.57533065
C       -0.38585213      -0.34298144       1.02355565
H       -1.59294044       1.77136821       0.14007365
H       -0.66555823       1.44255858      -1.34410751
H       -0.67065702      -1.15653643      -0.92176121
H        0.54294315      -2.14440274      -0.01127374
H        2.14575496      -0.08374895       0.38417038
H        1.52238667       0.47093369      -1.19166280
H       -0.47165229      -0.67555564       2.04957692
13
Frame=4 idx=003694 GeodesicLength=0.18894910465086476 rxn_smarts="[C:1]1([H:7])([H:8])[C@@:2]2([H:9])[C@@:3]3([H:10])[C:4]([H:11])([H:12])[N:5]1[C@@:6]23[H:13]>>[C:1]1([H:7])([H:8])[C:2][C@@:6]2([H:13])[C:3]([H:9])([H:10])[C:4]([H:11])([H:12])[N:5]12"
C       -0.87342427       1.09862352      -0.32806447
C       -1.39700806      -0.31013825      -0.07423928
C        0.29638592      -1.09297330      -0.09907518
C        1.24707945       0.08794342      -0.20704408
N        0.30955965       0.93980310       0.57579135
C       -0.38677248      -0.34282004       1.02301323
H       -1.59302586       1.77308262       0.14287448
H       -0.66415182       1.44977361      -1.34169030
H       -0.68418820      -1.17379460      -0.92714963
H        0.55221785      -2.14224293      -0.00295474
H        2.14803375      -0.08247969       0.38212862
H        1.52141246       0.47181370      -1.19192980
H       -0.47611837      -0.67659116       2.04833980
13
Frame=5 idx=003694 GeodesicLength=0.23612694698176112 rxn_smarts="[C:1]1([H:7])([H:8])[C@@:2]2([H:9])[C@@:3]3([H:10])[C:4]([H:11])([H:12])[N:5]1[C@@:6]23[H:13]>>[C:1]1([H:7])([H:8])[C:2][C@@:6]2([H:13])[C:3]([H:9])([H:10])[C:4]([H:11])([H:12])[N:5]12"
C       -0.87238482       1.10226878      -0.32695558
C       -1.39251097      -0.30669279      -0.07833433
C        0.29671974      -1.09378536      -0.10051311
C        1.24791126       0.08734445      -0.20732441
N        0.31021080       0.93913031       0.57626418
C       -0.38768339      -0.34265404       1.02241558
H       -1.59314030       1.77473681       0.14564209
H       -0.66265893       1.45704395      -1.33925314
H       -0.69814871      -1.19139181      -0.93208615
H        0.56145868      -2.13993285       0.00514154
H        2.15034652      -0.08116081       0.38014365
H        1.52050396       0.47275083      -1.19215591
H       -0.48062385      -0.67765747       2.04701559
13
Frame=6 idx=003694 GeodesicLength=0.28331413018369395 rxn_smarts="[C:1]1([H:7])([H:8])[C@@:2]2([H:9])[C@@:3]3([H:10])[C:4]([H:11])([H:12])[N:5]1[C@@:6]23[H:13]>>[C:1]1([H:7])([H:8])[C:2][C@@:6]2([H:13])[C:3]([H:9])([H:10])[C:4]([H:11])([H:12])[N:5]12"
C       -0.87129367       1.10594343      -0.32585906
C       -1.38787661      -0.30326946      -0.08259470
C        0.29714225      -1.09457685      -0.10199810
C        1.24881114       0.08680101      -0.20757470
N        0.31088139       0.93847865       0.57674961
C       -0.38858836      -0.34248647       1.02175774
H       -1.59329207       1.77632353       0.14838155
H       -0.66106894       1.46438477      -1.33679112
H       -0.71257531      -1.20932377      -0.93655584
H        0.57067632      -2.13748254       0.01301969
H        2.15270407      -0.07978204       0.37821131
H        1.51966579       0.47374392      -1.19234661
H       -0.48518600      -0.67875417       2.04560023
13
Frame=7 idx=003694 GeodesicLength=0.33050831149756343 rxn_smarts="[C:1]1([H:7])([H:8])[C@@:2]2([H:9])[C@@:3]3([H:10])[C:4]([H:11])([H:12])[N:5]1[C@@:6]23[H:13]>>[C:1]1([H:7])([H:8])[C:2][C@@:6]2([H:13])[C:3]([H:9])([H:10])[C:4]([H:11])([H:12])[N:5]12"
C       -0.87014710       1.10964774      -0.32477588
C       -1.38309414      -0.29986530      -0.08703640
C        0.29765996      -1.09534388      -0.10354107
C        1.24977962       0.08631625      -0.20779554
N        0.31157074       0.93784660       0.57724852
C       -0.38948652      -0.34231797       1.02102973
H       -1.59347797       1.77783549       0.15109518
H       -0.65937515       1.47180720      -1.33429790
H       -0.72749091      -1.22760947      -0.94051908
H        0.57987273      -2.13489448       0.02067972
H        2.15510437      -0.07833795       0.37633263
H        1.51889851       0.47480055      -1.19249920
H       -0.48981413      -0.67988476       2.04407930
13
Frame=8 idx=003694 GeodesicLength=0.3776742192565351 rxn_smarts="[C:1]1([H:7])([H:8])[C@@:2]2([H:9])[C@@:3]3([H:10])[C:4]([H:11])([H:12])[N:5]1[C@@:6]23[H:13]>>[C:1]1([H:7])([H:8])[C:2][C@@:6]2([H:13])[C:3]([H:9])([H:10])[C:4]([H:11])([H:12])[N:5]12"
C       -0.86894751       1.11337743      -0.32371107
C       -1.37816741      -0.29648409      -0.09165277
C        0.29827167      -1.09608601      -0.10514963
C        1.25082214       0.08589171      -0.20798189
N        0.31227561       0.93723551       0.57775908
C       -0.39037692      -0.34215183       1.02022980
H       -1.59370443       1.77927456       0.15376630
H       -0.65758085       1.47929944      -1.33178169
H       -0.74290751      -1.24622261      -0.94394787
H        0.58904303      -2.13217268       0.02810187
H        2.15754701      -0.07683401       0.37452157
H        1.51821591       0.47593072      -1.19260480
H       -0.49449074      -0.68105813       2.04245111
13
Frame=9 idx=003694 GeodesicLength=0.4248408471119038 rxn_smarts="[C:1]1([H:7])([H:8])[C@@:2]2([H:9])[C@@:3]3([H:10])[C:4]([H:11])([H:12])[N:5]1[C@@:6]23[H:13]>>[C:1]1([H:7])([H:8])[C:2][C@@:6]2([H:13])[C:3]([H:9])([H:10])[C:4]([H:11])([H:12])[N:5]12"
C       -0.86769274       1.11713499      -0.32266645
C       -1.37308660      -0.29312277      -0.09646318
C        0.29898775      -1.09679932      -0.10682810
C        1.25194276       0.08553231      -0.20813401
N        0.31299826       0.93664242       0.57828149
C       -0.39125914      -0.34199178       1.01934685
H       -1.59397031       1.78063284       0.15639631
H       -0.65568163       1.48687829      -1.32923622
H       -0.75885656      -1.26518136      -0.94680102
H        0.59819219      -2.12932306       0.03528976
H        2.16003883      -0.07526389       0.37277624
H        1.51761878       0.47714247      -1.19266135
H       -0.49923159      -0.68228115       2.04069967
13
Frame=10 idx=003694 GeodesicLength=0.4720064314614097 rxn_smarts="[C:1]1([H:7])([H:8])[C@@:2]2([H:9])[C@@:3]3([H:10])[C:4]([H:11])([H:12])[N:5]1[C@@:6]23[H:13]>>[C:1]1([H:7])([H:8])[C:2][C@@:6]2([H:13])[C:3]([H:9])([H:10])[C:4]([H:11])([H:12])[N:5]12"
C       -0.86638246       1.12091957      -0.32164454
C       -1.36784882      -0.28978699      -0.10147293
C        0.29981328      -1.09748512      -0.10858518
C        1.25314776       0.08524256      -0.20825218
N        0.31373644       0.93607081       0.57881589
C       -0.39213569      -0.34184103       1.01837666
H       -1.59428194       1.78190744       0.15898197
H       -0.65367129       1.49454810      -1.32666307
H       -0.77535962      -1.28448114      -0.94904254
H        0.60732020      -2.12635668       0.04223260
H        2.16258297      -0.07362372       0.37110049
H        1.51712098       0.47844506      -1.19266845
H       -0.50404180      -0.68355886       2.03882128
13
Frame=11 idx=003694 GeodesicLength=0.5191485407514785 rxn_smarts="[C:1]1([H:7])([H:8])[C@@:2]2([H:9])[C@@:3]3([H:10])[C:4]([H:11])([H:12])[N:5]1[C@@:6]23[H:13]>>[C:1]1([H:7])([H:8])[C:2][C@@:6]2([H:13])[C:3]([H:9])([H:10])[C:4]([H:11])([H:12])[N:5]12"
C       -0.86501601       1.12472487      -0.32065000
C       -1.36244641      -0.28647652      -0.10669188
C        0.30075323      -1.09813748      -0.11042683
C        1.25443777       0.08502352      -0.20833196
N        0.31448893       0.93551417       0.57935970
C       -0.39300223      -0.34170263       1.01730865
H       -1.59464058       1.78308523       0.16151307
H       -0.65154974       1.50230788      -1.32406011
H       -0.79243740      -1.30409918      -0.95063188
H        0.61642625      -2.12327036       0.04892337
H        2.16517658      -0.07191617       0.36950298
H        1.51672385       0.47984341      -1.19261558
H       -0.50891422      -0.68489673       2.03680048
13
Frame=12 idx=003694 GeodesicLength=0.5663013562951384 rxn_smarts="[C:1]1([H:7])([H:8])[C@@:2]2([H:9])[C@@:3]3([H:10])[C:4]([H:11])([H:12])[N:5]1[C@@:6]23[H:13]>>[C:1]1([H:7])([H:8])[C:2][C@@:6]2([H:13])[C:3]([H:9])([H:10])[C:4]([H:11])([H:12])[N:5]12"
C       -0.86359263       1.12855454      -0.31968459
C       -1.35687594      -0.28319494      -0.11213130
C        0.30181512      -1.09875978      -0.11236446
C        1.25582202       0.08488089      -0.20837595
N        0.31525483       0.93497719       0.57991456
C       -0.39386407      -0.34158153       1.01613657
H       -1.59505056       1.78416801       0.16399098
H       -0.64930735       1.51017069      -1.32142627
H       -0.81012565      -1.32405248      -0.95152324
H        0.62552096      -2.12007769       0.05535451
H        2.16782836      -0.07013111       0.36798471
H        1.51644297       0.48134976      -1.19250569
H       -0.51386806      -0.68630355       2.03463019
13
Frame=13 idx=003694 GeodesicLength=0.6134428677816602 rxn_smarts="[C:1]1([H:7])([H:8])[C@@:2]2([H:9])[C@@:3]3([H:10])[C:4]([H:11])([H:12])[N:5]1[C@@:6]23[H:13]>>[C:1]1([H:7])([H:8])[C:2][C@@:6]2([H:13])[C:3]([H:9])([H:10])[C:4]([H:11])([H:12])[N:5]12"
C       -0.86210932       1.13240304      -0.31875420
C       -1.35112480      -0.27994082      -0.11780932
C        0.30300513      -1.09934558      -0.11440720
C        1.25729919       0.08481602      -0.20838115
N        0.31603307       0.93445021       0.58047827
C       -0.39471665      -0.34148313       1.01484545
H       -1.59550929       1.78514013       0.16640682
H       -0.64693965       1.51814455      -1.31875616
H       -0.82845522      -1.34432399      -0.95165739
H        0.63461490      -2.11677072       0.06152497
H        2.17053410      -0.06827018       0.36655117
H        1.51627528       0.48297031      -1.19232938
H       -0.51890674      -0.68778982       2.03228813
13
Frame=14 idx=003694 GeodesicLength=0.660592712016024 rxn_smarts="[C:1]1([H:7])([H:8])[C@@:2]2([H:9])[C@@:3]3([H:10])[C:4]([H:11])([H:12])[N:5]1[C@@:6]23[H:13]>>[C:1]1([H:7])([H:8])[C:2][C@@:6]2([H:13])[C:3]([H:9])([H:10])[C:4]([H:11])([H:12])[N:5]12"
C       -0.86056762       1.13626946      -0.31786202
C       -1.34519224      -0.27672109      -0.12373230
C        0.30433017      -1.09989792      -0.11656487
C        1.25887961       0.08483418      -0.20834755
N        0.31682206       0.93393801       0.58105117
C       -0.39556386      -0.34141229       1.01343091
H       -1.59602561       1.78599907       0.16875623
H       -0.64444156       1.52623282      -1.31605243
H       -0.84745409      -1.36490572      -0.95099300
H        0.64370767      -2.11336452       0.06742048
H        2.17330214      -0.06632615       0.36520894
H        1.51624033       0.48471689      -1.19208608
H       -0.52403700      -0.68936274       2.02977052
13
Frame=15 idx=003694 GeodesicLength=0.7077453731312907 rxn_smarts="[C:1]1([H:7])([H:8])[C@@:2]2([H:9])[C@@:3]3([H:10])[C:4]([H:11])([H:12])[N:5]1[C@@:6]23[H:13]>>[C:1]1([H:7])([H:8])[C:2][C@@:6]2([H:13])[C:3]([H:9])([H:10])[C:4]([H:11])([H:12])[N:5]12"
C       -0.85896856       1.14014933      -0.31701289
C       -1.33906965      -0.27353790      -0.12990975
C        0.30579938      -1.10041457      -0.11884590
C        1.26056747       0.08493686      -0.20827170
N        0.31761756       0.93343723       0.58162972
C       -0.39640385      -0.34137385       1.01188143
H       -1.59660565       1.78673557       0.17102847
H       -0.64181195       1.53443569      -1.31331315
H       -0.86714895      -1.38577155      -0.94947819
H        0.65280166      -2.10986580       0.07302972
H        2.17613197      -0.06429904       0.36396707
H        1.51634690       0.48659793      -1.19176560
H       -0.52925635      -0.69102990       2.02706077
13
Frame=16 idx=003694 GeodesicLength=0.754890871435417 rxn_smarts="[C:1]1([H:7])([H:8])[C@@:2]2([H:9])[C@@:3]3([H:10])[C:4]([H:11])([H:12])[N:5]1[C@@:6]23[H:13]>>[C:1]1([H:7])([H:8])[C:2][C@@:6]2([H:13])[C:3]([H:9])([H:10])[C:4]([H:11])([H:12])[N:5]12"
C       -0.85731170       1.14403042      -0.31621249
C       -1.33274993      -0.27039879      -0.13634975
C        0.30741756      -1.10089153      -0.12125615
C        1.26236452       0.08512753      -0.20814739
N        0.31841825       0.93294346       0.58221407
C       -0.39723292      -0.34137264       1.01019084
H       -1.59724843       1.78733209       0.17321167
H       -0.63905209       1.54274000      -1.31054227
H       -0.88756182      -1.40687335      -0.94707937
H        0.66189066      -2.10627702       0.07833790
H        2.17902114      -0.06218529       0.36283941
H        1.51659965       0.48861989      -1.19135879
H       -0.53455488      -0.69279477       2.02415232
