15
Frame=0 idx=003518 GeodesicLength=0.0 rxn_smarts="[C:1]([O:2]/[C:3](=[N:4]/[C:5]([H:10])([H:11])[H:12])[C:6]([H:13])([H:14])[H:15])([H:7])([H:8])[H:9]>>[C:1]([O:2][C:3]([N:4]([C:5]([H:10])([H:11])[H:12])[H:15])=[C:6]([H:13])[H:14])([H:7])([H:8])[H:9]"
C        1.61087931      -0.90651117      -0.56328512
O        0.22167211      -1.21106994      -0.65759966
C       -0.63325187      -0.54094645       0.10342110
N       -0.44789768       0.65125012       0.64207043
C        0.25868707       1.75651780       0.01620815
C       -1.90007039      -1.02499717       0.54763935
H        1.88095535      -0.08330982      -1.22542411
H        2.13905612      -1.80560290      -0.87291944
H        1.87379823      -0.65597895       0.46574580
H        0.28031396       1.68146120      -1.07534500
H       -0.26121866       2.67738781       0.27804859
H        1.28355786       1.84099825       0.38680623
H       -2.73133816      -0.54894929       0.03144558
H       -2.04110041      -2.09110845       0.70196004
H       -1.53404290       0.26085900       1.22122806
15
Frame=1 idx=003518 GeodesicLength=0.0683429273652744 rxn_smarts="[C:1]([O:2]/[C:3](=[N:4]/[C:5]([H:10])([H:11])[H:12])[C:6]([H:13])([H:14])[H:15])([H:7])([H:8])[H:9]>>[C:1]([O:2][C:3]([N:4]([C:5]([H:10])([H:11])[H:12])[H:15])=[C:6]([H:13])[H:14])([H:7])([H:8])[H:9]"
C        1.61938706      -0.92635119      -0.55949123
O        0.22967127      -1.22734684      -0.64724904
C       -0.62213876      -0.53970968       0.10247799
N       -0.40934908       0.63729720       0.66505230
C        0.24016993       1.76308729       0.01598393
C       -1.89693453      -1.00848925       0.53797073
H        1.88595324      -0.09502854      -1.21295208
H        2.14302735      -1.82266638      -0.88487875
H        1.89395987      -0.68979212       0.46984657
H        0.25103071       1.68143348      -1.07511499
H       -0.31160199       2.66615623       0.27656147
H        1.26644458       1.88672478       0.37083848
H       -2.72162158      -0.51309695       0.02971890
H       -2.04984044      -2.07577287       0.67059954
H       -1.51815764       0.26355484       1.24063618
15
Frame=2 idx=003518 GeodesicLength=0.1363829288300467 rxn_smarts="[C:1]([O:2]/[C:3](=[N:4]/[C:5]([H:10])([H:11])[H:12])[C:6]([H:13])([H:14])[H:15])([H:7])([H:8])[H:9]>>[C:1]([O:2][C:3]([N:4]([C:5]([H:10])([H:11])[H:12])[H:15])=[C:6]([H:13])[H:14])([H:7])([H:8])[H:9]"
C        1.62714323      -0.94706500      -0.55559365
O        0.23657668      -1.24185607      -0.64011205
C       -0.61184612      -0.53670124       0.09800682
N       -0.37256842       0.62514118       0.68212064
C        0.22141918       1.77031637       0.01556978
C       -1.89201207      -0.99208534       0.52952700
H        1.89318834      -0.10673844      -1.19761616
H        2.14520879      -1.84052266      -0.89744210
H        1.91128788      -0.72724557       0.47487280
H        0.22521612       1.68356563      -1.07500538
H       -0.36216846       2.65390407       0.27527854
H        1.24636233       1.93247470       0.35796233
H       -2.71242825      -0.47998290       0.03130623
H       -2.05429345      -2.06003537       0.64248592
H       -1.50108578       0.26683062       1.25863927
15
Frame=3 idx=003518 GeodesicLength=0.20448851430210419 rxn_smarts="[C:1]([O:2]/[C:3](=[N:4]/[C:5]([H:10])([H:11])[H:12])[C:6]([H:13])([H:14])[H:15])([H:7])([H:8])[H:9]>>[C:1]([O:2][C:3]([N:4]([C:5]([H:10])([H:11])[H:12])[H:15])=[C:6]([H:13])[H:14])([H:7])([H:8])[H:9]"
C        1.63435869      -0.96870763      -0.55165591
O        0.24257322      -1.25483250      -0.63579460
C       -0.60203911      -0.53228326       0.09092554
N       -0.33714628       0.61472329       0.69435807
C        0.20242014       1.77838023       0.01491688
C       -1.88565590      -0.97588152       0.52220528
H        1.90265698      -0.11851681      -1.17964396
H        2.14594863      -1.85917182      -0.91082128
H        1.92612064      -0.76830309       0.48068756
H        0.20235565       1.68779648      -1.07520870
H       -0.41304183       2.64084435       0.27385913
H        1.22353066       1.97877408       0.34775874
H       -2.70356911      -0.44913680       0.03555073
H       -2.05549816      -2.04425069       0.61709916
H       -1.48301422       0.27056569       1.27576336
15
Frame=4 idx=003518 GeodesicLength=0.27255213689761976 rxn_smarts="[C:1]([O:2]/[C:3](=[N:4]/[C:5]([H:10])([H:11])[H:12])[C:6]([H:13])([H:14])[H:15])([H:7])([H:8])[H:9]>>[C:1]([O:2][C:3]([N:4]([C:5]([H:10])([H:11])[H:12])[H:15])=[C:6]([H:13])[H:14])([H:7])([H:8])[H:9]"
C        1.64105821      -0.99120085      -0.54765775
O        0.24775850      -1.26630456      -0.63398880
C       -0.59246012      -0.52662086       0.08179058
N       -0.30271665       0.60590245       0.70242181
C        0.18313365       1.78717874       0.01399384
C       -1.87796515      -0.95981268       0.51584654
H        1.91412341      -0.13047136      -1.15907584
H        2.14538459      -1.87834715      -0.92501402
H        1.93857564      -0.81284438       0.48714630
H        0.18191290       1.69392760      -1.07576896
H       -0.46417387       2.62680237       0.27216910
H        1.19804992       2.02571816       0.33990094
H       -2.69483597      -0.42023708       0.04195002
H       -2.05390876      -2.02837783       0.59415122
H       -1.46393629       0.27468745       1.29213503
15
Frame=5 idx=003518 GeodesicLength=0.34056581618032544 rxn_smarts="[C:1]([O:2]/[C:3](=[N:4]/[C:5]([H:10])([H:11])[H:12])[C:6]([H:13])([H:14])[H:15])([H:7])([H:8])[H:9]>>[C:1]([O:2][C:3]([N:4]([C:5]([H:10])([H:11])[H:12])[H:15])=[C:6]([H:13])[H:14])([H:7])([H:8])[H:9]"
C        1.64726659      -1.01450494      -0.54359744
O        0.25223930      -1.27632675      -0.63448437
C       -0.58293113      -0.51985663       0.07101351
N       -0.26901252       0.59861538       0.70680220
C        0.16353191       1.79667172       0.01278172
C       -1.86902229      -0.94384712       0.51034803
H        1.92742312      -0.14274744      -1.13595884
H        2.14367808      -1.89786231      -0.94000221
H        1.94866691      -0.86075997       0.49409999
H        0.16351779       1.70185974      -1.07671637
H       -0.51551451       2.61169307       0.27008883
H        1.16994520       2.07338478       0.33416797
H       -2.68606138      -0.39303734       0.05015873
H       -2.04989090      -2.01243732       0.57340749
H       -1.44383617       0.27915514       1.30789075
15
Frame=6 idx=003518 GeodesicLength=0.40851696925928754 rxn_smarts="[C:1]([O:2]/[C:3](=[N:4]/[C:5]([H:10])([H:11])[H:12])[C:6]([H:13])([H:14])[H:15])([H:7])([H:8])[H:9]>>[C:1]([O:2][C:3]([N:4]([C:5]([H:10])([H:11])[H:12])[H:15])=[C:6]([H:13])[H:14])([H:7])([H:8])[H:9]"
C        1.65299104      -1.03857740      -0.53947260
O        0.25612005      -1.28495001      -0.63710504
C       -0.57332524      -0.51210273       0.05889785
N       -0.23582878       0.59282582       0.70786280
C        0.14359237       1.80681011       0.01127293
C       -1.85887770      -0.92794993       0.50562893
H        1.94238780      -0.15551910      -1.11034978
H        2.14099081      -1.91754059      -0.95571746
H        1.95634902      -0.91189756       0.50138669
H        0.14686905       1.71152588      -1.07805564
H       -0.56698424       2.59543296       0.26753098
H        1.13920036       2.12176651       0.33039821
H       -2.67709704      -0.36733173       0.05992339
H       -2.04371238      -1.99643583       0.55466557
H       -1.42267510       0.28394361       1.32313316
15
Frame=7 idx=003518 GeodesicLength=0.4764033192056724 rxn_smarts="[C:1]([O:2]/[C:3](=[N:4]/[C:5]([H:10])([H:11])[H:12])[C:6]([H:13])([H:14])[H:15])([H:7])([H:8])[H:9]>>[C:1]([O:2][C:3]([N:4]([C:5]([H:10])([H:11])[H:12])[H:15])=[C:6]([H:13])[H:14])([H:7])([H:8])[H:9]"
C        1.65822557      -1.06336575      -0.53528288
O        0.25951004      -1.29222824      -0.64169602
C       -0.56354638      -0.50344429       0.04565208
N       -0.20300708       0.58851428       0.70587779
C        0.12331501       1.81754285       0.00947026
C       -1.84757599      -0.91209838       0.50162403
H        1.95882108      -0.16898705      -1.08234639
H        2.13749197      -1.93721685      -0.97204240
H        1.96153880      -0.96602986       0.50882752
H        0.13174330       1.72289447      -1.07976474
H       -0.61845974       2.57795559       0.26441288
H        1.10578901       2.17078512       0.32850284
H       -2.66784991      -0.34296840       0.07105018
H       -2.03557850      -1.98038626       0.53777249
H       -1.40041716       0.28903276       1.33794235
15
Frame=8 idx=003518 GeodesicLength=0.5441896441558879 rxn_smarts="[C:1]([O:2]/[C:3](=[N:4]/[C:5]([H:10])([H:11])[H:12])[C:6]([H:13])([H:14])[H:15])([H:7])([H:8])[H:9]>>[C:1]([O:2][C:3]([N:4]([C:5]([H:10])([H:11])[H:12])[H:15])=[C:6]([H:13])[H:14])([H:7])([H:8])[H:9]"
C        1.66294315      -1.08881733      -0.53101596
O        0.26250018      -1.29821286      -0.64809550
C       -0.55353968      -0.49396783       0.03145673
N       -0.17044024       0.58566492       0.70105484
C        0.10267439       1.82879381       0.00739620
C       -1.83510182      -0.89624216       0.49826600
H        1.97653829      -0.18334378      -1.05205014
H        2.13331962      -1.95675524      -0.98881606
H        1.96413540      -1.02290723       0.51625848
H        0.11785874       1.73592681      -1.08180857
H       -0.66980571       2.55919041       0.26075626
H        1.06966944       2.22027003       0.32834320
H       -2.65814446      -0.31977983       0.08337297
H       -2.02559410      -1.96426265       0.52254953
H       -1.37701321       0.29444292       1.35233200
15
Frame=9 idx=003518 GeodesicLength=0.6118815255898041 rxn_smarts="[C:1]([O:2]/[C:3](=[N:4]/[C:5]([H:10])([H:11])[H:12])[C:6]([H:13])([H:14])[H:15])([H:7])([H:8])[H:9]>>[C:1]([O:2][C:3]([N:4]([C:5]([H:10])([H:11])[H:12])[H:15])=[C:6]([H:13])[H:14])([H:7])([H:8])[H:9]"
C        1.66711240      -1.11486250      -0.52667324
O        0.26519373      -1.30294909      -0.65618204
C       -0.54326483      -0.48370657       0.01638487
N       -0.13804953       0.58428068       0.69354036
C        0.08172032       1.84052340       0.00507339
C       -1.82149759      -0.88039934       0.49549829
H        1.99529279      -0.19882201      -1.01965326
H        2.12864307      -1.97604309      -1.00582326
H        1.96401396      -1.08215338       0.52348879
H        0.10507216       1.75066729      -1.08413337
H       -0.72079624       2.53914679       0.25653579
H        1.03086254       2.27001215       0.32992621
H       -2.64797511      -0.29775454       0.09674460
H       -2.01385672      -1.94811755       0.50896481
H       -1.35247094       0.30017777       1.36630807
15
Frame=10 idx=003518 GeodesicLength=0.6794720936802577 rxn_smarts="[C:1]([O:2]/[C:3](=[N:4]/[C:5]([H:10])([H:11])[H:12])[C:6]([H:13])([H:14])[H:15])([H:7])([H:8])[H:9]>>[C:1]([O:2][C:3]([N:4]([C:5]([H:10])([H:11])[H:12])[H:15])=[C:6]([H:13])[H:14])([H:7])([H:8])[H:9]"
C        1.67068675      -1.14143812      -0.52224041
O        0.26768024      -1.30647106      -0.66583924
C       -0.53270424      -0.47269663       0.00049446
N       -0.10578511       0.58436196       0.68343856
C        0.06047210       1.85267369       0.00253373
C       -1.80675343      -0.86456083       0.49325855
H        2.01485749      -0.21562486      -0.98532322
H        2.12359798      -1.99500746      -1.02282898
H        1.96104266      -1.14340567       0.53036034
H        0.09316841       1.76714773      -1.08667832
H       -0.77122382       2.51783420       0.25179721
H        0.98938404       2.31974106       0.33320060
H       -2.63726421      -0.27685013       0.11104354
H       -2.00038511      -1.93196891       0.49694600
H       -1.32677373       0.30626502       1.37983718
15
Frame=11 idx=003518 GeodesicLength=0.7469693010151691 rxn_smarts="[C:1]([O:2]/[C:3](=[N:4]/[C:5]([H:10])([H:11])[H:12])[C:6]([H:13])([H:14])[H:15])([H:7])([H:8])[H:9]>>[C:1]([O:2][C:3]([N:4]([C:5]([H:10])([H:11])[H:12])[H:15])=[C:6]([H:13])[H:14])([H:7])([H:8])[H:9]"
C        1.67362289      -1.16847536      -0.51769660
O        0.27005231      -1.30882670      -0.67694537
C       -0.52184913      -0.46097367      -0.01618187
N       -0.07361303       0.58590687       0.67082738
C        0.03895629       1.86518713      -0.00018724
C       -1.79086924      -0.84872335       0.49147780
H        2.03498898      -0.23393444      -0.94926509
H        2.11832271      -2.01361090      -1.03957227
H        1.95511880      -1.20624664       0.53673764
H        0.08190888       1.78540864      -1.08937979
H       -0.82086640       2.49529142       0.24662069
H        0.94529314       2.36914526       0.33811051
H       -2.62595694      -0.25703462       0.12615246
H       -1.98520011      -1.91583980       0.48641760
H       -1.29990916       0.31272619       1.39288416
15
Frame=12 idx=003518 GeodesicLength=0.814398794377794 rxn_smarts="[C:1]([O:2]/[C:3](=[N:4]/[C:5]([H:10])([H:11])[H:12])[C:6]([H:13])([H:14])[H:15])([H:7])([H:8])[H:9]>>[C:1]([O:2][C:3]([N:4]([C:5]([H:10])([H:11])[H:12])[H:15])=[C:6]([H:13])[H:14])([H:7])([H:8])[H:9]"
C        1.67588150      -1.19591040      -0.51301318
O        0.27240428      -1.31007267      -0.68938921
C       -0.51069963      -0.44857324      -0.03363486
N       -0.04151468       0.58891563       0.65575499
C        0.01719888       1.87801695      -0.00305399
C       -1.77384789      -0.83289077       0.49008256
H        2.05545348      -0.25389959      -0.91168588
H        2.11295280      -2.03186172      -1.05578391
H        1.94615534      -1.27024841       0.54251996
H        0.07101545       1.80550007      -1.09218247
H       -0.86950473       2.47159624       0.24113455
H        0.89869669       2.41789784       0.34457770
H       -2.61400829      -0.23828408       0.14196650
H       -1.96831696      -1.89976398       0.47729704
H       -1.27186622       0.31957817       1.40541020
15
Frame=13 idx=003518 GeodesicLength=0.8819668780346248 rxn_smarts="[C:1]([O:2]/[C:3](=[N:4]/[C:5]([H:10])([H:11])[H:12])[C:6]([H:13])([H:14])[H:15])([H:7])([H:8])[H:9]>>[C:1]([O:2][C:3]([N:4]([C:5]([H:10])([H:11])[H:12])[H:15])=[C:6]([H:13])[H:14])([H:7])([H:8])[H:9]"
C        1.67747619      -1.22375831      -0.50820690
O        0.27484855      -1.31036909      -0.70315891
C       -0.49928975      -0.43555474      -0.05192094
N       -0.00949262       0.59346061       0.63823843
C       -0.00473103       1.89126983      -0.00604552
C       -1.75578772      -0.81716100       0.48906098
H        2.07614422      -0.27563461      -0.87280740
H        2.10770388      -2.04992693      -1.07131509
H        1.93404115      -1.33504713       0.54765260
H        0.06043640       1.82758887      -1.09510174
H       -0.91699788       2.44695519       0.23537861
H        0.84972144       2.46594264       0.35267174
H       -2.60151393      -0.22068673       0.15848914
H       -1.94984619      -1.88394874       0.46958638
H       -1.24271270       0.32687015       1.41747862
15
Frame=14 idx=003518 GeodesicLength=0.9491527772213624 rxn_smarts="[C:1]([O:2]/[C:3](=[N:4]/[C:5]([H:10])([H:11])[H:12])[C:6]([H:13])([H:14])[H:15])([H:7])([H:8])[H:9]>>[C:1]([O:2][C:3]([N:4]([C:5]([H:10])([H:11])[H:12])[H:15])=[C:6]([H:13])[H:14])([H:7])([H:8])[H:9]"
C        1.67821417      -1.25174659      -0.50296958
O        0.27745492      -1.30944642      -0.71796217
C       -0.48756710      -0.42190116      -0.07092380
N        0.02240721       0.59934247       0.61838837
C       -0.02696406       1.90446690      -0.00910228
C       -1.73642716      -0.80140073       0.48821297
H        2.09657223      -0.29921247      -0.83274827
H        2.10245003      -2.06756404      -1.08547110
H        1.91880427      -1.39978923       0.55227543
H        0.04873301       1.85128944      -1.09798647
H       -0.96277928       2.42149155       0.23021774
H        0.79895189       2.51209852       0.36128708
H       -2.58803679      -0.20388831       0.17555859
H       -1.92962738      -1.86806390       0.46228418
H       -1.21218595       0.33432396       1.42893929
15
Frame=15 idx=003518 GeodesicLength=1.0164779842022558 rxn_smarts="[C:1]([O:2]/[C:3](=[N:4]/[C:5]([H:10])([H:11])[H:12])[C:6]([H:13])([H:14])[H:15])([H:7])([H:8])[H:9]>>[C:1]([O:2][C:3]([N:4]([C:5]([H:10])([H:11])[H:12])[H:15])=[C:6]([H:13])[H:14])([H:7])([H:8])[H:9]"
C        1.67802975      -1.27991196      -0.49748355
O        0.28026494      -1.30743574      -0.73386549
C       -0.47550977      -0.40755160      -0.09089449
N        0.05438132       0.60664868       0.59584305
C       -0.04941365       1.91772785      -0.01224519
C       -1.71571154      -0.78544264       0.48740740
H        2.11643584      -0.32466878      -0.79133203
H        2.09726050      -2.08479987      -1.09838385
H        1.90015845      -1.46486872       0.55603331
H        0.03655585       1.87690141      -1.10073394
H       -1.00722560       2.39473653       0.22487588
H        0.74583620       2.55645356       0.37166577
H       -2.57363604      -0.18803833       0.19294375
H       -1.90734340      -1.85199808       0.45665421
H       -1.18008286       0.34224769       1.43951516
15
Frame=16 idx=003518 GeodesicLength=1.083998169143031 rxn_smarts="[C:1]([O:2]/[C:3](=[N:4]/[C:5]([H:10])([H:11])[H:12])[C:6]([H:13])([H:14])[H:15])([H:7])([H:8])[H:9]>>[C:1]([O:2][C:3]([N:4]([C:5]([H:10])([H:11])[H:12])[H:15])=[C:6]([H:13])[H:14])([H:7])([H:8])[H:9]"
C        1.67705080      -1.30827105      -0.49162970
O        0.28349233      -1.30457686      -0.75087789
C       -0.46318375      -0.39269268      -0.11179805
N        0.08625230       0.61547744       0.57076484
C       -0.07204130       1.93121793      -0.01542661
C       -1.69388553      -0.76957503       0.48665204
H        2.13585700      -0.35194653      -0.74881704
H        2.09249534      -2.10198991      -1.10981899
H        1.87812177      -1.52965680       0.55919552
H        0.02301968       1.90445122      -1.10352312
H       -1.04992472       2.36749117       0.22029523
H        0.69129984       2.59894641       0.38287694
H       -2.55845516      -0.17318450       0.21074699
H       -1.88341106      -1.83621701       0.45190322
H       -1.14668755       0.35052620       1.44945663
