10
Frame=0 idx=001600 GeodesicLength=0.0 rxn_smarts="[O:1]([C:2]([C:3]#[C:4][C:5](=[O:6])[H:10])([H:8])[H:9])[H:7]>>[H:8][H:10].[O:1]([C:2](=[C:3]=[C:4]=[C:5]=[O:6])[H:9])[H:7]"
O       -1.80477104      -1.12371278       0.08334624
C       -1.12900298       0.05422200      -0.02840856
C       -0.21930313       0.23953991      -1.03270655
C        0.98605713       0.40564774      -1.32337990
C        1.99026623       0.23194636      -0.34582342
O        3.13303659       0.20687644      -0.13454768
H       -2.55455112      -1.01009505       0.66922166
H        0.15334035       0.01413047       0.90325816
H       -1.63572878       0.93839557       0.35636266
H        1.08065676       0.04304933       0.85267739
10
Frame=1 idx=001600 GeodesicLength=0.08811502363071383 rxn_smarts="[O:1]([C:2]([C:3]#[C:4][C:5](=[O:6])[H:10])([H:8])[H:9])[H:7]>>[H:8][H:10].[O:1]([C:2](=[C:3]=[C:4]=[C:5]=[O:6])[H:9])[H:7]"
O       -1.80449535      -1.12924435       0.09764483
C       -1.12718885       0.05004897      -0.00877384
C       -0.22241259       0.23347390      -1.02114826
C        0.98354793       0.39359764      -1.31438937
C        2.00249530       0.21546990      -0.35545016
O        3.15187123       0.23520805      -0.17417208
H       -2.60126662      -0.99988215       0.61407639
H        0.15588874       0.01367865       0.93126570
H       -1.64531069       0.93712244       0.35421863
H        1.10687091       0.05052696       0.87672816
10
Frame=2 idx=001600 GeodesicLength=0.17607179113856222 rxn_smarts="[O:1]([C:2]([C:3]#[C:4][C:5](=[O:6])[H:10])([H:8])[H:9])[H:7]>>[H:8][H:10].[O:1]([C:2](=[C:3]=[C:4]=[C:5]=[O:6])[H:9])[H:7]"
O       -1.80875797      -1.13268608       0.11265359
C       -1.12561203       0.04539163       0.01085152
C       -0.22539431       0.22338556      -1.00970013
C        0.98104901       0.37759103      -1.30553623
C        2.01465454       0.20964486      -0.36317131
O        3.16901614       0.26405124      -0.21465838
H       -2.64469825      -0.98705686       0.55781531
H        0.15797047       0.00866220       0.95936915
H       -1.65209004       0.93656218       0.35175372
H        1.13386244       0.05445423       0.90062276
10
Frame=3 idx=001600 GeodesicLength=0.2639957251342314 rxn_smarts="[O:1]([C:2]([C:3]#[C:4][C:5](=[O:6])[H:10])([H:8])[H:9])[H:7]>>[H:8][H:10].[O:1]([C:2](=[C:3]=[C:4]=[C:5]=[O:6])[H:9])[H:7]"
O       -1.81254051      -1.13529051       0.13026929
C       -1.12450398       0.04196535       0.03161819
C       -0.22901266       0.21420324      -0.99729178
C        0.97800028       0.36075938      -1.29603202
C        2.02657363       0.20138822      -0.37139481
O        3.18398580       0.29196881      -0.25640680
H       -2.68384310      -0.97649379       0.49588398
H        0.15942749       0.00697839       0.98896353
H       -1.65988452       0.93657440       0.34966793
H        1.16179757       0.05794651       0.92472250
10
Frame=4 idx=001600 GeodesicLength=0.35184389977330766 rxn_smarts="[O:1]([C:2]([C:3]#[C:4][C:5](=[O:6])[H:10])([H:8])[H:9])[H:7]>>[H:8][H:10].[O:1]([C:2](=[C:3]=[C:4]=[C:5]=[O:6])[H:9])[H:7]"
O       -1.81883212      -1.13627130       0.14778982
C       -1.12406543       0.03911132       0.05197350
C       -0.23268431       0.20389085      -0.98497428
C        0.97498932       0.34242728      -1.28613404
C        2.03819052       0.19804080      -0.37853499
O        3.19731560       0.31805925      -0.29894300
H       -2.71734936      -0.96666242       0.43404466
H        0.15953768       0.00496421       1.01900748
H       -1.66720826       0.93735760       0.34675060
H        1.19010636       0.05908241       0.94902024
10
Frame=5 idx=001600 GeodesicLength=0.43976829414299046 rxn_smarts="[O:1]([C:2]([C:3]#[C:4][C:5](=[O:6])[H:10])([H:8])[H:9])[H:7]>>[H:8][H:10].[O:1]([C:2](=[C:3]=[C:4]=[C:5]=[O:6])[H:9])[H:7]"
O       -1.82652161      -1.13524647       0.16640378
C       -1.12420094       0.03770515       0.07266137
C       -0.23663003       0.19386363      -0.97221845
C        0.97194234       0.32188595      -1.27574174
C        2.04989490       0.19100124      -0.38630078
O        3.20781217       0.34864374      -0.34142065
H       -2.74582961      -0.95795920       0.37009503
H        0.15865367       0.00435154       1.04993235
H       -1.67459309       0.93946423       0.34351529
H        1.21947219       0.05629019       0.97307381
10
Frame=6 idx=001600 GeodesicLength=0.527692080626656 rxn_smarts="[O:1]([C:2]([C:3]#[C:4][C:5](=[O:6])[H:10])([H:8])[H:9])[H:7]>>[H:8][H:10].[O:1]([C:2](=[C:3]=[C:4]=[C:5]=[O:6])[H:9])[H:7]"
O       -1.83638964      -1.13386739       0.18403013
C       -1.12493031       0.03574176       0.09314599
C       -0.24083693       0.18294454      -0.95924216
C        0.96842025       0.30330007      -1.26428346
C        2.06077722       0.19104550      -0.39281575
O        3.21805350       0.36919146      -0.38637852
H       -2.76899489      -0.95053637       0.30509874
H        0.15641695       0.00103538       1.08145858
H       -1.68162805       0.94076396       0.34053105
H        1.24911192       0.06038110       0.99845540
10
Frame=7 idx=001600 GeodesicLength=0.6156119554461883 rxn_smarts="[O:1]([C:2]([C:3]#[C:4][C:5](=[O:6])[H:10])([H:8])[H:9])[H:7]>>[H:8][H:10].[O:1]([C:2](=[C:3]=[C:4]=[C:5]=[O:6])[H:9])[H:7]"
O       -1.84611455      -1.13090922       0.20168495
C       -1.12660377       0.03589851       0.11316009
C       -0.24534793       0.17421871      -0.94614203
C        0.96488203       0.28494729      -1.25206804
C        2.07155392       0.18726721      -0.39983184
O        3.22577703       0.39037300      -0.43107104
H       -2.78554657      -0.94670444       0.24063296
H        0.15224992       0.00219592       1.11385276
H       -1.69038600       0.94326191       0.33627631
H        1.27953591       0.05945112       1.02350588
10
Frame=8 idx=001600 GeodesicLength=0.7035132427131283 rxn_smarts="[O:1]([C:2]([C:3]#[C:4][C:5](=[O:6])[H:10])([H:8])[H:9])[H:7]>>[H:8][H:10].[O:1]([C:2](=[C:3]=[C:4]=[C:5]=[O:6])[H:9])[H:7]"
O       -1.85508623      -1.12771974       0.21713415
C       -1.12938712       0.03753236       0.13200976
C       -0.25011923       0.16861978      -0.93319908
C        0.96125736       0.27092726      -1.23864940
C        2.08190217       0.18237040      -0.40674625
O        3.23249938       0.40434296      -0.47623528
H       -2.79538654      -0.94763438       0.17917063
H        0.14568531       0.00721978       1.14682205
H       -1.70166696       0.94570056       0.33082017
H        1.31030186       0.05864101       1.04887324
10
Frame=9 idx=001600 GeodesicLength=0.79145683298889 rxn_smarts="[O:1]([C:2]([C:3]#[C:4][C:5](=[O:6])[H:10])([H:8])[H:9])[H:7]>>[H:8][H:10].[O:1]([C:2](=[C:3]=[C:4]=[C:5]=[O:6])[H:9])[H:7]"
O       -1.86747678      -1.12337154       0.23063965
C       -1.13257993       0.03849056       0.15027353
C       -0.25467356       0.16114772      -0.92040820
C        0.95792402       0.25449238      -1.22486297
C        2.09217817       0.18155698      -0.41302700
O        3.23831477       0.41828265      -0.52231509
H       -2.80260215      -0.94688006       0.11903708
H        0.13759055       0.00772569       1.18007436
H       -1.71084263       0.94815660       0.32568536
H        1.34216753       0.06039901       1.07490328
10
Frame=10 idx=001600 GeodesicLength=0.8795422201103094 rxn_smarts="[O:1]([C:2]([C:3]#[C:4][C:5](=[O:6])[H:10])([H:8])[H:9])[H:7]>>[H:8][H:10].[O:1]([C:2](=[C:3]=[C:4]=[C:5]=[O:6])[H:9])[H:7]"
O       -1.87825421      -1.11864007       0.24516349
C       -1.13693827       0.04150181       0.16888751
C       -0.26002916       0.15744841      -0.90671601
C        0.95375729       0.24329979      -1.20961935
C        2.10197011       0.17747481      -0.42011373
O        3.24275534       0.42494805      -0.56971072
H       -2.80270575      -0.95229227       0.05605539
H        0.12737973       0.01430186       1.21484155
H       -1.72338243       0.95073327       0.32025545
H        1.37544736       0.06122434       1.10095641
10
Frame=11 idx=001600 GeodesicLength=0.9676999503558071 rxn_smarts="[O:1]([C:2]([C:3]#[C:4][C:5](=[O:6])[H:10])([H:8])[H:9])[H:7]>>[H:8][H:10].[O:1]([C:2](=[C:3]=[C:4]=[C:5]=[O:6])[H:9])[H:7]"
O       -1.89084004      -1.11350620       0.25694315
C       -1.14205596       0.04438861       0.18653948
C       -0.26520513       0.15385152      -0.89317176
C        0.94991029       0.23271889      -1.19359446
C        2.11167546       0.17645698      -0.42662971
O        3.24680384       0.42803842      -0.61823748
H       -2.79960593      -0.95819303      -0.00411745
H        0.11487879       0.01895913       1.25009695
H       -1.73565677       0.95311515       0.31453133
H        1.41009543       0.06417055       1.12763993
10
Frame=12 idx=001600 GeodesicLength=1.0558540246796468 rxn_smarts="[O:1]([C:2]([C:3]#[C:4][C:5](=[O:6])[H:10])([H:8])[H:9])[H:7]>>[H:8][H:10].[O:1]([C:2](=[C:3]=[C:4]=[C:5]=[O:6])[H:9])[H:7]"
O       -1.90438372      -1.10629726       0.26898575
C       -1.14795666       0.04904562       0.20267478
C       -0.26995099       0.14939446      -0.88033653
C        0.94676514       0.21938709      -1.17725421
C        2.12185456       0.17542879      -0.43336265
O        3.24845754       0.43826074      -0.66531880
H       -2.79326967      -0.96505882      -0.05984061
H        0.09972474       0.02803718       1.28584085
H       -1.74808500       0.95728086       0.30516069
H        1.44684406       0.05452133       1.15345074
10
Frame=13 idx=001600 GeodesicLength=1.1439810203574774 rxn_smarts="[O:1]([C:2]([C:3]#[C:4][C:5](=[O:6])[H:10])([H:8])[H:9])[H:7]>>[H:8][H:10].[O:1]([C:2](=[C:3]=[C:4]=[C:5]=[O:6])[H:9])[H:7]"
O       -1.91958449      -1.09952374       0.27745657
C       -1.15455039       0.05275631       0.21817405
C       -0.27451465       0.14528293      -0.86726283
C        0.94384757       0.20768132      -1.15978807
C        2.13201607       0.17747039      -0.43970172
O        3.25009077       0.44258536      -0.71433887
H       -2.78491287      -0.97170263      -0.11388972
H        0.08193501       0.03404992       1.32235080
H       -1.75999295       0.96041110       0.29680530
H        1.48566593       0.05098904       1.18019450
10
Frame=14 idx=001600 GeodesicLength=1.2321941561899399 rxn_smarts="[O:1]([C:2]([C:3]#[C:4][C:5](=[O:6])[H:10])([H:8])[H:9])[H:7]>>[H:8][H:10].[O:1]([C:2](=[C:3]=[C:4]=[C:5]=[O:6])[H:9])[H:7]"
O       -1.93317986      -1.09195092       0.28667225
C       -1.16244868       0.05900808       0.23302194
C       -0.27938515       0.14419236      -0.85389735
C        0.94071518       0.20032170      -1.14104237
C        2.14215367       0.17693411      -0.44681646
O        3.24994664       0.44515803      -0.76327597
H       -2.77047338      -0.98385152      -0.16667402
H        0.06082585       0.04812070       1.35999993
H       -1.77517081       0.96418443       0.28590286
H        1.52701653       0.03788303       1.20610919
10
Frame=15 idx=001600 GeodesicLength=1.3204567529130888 rxn_smarts="[O:1]([C:2]([C:3]#[C:4][C:5](=[O:6])[H:10])([H:8])[H:9])[H:7]>>[H:8][H:10].[O:1]([C:2](=[C:3]=[C:4]=[C:5]=[O:6])[H:9])[H:7]"
O       -1.94747911      -1.08392069       0.29466333
C       -1.17129404       0.06590857       0.24684771
C       -0.28398165       0.14316276      -0.84055433
C        0.93800204       0.19370450      -1.12120491
C        2.15246340       0.17949509      -0.45361001
O        3.24902124       0.44648407      -0.81305567
H       -2.75339420      -0.99734716      -0.21654042
H        0.03628496       0.06472576       1.39855402
H       -1.79091643       0.96815045       0.27306870
H        1.57129380       0.01963665       1.23183159
10
Frame=16 idx=001600 GeodesicLength=1.4087268028492672 rxn_smarts="[O:1]([C:2]([C:3]#[C:4][C:5](=[O:6])[H:10])([H:8])[H:9])[H:7]>>[H:8][H:10].[O:1]([C:2](=[C:3]=[C:4]=[C:5]=[O:6])[H:9])[H:7]"
O       -1.96334574      -1.07428606       0.30283010
C       -1.18091614       0.07379479       0.25939942
C       -0.28793842       0.14011177      -0.82743125
C        0.93615798       0.18437669      -1.10032931
C        2.16313983       0.18600560      -0.45995532
O        3.24634934       0.45217756      -0.86282424
H       -2.73441833      -1.01134080      -0.26274221
H        0.00811601       0.08515072       1.43782230
H       -1.80618091       0.97313655       0.25665293
H        1.61903638      -0.00912682       1.25657757
