15
Frame=0 idx=008486 GeodesicLength=0.0 rxn_smarts="[C:1]([O:2][C:3](=[O:4])[C:5]([C:6]([O:7][H:15])([H:13])[H:14])([H:11])[H:12])([H:8])([H:9])[H:10]>>[C:1]([O:2][C@@:3]1([O:4][H:15])[C:5]([H:11])([H:12])[C:6]([H:13])([H:14])[O:7]1)([H:8])([H:9])[H:10]"
C       -2.35210182       0.08412374      -0.45052796
O       -1.26792401      -0.32655339       0.39424559
C       -0.12762653       0.29022645       0.24031349
O       -0.09585626       1.47745847      -0.30176258
C        1.01779879      -0.19986615       1.10496428
C        1.91170807      -0.55388170      -0.08963337
O        1.00992942      -0.27969479      -1.14931256
H       -2.07644891      -0.06763143      -1.49387454
H       -3.18549923      -0.55825923      -0.18094222
H       -2.59547031       1.12999798      -0.27760418
H        1.37126858       0.59906019       1.75665600
H        0.71807055      -1.05848972       1.70271787
H        2.82698435       0.04354530      -0.15686418
H        2.19414483      -1.60960794      -0.08560988
H        0.65102253       1.02957217      -1.01276581
15
Frame=1 idx=008486 GeodesicLength=0.11469290138095413 rxn_smarts="[C:1]([O:2][C:3](=[O:4])[C:5]([C:6]([O:7][H:15])([H:13])[H:14])([H:11])[H:12])([H:8])([H:9])[H:10]>>[C:1]([O:2][C@@:3]1([O:4][H:15])[C:5]([H:11])([H:12])[C:6]([H:13])([H:14])[O:7]1)([H:8])([H:9])[H:10]"
C       -2.35010883       0.06488037      -0.44939954
O       -1.26745388      -0.31503720       0.41000819
C       -0.12780483       0.30568576       0.24247669
O       -0.11862535       1.49770952      -0.28813638
C        1.01883337      -0.18795267       1.10087152
C        1.90240652      -0.56758874      -0.09016769
O        1.04363785      -0.21826517      -1.16057179
H       -2.06535717      -0.10019214      -1.48834131
H       -3.17696942      -0.58347350      -0.17356711
H       -2.61091012       1.10971065      -0.29560089
H        1.38101674       0.61309811       1.74508434
H        0.72010077      -1.03566275       1.71441759
H        2.85513489      -0.02986435      -0.13021196
H        2.12419134      -1.63752461      -0.12270651
H        0.67190812       1.08447673      -1.01415515
15
Frame=2 idx=008486 GeodesicLength=0.22950179968891843 rxn_smarts="[C:1]([O:2][C:3](=[O:4])[C:5]([C:6]([O:7][H:15])([H:13])[H:14])([H:11])[H:12])([H:8])([H:9])[H:10]>>[C:1]([O:2][C@@:3]1([O:4][H:15])[C:5]([H:11])([H:12])[C:6]([H:13])([H:14])[O:7]1)([H:8])([H:9])[H:10]"
C       -2.34729300       0.04480184      -0.44812671
O       -1.26677840      -0.30345447       0.42575576
C       -0.12793715       0.32128475       0.24454800
O       -0.14151699       1.51714659      -0.27558196
C        1.02000720      -0.17561045       1.09690320
C        1.89176839      -0.58137932      -0.09111202
O        1.08124643      -0.15446747      -1.16839897
H       -2.05304793      -0.13387038      -1.48223485
H       -3.16752186      -0.60931980      -0.16572104
H       -2.62557259       1.08803560      -0.31422487
H        1.39133744       0.62784582       1.73280137
H        0.72275166      -1.01203825       1.72637348
H        2.87888958      -0.10899423      -0.10355442
H        2.04971503      -1.66099700      -0.16269661
H        0.69395219       1.14101678      -1.01473036
15
Frame=3 idx=008486 GeodesicLength=0.34447025474039034 rxn_smarts="[C:1]([O:2][C:3](=[O:4])[C:5]([C:6]([O:7][H:15])([H:13])[H:14])([H:11])[H:12])([H:8])([H:9])[H:10]>>[C:1]([O:2][C@@:3]1([O:4][H:15])[C:5]([H:11])([H:12])[C:6]([H:13])([H:14])[O:7]1)([H:8])([H:9])[H:10]"
C       -2.34380221       0.02414671      -0.44652861
O       -1.26597307      -0.29181203       0.44138698
C       -0.12798921       0.33676787       0.24631454
O       -0.16418696       1.53534711      -0.26474633
C        1.02118712      -0.16312549       1.09308087
C        1.88002122      -0.59497116      -0.09232569
O        1.12320369      -0.08907578      -1.17217442
H       -2.03994383      -0.16853477      -1.47539976
H       -3.15743061      -0.63527993      -0.15702271
H       -2.63926018       1.06527246      -0.33327473
H        1.40174483       0.64292183       1.72010957
H        0.72588220      -0.98816158       1.73822685
H        2.89741791      -0.19292536      -0.07697841
H        1.97200537      -1.67893025      -0.20550885
H        0.71712373       1.19836036      -1.01515930
15
Frame=4 idx=008486 GeodesicLength=0.45972842065099423 rxn_smarts="[C:1]([O:2][C:3](=[O:4])[C:5]([C:6]([O:7][H:15])([H:13])[H:14])([H:11])[H:12])([H:8])([H:9])[H:10]>>[C:1]([O:2][C@@:3]1([O:4][H:15])[C:5]([H:11])([H:12])[C:6]([H:13])([H:14])[O:7]1)([H:8])([H:9])[H:10]"
C       -2.33977375       0.00314064      -0.44445039
O       -1.26518828      -0.27992735       0.45701527
C       -0.12795542       0.35198270       0.24770394
O       -0.18629383       1.55204339      -0.25614536
C        1.02223909      -0.15081757       1.08945643
C        1.86736762      -0.60809879      -0.09373996
O        1.16969716      -0.02284490      -1.17131834
H       -2.02628890      -0.20430606      -1.46762839
H       -3.14699163      -0.66084419      -0.14709957
H       -2.65183304       1.04173142      -0.35283642
H        1.41181300       0.65786570       1.70740722
H        0.72929953      -0.96466309       1.74964761
H        2.91001866      -0.28059501      -0.05073920
H        1.89248551      -1.69041231      -0.25114957
H        0.74140428       1.25574541      -1.01612327
15
Frame=5 idx=008486 GeodesicLength=0.5753030381587229 rxn_smarts="[C:1]([O:2][C:3](=[O:4])[C:5]([C:6]([O:7][H:15])([H:13])[H:14])([H:11])[H:12])([H:8])([H:9])[H:10]>>[C:1]([O:2][C@@:3]1([O:4][H:15])[C:5]([H:11])([H:12])[C:6]([H:13])([H:14])[O:7]1)([H:8])([H:9])[H:10]"
C       -2.33551638      -0.01787970      -0.44165935
O       -1.26454997      -0.26779933       0.47247919
C       -0.12782038       0.36661228       0.24845726
O       -0.20744430       1.56679448      -0.25049513
C        1.02297255      -0.13905127       1.08604891
C        1.85422169      -0.62045075      -0.09518628
O        1.22091967       0.04325851      -1.16533690
H       -2.01275078      -0.24092996      -1.45872249
H       -3.13665930      -0.68540738      -0.13553215
H       -2.66321797       1.01780224      -0.37252854
H        1.42089496       0.67218487       1.69517346
H        0.73271605      -0.94223677       1.76023492
H        2.91629234      -0.37040376      -0.02490190
H        1.81305211      -1.69463868      -0.29946287
H        0.76688973       1.31214523      -1.01856813
15
Frame=6 idx=008486 GeodesicLength=0.6911816577593607 rxn_smarts="[C:1]([O:2][C:3](=[O:4])[C:5]([C:6]([O:7][H:15])([H:13])[H:14])([H:11])[H:12])([H:8])([H:9])[H:10]>>[C:1]([O:2][C@@:3]1([O:4][H:15])[C:5]([H:11])([H:12])[C:6]([H:13])([H:14])[O:7]1)([H:8])([H:9])[H:10]"
C       -2.33110149      -0.03874621      -0.43805787
O       -1.26431314      -0.25495234       0.48819195
C       -0.12764663       0.38069389       0.24878576
O       -0.22732592       1.57957911      -0.24799403
C        1.02324196      -0.12815990       1.08294614
C        1.84066923      -0.63176965      -0.09674079
O        1.27637985       0.10855840      -1.15380813
H       -1.99923118      -0.27886265      -1.44836231
H       -3.12670375      -0.70847564      -0.12205425
H       -2.67332593       0.99373652      -0.39287409
H        1.42869223       0.68534088       1.68392887
H        0.73586994      -0.92156743       1.76972965
H        2.91592162      -0.46110288      -0.00001335
H        1.73529497      -1.69112899      -0.35051448
H        0.79357824       1.36685687      -1.02316307
15
Frame=7 idx=008486 GeodesicLength=0.8072806045520767 rxn_smarts="[C:1]([O:2][C:3](=[O:4])[C:5]([C:6]([O:7][H:15])([H:13])[H:14])([H:11])[H:12])([H:8])([H:9])[H:10]>>[C:1]([O:2][C@@:3]1([O:4][H:15])[C:5]([H:11])([H:12])[C:6]([H:13])([H:14])[O:7]1)([H:8])([H:9])[H:10]"
C       -2.32671013      -0.05925162      -0.43350250
O       -1.26468013      -0.24113893       0.50427248
C       -0.12749493       0.39415684       0.24876431
O       -0.24565270       1.59026793      -0.24893872
C        1.02287520      -0.11843888       1.08020282
C        1.82692712      -0.64178551      -0.09841706
O        1.33561921       0.17238663      -1.13642859
H       -1.98593560      -0.31818516      -1.43624954
H       -3.11746513      -0.72958950      -0.10643811
H       -2.68213284       0.96975281      -0.41394982
H        1.43478803       0.69688611       1.67417628
H        0.73845892      -0.90326817       1.77787915
H        2.90892919      -0.55126139       0.02350611
H        1.66085253      -1.67959463      -0.40419397
H        0.82162126       1.41906345      -1.03068285
15
Frame=8 idx=008486 GeodesicLength=0.9235542219636242 rxn_smarts="[C:1]([O:2][C:3](=[O:4])[C:5]([C:6]([O:7][H:15])([H:13])[H:14])([H:11])[H:12])([H:8])([H:9])[H:10]>>[C:1]([O:2][C@@:3]1([O:4][H:15])[C:5]([H:11])([H:12])[C:6]([H:13])([H:14])[O:7]1)([H:8])([H:9])[H:10]"
C       -2.32248469      -0.07925155      -0.42788835
O       -1.26584050      -0.22608166       0.52087500
C       -0.12745493       0.40702909       0.24856335
O       -0.26226013       1.59885690      -0.25349537
C        1.02173593      -0.11012327       1.07790073
C        1.81316106      -0.65027075      -0.10028797
O        1.39803645       0.23430852      -1.11301055
H       -1.97293821      -0.35903866      -1.42208352
H       -3.10921669      -0.74839428      -0.08854023
H       -2.68967444       0.94597034      -0.43593016
H        1.43886671       0.70645248       1.66641235
H        0.74024006      -0.88787026       1.78453992
H        2.89555588      -0.63970752       0.04515234
H        1.59106870      -1.65995470      -0.46037764
H        0.85120482       1.46807531      -1.04182988
15
Frame=9 idx=008486 GeodesicLength=1.0397818631860378 rxn_smarts="[C:1]([O:2][C:3](=[O:4])[C:5]([C:6]([O:7][H:15])([H:13])[H:14])([H:11])[H:12])([H:8])([H:9])[H:10]>>[C:1]([O:2][C@@:3]1([O:4][H:15])[C:5]([H:11])([H:12])[C:6]([H:13])([H:14])[O:7]1)([H:8])([H:9])[H:10]"
C       -2.31889338      -0.09842241      -0.42101952
O       -1.26793320      -0.21001106       0.53760593
C       -0.12760281       0.41898844       0.24799277
O       -0.27689020       1.60492574      -0.26207212
C        1.01961426      -0.10343076       1.07600525
C        1.79988393      -0.65690951      -0.10225708
O        1.46314504       0.29369408      -1.08345647
H       -1.96112515      -0.40066225      -1.40574603
H       -3.10247784      -0.76452623      -0.06829052
H       -2.69619039       0.92266022      -0.45793457
H        1.44032568       0.71378058       1.66101741
H        0.74086145      -0.87582499       1.78944005
H        2.87664750      -0.72468170       0.06490574
H        1.52785129      -1.63229360      -0.51866000
H        0.88278383       1.51271344      -1.05753084
15
Frame=10 idx=008486 GeodesicLength=1.1559651510888393 rxn_smarts="[C:1]([O:2][C:3](=[O:4])[C:5]([C:6]([O:7][H:15])([H:13])[H:14])([H:11])[H:12])([H:8])([H:9])[H:10]>>[C:1]([O:2][C@@:3]1([O:4][H:15])[C:5]([H:11])([H:12])[C:6]([H:13])([H:14])[O:7]1)([H:8])([H:9])[H:10]"
C       -2.31579491      -0.11684195      -0.41292100
O       -1.27112332      -0.19242462       0.55491339
C       -0.12807977       0.43042187       0.24759947
O       -0.28960257       1.60880759      -0.27437410
C        1.01646319      -0.09841324       1.07463187
C        1.78694180      -0.66151832      -0.10459125
O        1.52997538       0.35071443      -1.04768160
H       -1.94989781      -0.44364469      -1.38686545
H       -3.09720256      -0.77789623      -0.04576565
H       -2.70167282       0.89962800      -0.48072537
H        1.43920931       0.71866239       1.65836070
H        0.74021882      -0.86740729       1.79258326
H        2.85251022      -0.80590935       0.08182344
H        1.47145044      -1.59673366      -0.57889111
H        0.91660460       1.55255508      -1.07809659
15
Frame=11 idx=008486 GeodesicLength=1.2717860902131854 rxn_smarts="[C:1]([O:2][C:3](=[O:4])[C:5]([C:6]([O:7][H:15])([H:13])[H:14])([H:11])[H:12])([H:8])([H:9])[H:10]>>[C:1]([O:2][C@@:3]1([O:4][H:15])[C:5]([H:11])([H:12])[C:6]([H:13])([H:14])[O:7]1)([H:8])([H:9])[H:10]"
C       -2.31322097      -0.13444814      -0.40354260
O       -1.27546212      -0.17321142       0.57273992
C       -0.12900397       0.44144316       0.24760429
O       -0.30041585       1.61042387      -0.29039542
C        1.01219123      -0.09512626       1.07374824
C        1.77439698      -0.66382356      -0.10737063
O        1.59760591       0.40531217      -1.00563875
H       -1.93925579      -0.48780738      -1.36516710
H       -3.09340586      -0.78842211      -0.02112194
H       -2.70618309       0.87676326      -0.50420380
H        1.43533688       0.72090718       1.65860471
H        0.73819504      -0.86282892       1.79376616
H        2.82370778      -0.88259165       0.09531619
H        1.42234720      -1.55332114      -0.64051762
H        0.95316664       1.58673095      -1.10382167
15
Frame=12 idx=008486 GeodesicLength=1.3873560547367718 rxn_smarts="[C:1]([O:2][C:3](=[O:4])[C:5]([C:6]([O:7][H:15])([H:13])[H:14])([H:11])[H:12])([H:8])([H:9])[H:10]>>[C:1]([O:2][C@@:3]1([O:4][H:15])[C:5]([H:11])([H:12])[C:6]([H:13])([H:14])[O:7]1)([H:8])([H:9])[H:10]"
C       -2.31131452      -0.15123983      -0.39284037
O       -1.28112100      -0.15225421       0.59109850
C       -0.13052374       0.45222601       0.24824513
O       -0.30936130       1.60974023      -0.31009278
C        1.00670901      -0.09357306       1.07335279
C        1.76236537      -0.66353374      -0.11076538
O        1.66513632       0.45754133      -0.95751581
H       -1.92924429      -0.53310533      -1.34039047
H       -3.09128461      -0.79606520       0.00554467
H       -2.70988613       0.85388725      -0.52836333
H        1.42861552       0.72040344       1.66196159
H        0.73460824      -0.86225885       1.79286600
H        2.79100855      -0.95401628       0.10477468
H        1.38091123      -1.50217848      -0.70308579
H        0.99338133       1.61442671      -1.13478943
15
Frame=13 idx=008486 GeodesicLength=1.502383165979612 rxn_smarts="[C:1]([O:2][C:3](=[O:4])[C:5]([C:6]([O:7][H:15])([H:13])[H:14])([H:11])[H:12])([H:8])([H:9])[H:10]>>[C:1]([O:2][C@@:3]1([O:4][H:15])[C:5]([H:11])([H:12])[C:6]([H:13])([H:14])[O:7]1)([H:8])([H:9])[H:10]"
C       -2.31016585      -0.16723021      -0.38081296
O       -1.28812641      -0.12953690       0.60982907
C       -0.13279969       0.46289654       0.24962324
O       -0.31661414       1.60648576      -0.33354458
C        0.99998036      -0.09366831       1.07327954
C        1.75086151      -0.66040531      -0.11487574
O        1.73129642       0.50720076      -0.90382422
H       -1.91999497      -0.57924953      -1.31235918
H       -3.09082991      -0.80089566       0.03399991
H       -2.71298108       0.83073450      -0.55301844
H        1.41907354       0.71711269       1.66824002
H        0.72944659      -0.86559350       1.78966313
H        2.75517546      -1.01932782       0.10958125
H        1.34711813      -1.44358273      -0.76566480
H        1.03856003       1.63505972      -1.17011623
15
Frame=14 idx=008486 GeodesicLength=1.6172550185018546 rxn_smarts="[C:1]([O:2][C:3](=[O:4])[C:5]([C:6]([O:7][H:15])([H:13])[H:14])([H:11])[H:12])([H:8])([H:9])[H:10]>>[C:1]([O:2][C@@:3]1([O:4][H:15])[C:5]([H:11])([H:12])[C:6]([H:13])([H:14])[O:7]1)([H:8])([H:9])[H:10]"
C       -2.30974164      -0.18268178      -0.36744314
O       -1.29661572      -0.10483969       0.62897595
C       -0.13601481       0.47386552       0.25188525
O       -0.32243484       1.60072565      -0.36074182
C        0.99192487      -0.09516858       1.07332108
C        1.73971719      -0.65436167      -0.12000176
O        1.79491804       0.55421000      -0.84551483
H       -1.91119826      -0.62658430      -1.28071437
H       -3.09199287      -0.80319515       0.06418577
H       -2.71560844       0.80675564      -0.57841809
H        1.40687608       0.71124584       1.67710254
H        0.72255607      -0.87252216       1.78403562
H        2.71671277      -1.07839994       0.10892348
H        1.32032915      -1.37812127      -0.82746289
H        1.09057240       1.64907187      -1.20813278
15
Frame=15 idx=008486 GeodesicLength=1.7320757281174088 rxn_smarts="[C:1]([O:2][C:3](=[O:4])[C:5]([C:6]([O:7][H:15])([H:13])[H:14])([H:11])[H:12])([H:8])([H:9])[H:10]>>[C:1]([O:2][C@@:3]1([O:4][H:15])[C:5]([H:11])([H:12])[C:6]([H:13])([H:14])[O:7]1)([H:8])([H:9])[H:10]"
C       -2.31007168      -0.19788708      -0.35275630
O       -1.30655090      -0.07819596       0.64825373
C       -0.14031078       0.48533193       0.25479658
O       -0.32722731       1.59216212      -0.39185444
C        0.98257289      -0.09768444       1.07306646
C        1.72869577      -0.64558674      -0.12630071
O        1.85473195       0.59792503      -0.78412687
H       -1.90287355      -0.67507680      -1.24529688
H       -3.09461666      -0.80339361       0.09595643
H       -2.71805669       0.78130095      -0.60442602
H        1.39241988       0.70325219       1.68761985
H        0.71399788      -0.88222958       1.77592102
H        2.67609875      -1.13109639       0.10236526
H        1.29955579      -1.30687448      -0.88730705
H        1.15163467       1.65805285      -1.24591106
15
Frame=16 idx=008486 GeodesicLength=1.8469759042071263 rxn_smarts="[C:1]([O:2][C:3](=[O:4])[C:5]([C:6]([O:7][H:15])([H:13])[H:14])([H:11])[H:12])([H:8])([H:9])[H:10]>>[C:1]([O:2][C@@:3]1([O:4][H:15])[C:5]([H:11])([H:12])[C:6]([H:13])([H:14])[O:7]1)([H:8])([H:9])[H:10]"
C       -2.31112053      -0.21319484      -0.33676906
O       -1.31779819      -0.04967983       0.66727792
C       -0.14574603       0.49746350       0.25792884
O       -0.33142324       1.58046939      -0.42703169
C        0.97199605      -0.10074257       1.07206229
C        1.71748159      -0.63456261      -0.13388367
O        1.90998469       0.63761339      -0.72136674
H       -1.89499999      -0.72473929      -1.20597000
H       -3.09843101      -0.80201762       0.12922869
H       -2.72058284       0.75366325      -0.63087449
H        1.37620852       0.69378779       1.69865326
H        0.70384966      -0.89366218       1.76539281
H        2.63359713      -1.17776838       0.08978408
H        1.28340954      -1.23122358      -0.94418543
H        1.22357464       1.66459359      -1.28024680
