11
Frame=0 idx=002352 GeodesicLength=0.0 rxn_smarts="[O:1]=[C:2]([C:3]([N:4]([C:5](=[O:6])[H:11])[H:10])([H:8])[H:9])[H:7]>>[O:1]=[C:2]([C:3]([N:4]([C:5][O:6][H:11])[H:10])([H:8])[H:9])[H:7]"
O        2.24416760      -0.82270058      -0.59346725
C        1.81676192      -0.17056443       0.31880064
C        0.37441221       0.22215913       0.45858829
N       -0.40090283      -0.30118688      -0.63990561
C       -1.70605695      -0.12190742      -0.73488086
O       -2.30776212       0.56375517       0.20692879
H        2.48069822       0.18732182       1.12811564
H        0.00254783      -0.14316450       1.42231352
H        0.31423548       1.31529879       0.51190145
H        0.09401241      -0.82750624      -1.34235399
H       -2.91211375       0.09849511      -0.73604063
11
Frame=1 idx=002352 GeodesicLength=0.028966363021649726 rxn_smarts="[O:1]=[C:2]([C:3]([N:4]([C:5](=[O:6])[H:11])[H:10])([H:8])[H:9])[H:7]>>[O:1]=[C:2]([C:3]([N:4]([C:5][O:6][H:11])[H:10])([H:8])[H:9])[H:7]"
O        2.24373759      -0.82546683      -0.59219676
C        1.81668796      -0.17407175       0.32079577
C        0.37544707       0.22357994       0.45841925
N       -0.40015914      -0.29685508      -0.64087100
C       -1.70142188      -0.09532019      -0.75094405
O       -2.30503712       0.56974812       0.20090207
H        2.48104963       0.18310528       1.13011407
H        0.00065856      -0.14172991       1.42106695
H        0.31965204       1.31688259       0.51370060
H        0.09377681      -0.82722287      -1.34092885
H       -2.92439151       0.06735071      -0.72005807
11
Frame=2 idx=002352 GeodesicLength=0.05801338682583908 rxn_smarts="[O:1]=[C:2]([C:3]([N:4]([C:5](=[O:6])[H:11])[H:10])([H:8])[H:9])[H:7]>>[O:1]=[C:2]([C:3]([N:4]([C:5][O:6][H:11])[H:10])([H:8])[H:9])[H:7]"
O        2.24297628      -0.82802297      -0.59129820
C        1.81648366      -0.17725205       0.32244467
C        0.37626460       0.22489810       0.45840983
N       -0.39995121      -0.29297123      -0.64136553
C       -1.69726383      -0.07039429      -0.76549957
O       -2.30292675       0.57477983       0.19539797
H        2.48147876       0.17932599       1.13160960
H       -0.00095179      -0.14036400       1.42016946
H        0.32446908       1.31839322       0.51554706
H        0.09291352      -0.82708689      -1.33930890
H       -2.93349231       0.03869429      -0.70610640
11
Frame=3 idx=002352 GeodesicLength=0.08688358742560909 rxn_smarts="[O:1]=[C:2]([C:3]([N:4]([C:5](=[O:6])[H:11])[H:10])([H:8])[H:9])[H:7]>>[O:1]=[C:2]([C:3]([N:4]([C:5][O:6][H:11])[H:10])([H:8])[H:9])[H:7]"
O        2.24198036      -0.82994331      -0.59099446
C        1.81620760      -0.17968796       0.32345756
C        0.37686985       0.22574068       0.45876868
N       -0.40028868      -0.29064306      -0.64061670
C       -1.69332534      -0.04857731      -0.77732273
O       -2.30148096       0.57680605       0.19167928
H        2.48205789       0.17716741       1.13175032
H       -0.00175541      -0.13927768       1.42011046
H        0.32813763       1.31927817       0.51729576
H        0.09153456      -0.82781319      -1.33690638
H       -2.93993752       0.01695020      -0.69722180
11
Frame=4 idx=002352 GeodesicLength=0.11608954839796172 rxn_smarts="[O:1]=[C:2]([C:3]([N:4]([C:5](=[O:6])[H:11])[H:10])([H:8])[H:9])[H:7]>>[O:1]=[C:2]([C:3]([N:4]([C:5][O:6][H:11])[H:10])([H:8])[H:9])[H:7]"
O        2.24077703      -0.83202364      -0.59071763
C        1.81590874      -0.18199555       0.32433746
C        0.37742890       0.22665183       0.45915939
N       -0.40083481      -0.28819738      -0.63983411
C       -1.68979981      -0.02807119      -0.78807989
O       -2.30016544       0.57905368       0.18779363
H        2.48268356       0.17483448       1.13191243
H       -0.00242621      -0.13810408       1.42015046
H        0.33169171       1.32027129       0.51905348
H        0.08994314      -0.82796984      -1.33480340
H       -2.94520682      -0.00444961      -0.68897182
11
Frame=5 idx=002352 GeodesicLength=0.14555499686831788 rxn_smarts="[O:1]=[C:2]([C:3]([N:4]([C:5](=[O:6])[H:11])[H:10])([H:8])[H:9])[H:7]>>[O:1]=[C:2]([C:3]([N:4]([C:5][O:6][H:11])[H:10])([H:8])[H:9])[H:7]"
O        2.23950602      -0.83395531      -0.59062809
C        1.81566406      -0.18396460       0.32495271
C        0.37794859       0.22740512       0.45971082
N       -0.40159995      -0.28630383      -0.63857900
C       -1.68652304      -0.00932420      -0.79743940
O       -2.29911591       0.58025600       0.18452418
H        2.48348026       0.17308237       1.13159920
H       -0.00268153      -0.13702817       1.42055994
H        0.33481754       1.32108816       0.52078133
H        0.08817207      -0.82824257      -1.33253443
H       -2.94966811      -0.02301297      -0.68294724
11
Frame=6 idx=002352 GeodesicLength=0.17485801174707785 rxn_smarts="[O:1]=[C:2]([C:3]([N:4]([C:5](=[O:6])[H:11])[H:10])([H:8])[H:9])[H:7]>>[O:1]=[C:2]([C:3]([N:4]([C:5][O:6][H:11])[H:10])([H:8])[H:9])[H:7]"
O        2.23818667      -0.83580051      -0.59065698
C        1.81546636      -0.18567378       0.32537331
C        0.37844409       0.22805131       0.46037125
N       -0.40251420      -0.28478085      -0.63701227
C       -1.68343972       0.00801238      -0.80570493
O       -2.29824694       0.58075757       0.18161543
H        2.48439837       0.17172865       1.13096626
H       -0.00262902      -0.13602912       1.42121657
H        0.33763150       1.32179196       0.52249784
H        0.08628141      -0.82854710      -1.33018023
H       -2.95357852      -0.03951050      -0.67848625
11
Frame=7 idx=002352 GeodesicLength=0.20304435467367188 rxn_smarts="[O:1]=[C:2]([C:3]([N:4]([C:5](=[O:6])[H:11])[H:10])([H:8])[H:9])[H:7]>>[O:1]=[C:2]([C:3]([N:4]([C:5][O:6][H:11])[H:10])([H:8])[H:9])[H:7]"
O        2.23680444      -0.83761855      -0.59075263
C        1.81527634      -0.18722806       0.32566346
C        0.37889511       0.22864463       0.46108605
N       -0.40356660      -0.28344431      -0.63526528
C       -1.68053159       0.02426102      -0.81316918
O       -2.29756070       0.58094934       0.17885386
H        2.48536360       0.17054872       1.13015869
H       -0.00242958      -0.13504928       1.42202705
H        0.34023289       1.32243581       0.52416306
H        0.08432651      -0.82872922      -1.32786903
H       -2.95681042      -0.05477010      -0.67489604
11
Frame=8 idx=002352 GeodesicLength=0.23215876406813504 rxn_smarts="[O:1]=[C:2]([C:3]([N:4]([C:5](=[O:6])[H:11])[H:10])([H:8])[H:9])[H:7]>>[O:1]=[C:2]([C:3]([N:4]([C:5][O:6][H:11])[H:10])([H:8])[H:9])[H:7]"
O        2.23542881      -0.83919835      -0.59104629
C        1.81512340      -0.18866086       0.32585054
C        0.37936729       0.22917160       0.46189306
N       -0.40468447      -0.28230477      -0.63330290
C       -1.67770327       0.03964874      -0.81984207
O       -2.29687079       0.58083796       0.17625895
H        2.48641758       0.16954361       1.12917622
H       -0.00199734      -0.13411151       1.42300810
H        0.34271548       1.32300947       0.52585668
H        0.08224294      -0.82905784      -1.32537358
H       -2.96003963      -0.06887805      -0.67247871
11
Frame=9 idx=002352 GeodesicLength=0.2612241626809718 rxn_smarts="[O:1]=[C:2]([C:3]([N:4]([C:5](=[O:6])[H:11])[H:10])([H:8])[H:9])[H:7]>>[O:1]=[C:2]([C:3]([N:4]([C:5][O:6][H:11])[H:10])([H:8])[H:9])[H:7]"
O        2.23408495      -0.84053433      -0.59152810
C        1.81501440      -0.18998752       0.32595253
C        0.37984382       0.22963821       0.46277081
N       -0.40588245      -0.28135218      -0.63116253
C       -1.67494600       0.05428274      -0.82590713
O       -2.29627242       0.58046396       0.17379337
H        2.48754822       0.16866596       1.12806917
H       -0.00139400      -0.13321405       1.42414262
H        0.34507318       1.32352061       0.52753978
H        0.08007359      -0.82955150      -1.32272334
H       -2.96314329      -0.08193188      -0.67094717
11
Frame=10 idx=002352 GeodesicLength=0.2902730725340672 rxn_smarts="[O:1]=[C:2]([C:3]([N:4]([C:5](=[O:6])[H:11])[H:10])([H:8])[H:9])[H:7]>>[O:1]=[C:2]([C:3]([N:4]([C:5][O:6][H:11])[H:10])([H:8])[H:9])[H:7]"
O        2.23274608      -0.84172129      -0.59213096
C        1.81492071      -0.19125664       0.32600217
C        0.38032097       0.23007001       0.46369457
N       -0.40713468      -0.28050429      -0.62890730
C       -1.67224675       0.06829223      -0.83147401
O       -2.29570859       0.57999174       0.17135979
H        2.48871317       0.16784610       1.12689080
H       -0.00068009      -0.13232434       1.42537708
H        0.34735582       1.32399630       0.52920712
H        0.07785297      -0.83006473      -1.32002567
H       -2.96613961      -0.09432507      -0.66999359
11
Frame=11 idx=002352 GeodesicLength=0.31928075295863945 rxn_smarts="[O:1]=[C:2]([C:3]([N:4]([C:5](=[O:6])[H:11])[H:10])([H:8])[H:9])[H:7]>>[O:1]=[C:2]([C:3]([N:4]([C:5][O:6][H:11])[H:10])([H:8])[H:9])[H:7]"
O        2.23139747      -0.84282445      -0.59280690
C        1.81482922      -0.19250171       0.32601842
C        0.38079476       0.23048097       0.46464806
N       -0.40843074      -0.27970586      -0.62657409
C       -1.66959722       0.08177653      -0.83661992
O       -2.29516649       0.57952121       0.16891384
H        2.48989427       0.16704846       1.12566207
H        0.00010247      -0.13142704       1.42667750
H        0.34959132       1.32444775       0.53085321
H        0.07560675      -0.83051043      -1.31733712
H       -2.96902182      -0.10630543      -0.66943506
11
Frame=12 idx=002352 GeodesicLength=0.34829207417516084 rxn_smarts="[O:1]=[C:2]([C:3]([N:4]([C:5](=[O:6])[H:11])[H:10])([H:8])[H:9])[H:7]>>[O:1]=[C:2]([C:3]([N:4]([C:5][O:6][H:11])[H:10])([H:8])[H:9])[H:7]"
O        2.23003078      -0.84386173      -0.59355017
C        1.81473146      -0.19373146       0.32600944
C        0.38126630       0.23089479       0.46561567
N       -0.40975296      -0.27888477      -0.62422201
C       -1.66698213       0.09485032      -0.84143037
O       -2.29463272       0.57910834       0.16640692
H        2.49107017       0.16621183       1.12442830
H        0.00092354      -0.13051553       1.42801337
H        0.35180682       1.32490113       0.53249232
H        0.07332552      -0.83089858      -1.31465407
H       -2.97178678      -0.11807434      -0.66910941
11
Frame=13 idx=002352 GeodesicLength=0.3773159099777581 rxn_smarts="[O:1]=[C:2]([C:3]([N:4]([C:5](=[O:6])[H:11])[H:10])([H:8])[H:9])[H:7]>>[O:1]=[C:2]([C:3]([N:4]([C:5][O:6][H:11])[H:10])([H:8])[H:9])[H:7]"
O        2.22863118      -0.84489672      -0.59432020
C        1.81462302      -0.19495158       0.32597940
C        0.38173539       0.23132336       0.46658810
N       -0.41109355      -0.27800503      -0.62187638
C       -1.66439422       0.10759304      -0.84595661
O       -2.29410874       0.57875413       0.16383476
H        2.49223656       0.16532928       1.12319374
H        0.00176642      -0.12958052       1.42936757
H        0.35401592       1.32536730       0.53412655
H        0.07101949      -0.83119063      -1.31200496
H       -2.97443147      -0.12974263      -0.66893197
11
Frame=14 idx=002352 GeodesicLength=0.4063344662632826 rxn_smarts="[O:1]=[C:2]([C:3]([N:4]([C:5](=[O:6])[H:11])[H:10])([H:8])[H:9])[H:7]>>[O:1]=[C:2]([C:3]([N:4]([C:5][O:6][H:11])[H:10])([H:8])[H:9])[H:7]"
O        2.22719154      -0.84595615      -0.59509638
C        1.81450285      -0.19617123       0.32593120
C        0.38219945       0.23176202       0.46756759
N       -0.41245410      -0.27705964      -0.61953404
C       -1.66183246       0.12004267      -0.85022799
O       -2.29359726       0.57848808       0.16120087
H        2.49340163       0.16442361       1.12193808
H        0.00262123      -0.12863243       1.43073462
H        0.35622148       1.32583888       0.53576773
H        0.06869329      -0.83137095      -1.30939851
H       -2.97694765      -0.14136486      -0.66888316
11
Frame=15 idx=002352 GeodesicLength=0.43560216015044567 rxn_smarts="[O:1]=[C:2]([C:3]([N:4]([C:5](=[O:6])[H:11])[H:10])([H:8])[H:9])[H:7]>>[O:1]=[C:2]([C:3]([N:4]([C:5][O:6][H:11])[H:10])([H:8])[H:9])[H:7]"
O        2.22581613      -0.84719802      -0.59582599
C        1.81445435      -0.19740111       0.32586898
C        0.38266947       0.23225421       0.46854422
N       -0.41381599      -0.27596865      -0.61727064
C       -1.65937192       0.13230957      -0.85431068
O       -2.29322293       0.57836253       0.15848956
H        2.49465789       0.16345043       1.12070861
H        0.00342162      -0.12767592       1.43208079
H        0.35845807       1.32642281       0.53745974
H        0.06639571      -0.83140667      -1.30690814
H       -2.97946239      -0.15314917      -0.66883644
11
Frame=16 idx=002352 GeodesicLength=0.46442928548619017 rxn_smarts="[O:1]=[C:2]([C:3]([N:4]([C:5](=[O:6])[H:11])[H:10])([H:8])[H:9])[H:7]>>[O:1]=[C:2]([C:3]([N:4]([C:5][O:6][H:11])[H:10])([H:8])[H:9])[H:7]"
O        2.22414116      -0.84832445      -0.59655926
C        1.81420113      -0.19860055       0.32578511
C        0.38310144       0.23272242       0.46950563
N       -0.41519461      -0.27481702      -0.61499409
C       -1.65677114       0.14428211      -0.85819355
O       -2.29258715       0.57834153       0.15564071
H        2.49567542       0.16243922       1.11944266
H        0.00429274      -0.12669717       1.43342525
H        0.36064777       1.32685428       0.53909084
H        0.06400805      -0.83127848      -1.30441056
H       -2.98151483      -0.16492189      -0.66873274
