16
Frame=0 idx=000669 GeodesicLength=0.0 rxn_smarts="[C:1]([C:2]([C:3]([H:11])([H:12])[H:13])([C:4](=[O:5])[C:6]([H:14])([H:15])[H:16])[H:10])([H:7])([H:8])[H:9]>>[C:1]([C:2]([C:3]([H:11])([H:12])[H:13])([C:4](=[O:5])[H:10])[C:6]([H:14])([H:15])[H:16])([H:7])([H:8])[H:9]"
C       -1.39937000       1.07994662      -0.41657796
C       -0.53535351      -0.02113182      -0.03249243
C       -0.83247826      -0.86106565       1.14258006
C        0.61120236      -0.23308081      -0.91826244
O        0.69219858       0.45481721      -2.00650779
C        1.87261899      -0.03559220       0.04226654
H       -1.77663760       0.83530506      -1.42096262
H       -0.74306930       1.93026939      -0.65577187
H       -2.20141052       1.32126859       0.27683692
H        0.58239850      -1.36030989      -1.03732032
H       -0.84050618      -0.23994059       2.04504927
H       -0.12520269      -1.67913425       1.26636842
H       -1.84208381      -1.27397661       1.05220316
H        1.88077150      -0.65629625       0.93913372
H        2.72482275      -0.28024979      -0.58703937
H        1.93209925       1.01917105       0.31049666
16
Frame=1 idx=000669 GeodesicLength=0.10312649946038824 rxn_smarts="[C:1]([C:2]([C:3]([H:11])([H:12])[H:13])([C:4](=[O:5])[C:6]([H:14])([H:15])[H:16])[H:10])([H:7])([H:8])[H:9]>>[C:1]([C:2]([C:3]([H:11])([H:12])[H:13])([C:4](=[O:5])[H:10])[C:6]([H:14])([H:15])[H:16])([H:7])([H:8])[H:9]"
C       -1.39558902       1.07445780      -0.41467257
C       -0.51559248      -0.02222722      -0.03626147
C       -0.82510621      -0.86425540       1.13662272
C        0.61580200      -0.21743200      -0.94389515
O        0.69271626       0.47339229      -2.02257048
C        1.86662443      -0.03407987       0.05149985
H       -1.78573275       0.83123883      -1.41386328
H       -0.75502876       1.93709149      -0.64924241
H       -2.19676146       1.30954637       0.28216866
H        0.54038380      -1.36023866      -1.03255857
H       -0.83951810      -0.24517899       2.04013015
H       -0.12070291      -1.68409688       1.26602466
H       -1.83211327      -1.28106614       1.03761055
H        1.87349684      -0.61624356       0.97349208
H        2.71794121      -0.32758290      -0.55914662
H        1.95918041       1.02667482       0.28466188
16
Frame=2 idx=000669 GeodesicLength=0.20637012711848315 rxn_smarts="[C:1]([C:2]([C:3]([H:11])([H:12])[H:13])([C:4](=[O:5])[C:6]([H:14])([H:15])[H:16])[H:10])([H:7])([H:8])[H:9]>>[C:1]([C:2]([C:3]([H:11])([H:12])[H:13])([C:4](=[O:5])[H:10])[C:6]([H:14])([H:15])[H:16])([H:7])([H:8])[H:9]"
C       -1.39159350       1.06874555      -0.41287742
C       -0.49596775      -0.02378193      -0.04050779
C       -0.81754765      -0.86747429       1.13058806
C        0.62031241      -0.20244813      -0.96937771
O        0.69309393       0.49229322      -2.03808670
C        1.86010933      -0.03238293       0.06092961
H       -1.79440701       0.82726341      -1.40684756
H       -0.76662636       1.94339799      -0.64180462
H       -2.19203099       1.29745220       0.28722602
H        0.49896362      -1.35879081      -1.02913692
H       -0.83821895      -0.25015526       2.03489922
H       -0.11588790      -1.68888017       1.26593297
H       -1.82187617      -1.28825654       1.02331604
H        1.86613229      -0.57361726       1.00727003
H        2.70810210      -0.37552000      -0.52960805
H        1.98744260       1.03215494       0.25808483
16
Frame=3 idx=000669 GeodesicLength=0.30969950998497 rxn_smarts="[C:1]([C:2]([C:3]([H:11])([H:12])[H:13])([C:4](=[O:5])[C:6]([H:14])([H:15])[H:16])[H:10])([H:7])([H:8])[H:9]>>[C:1]([C:2]([C:3]([H:11])([H:12])[H:13])([C:4](=[O:5])[H:10])[C:6]([H:14])([H:15])[H:16])([H:7])([H:8])[H:9]"
C       -1.38742921       1.06283389      -0.41122445
C       -0.47652243      -0.02576726      -0.04523989
C       -0.80975039      -0.87070343       1.12448657
C        0.62475038      -0.18799681      -0.99465816
O        0.69336879       0.51147588      -2.05306202
C        1.85313863      -0.03039892       0.07057987
H       -1.80269546       0.82337757      -1.39994934
H       -0.77790184       1.94919376      -0.63352926
H       -2.18725269       1.28499456       0.29199242
H        0.45823145      -1.35612244      -1.02698622
H       -0.83647914      -0.25485211       2.02937301
H       -0.11072424      -1.69349016       1.26601783
H       -1.81134427      -1.29550863       1.00940596
H        1.85867034      -0.52862196       1.04007130
H        2.69510128      -0.42387191      -0.49827651
H        2.01683879       1.03545795       0.23099889
16
Frame=4 idx=000669 GeodesicLength=0.4130961219108049 rxn_smarts="[C:1]([C:2]([C:3]([H:11])([H:12])[H:13])([C:4](=[O:5])[C:6]([H:14])([H:15])[H:16])[H:10])([H:7])([H:8])[H:9]>>[C:1]([C:2]([C:3]([H:11])([H:12])[H:13])([C:4](=[O:5])[H:10])[C:6]([H:14])([H:15])[H:16])([H:7])([H:8])[H:9]"
C       -1.38312621       1.05674437      -0.40974282
C       -0.45728269      -0.02816031      -0.05046522
C       -0.80167117      -0.87392018       1.11832959
C        0.62913467      -0.17397259      -1.01970482
O        0.69356407       0.53088164      -2.06752086
C        1.84578041      -0.02803152       0.08044788
H       -1.81063167       0.81957114      -1.39319306
H       -0.78888485       1.95448064      -0.62449665
H       -2.18243650       1.27219107       0.29645835
H        0.41824632      -1.35239663      -1.02600058
H       -0.83417327      -0.25924685       2.02356850
H       -0.10520215      -1.69794224       1.26621210
H       -1.80050570      -1.30276500       0.99596126
H        1.85110154      -0.48156578       1.07152113
H        2.67879243      -0.47229657      -0.46503633
H        2.04729477       1.03642880       0.20366153
16
Frame=5 idx=000669 GeodesicLength=0.5165239474117889 rxn_smarts="[C:1]([C:2]([C:3]([H:11])([H:12])[H:13])([C:4](=[O:5])[C:6]([H:14])([H:15])[H:16])[H:10])([H:7])([H:8])[H:9]>>[C:1]([C:2]([C:3]([H:11])([H:12])[H:13])([C:4](=[O:5])[H:10])[C:6]([H:14])([H:15])[H:16])([H:7])([H:8])[H:9]"
C       -1.37869720       1.05051093      -0.40843402
C       -0.43828088      -0.03093896      -0.05616205
C       -0.79335751      -0.87712574       1.11213629
C        0.63346752      -0.16032672      -1.04446575
O        0.69367868       0.55039281      -2.08147743
C        1.83806618      -0.02528824       0.09057760
H       -1.81823326       0.81584637      -1.38656563
H       -0.79957929       1.95923137      -0.61477786
H       -2.17758179       1.25911238       0.30062355
H        0.37902511      -1.34777999      -1.02596586
H       -0.83127325      -0.26336116       2.01753446
H       -0.09943196      -1.70229555       1.26647427
H       -1.78944931      -1.30997368       0.98301964
H        1.84330664      -0.43285377       1.10141833
H        2.65948285      -0.52001768      -0.43003712
H        2.07885747       1.03486763       0.17610156
16
Frame=6 idx=000669 GeodesicLength=0.6200156729908688 rxn_smarts="[C:1]([C:2]([C:3]([H:11])([H:12])[H:13])([C:4](=[O:5])[C:6]([H:14])([H:15])[H:16])[H:10])([H:7])([H:8])[H:9]>>[C:1]([C:2]([C:3]([H:11])([H:12])[H:13])([C:4](=[O:5])[H:10])[C:6]([H:14])([H:15])[H:16])([H:7])([H:8])[H:9]"
C       -1.37417159       1.04413992      -0.40733611
C       -0.41951712      -0.03407784      -0.06234666
C       -0.78472832      -0.88027753       1.10591173
C        0.63778593      -0.14695157      -1.06894049
O        0.69374376       0.56999616      -2.09497779
C        1.83008219      -0.02200556       0.10092111
H       -1.82553857       0.81216824      -1.38011009
H       -0.81001704       1.96347489      -0.60446731
H       -2.17269646       1.24574593       0.30447921
H        0.34059308      -1.34241722      -1.02681099
H       -0.82762043      -0.26714147       2.01126372
H       -0.09335780      -1.70653951       1.26674419
H       -1.77811640      -1.31706575       0.97066318
H        1.83540434      -0.38283168       1.12939311
H        2.63688554      -0.56694055      -0.39317868
H        2.11126889       1.03072353       0.14879185
16
Frame=7 idx=000669 GeodesicLength=0.7235836383973916 rxn_smarts="[C:1]([C:2]([C:3]([H:11])([H:12])[H:13])([C:4](=[O:5])[C:6]([H:14])([H:15])[H:16])[H:10])([H:7])([H:8])[H:9]>>[C:1]([C:2]([C:3]([H:11])([H:12])[H:13])([C:4](=[O:5])[H:10])[C:6]([H:14])([H:15])[H:16])([H:7])([H:8])[H:9]"
C       -1.36954561       1.03764649      -0.40646982
C       -0.40097990      -0.03755732      -0.06902348
C       -0.77576041      -0.88334812       1.09966693
C        0.64211302      -0.13379640      -1.09313054
O        0.69377829       0.58963027      -2.10806390
C        1.82190344      -0.01811512       0.11143218
H       -1.83256019       0.80851619      -1.37383236
H       -0.82020466       1.96721304      -0.59365495
H       -2.16775143       1.23212387       0.30802219
H        0.30294365      -1.33645444      -1.02838464
H       -0.82312670      -0.27055866       2.00477893
H       -0.08700269      -1.71069363       1.26698306
H       -1.76652151      -1.32397412       0.95894042
H        1.82742563      -0.33191256       1.15525825
H        2.61102709      -0.61266195      -0.35460302
H        2.14426198       1.02394246       0.12208075
16
Frame=8 idx=000669 GeodesicLength=0.8272532044960548 rxn_smarts="[C:1]([C:2]([C:3]([H:11])([H:12])[H:13])([C:4](=[O:5])[C:6]([H:14])([H:15])[H:16])[H:10])([H:7])([H:8])[H:9]>>[C:1]([C:2]([C:3]([H:11])([H:12])[H:13])([C:4](=[O:5])[H:10])[C:6]([H:14])([H:15])[H:16])([H:7])([H:8])[H:9]"
C       -1.36481351       1.03104896      -0.40584578
C       -0.38266001      -0.04136121      -0.07618616
C       -0.76645247      -0.88631722       1.09341233
C        0.64646060      -0.12083655      -1.11704604
O        0.69379615       0.60922768      -2.12078003
C        1.81359866      -0.01360703       0.12205798
H       -1.83931254       0.80487080      -1.36773209
H       -0.83013129       1.97044587      -0.58242306
H       -2.16272218       1.21829070       0.31125709
H        0.26602757      -1.33004344      -1.03053636
H       -0.81773012      -0.27359523       1.99809984
H       -0.08041716      -1.71478887       1.26716090
H       -1.75469626      -1.33063534       0.94788773
H        1.81940409      -0.28052842       1.17888218
H        2.58202647      -0.65664895      -0.31445030
H        2.17762201       1.01447825       0.09624176
16
Frame=9 idx=000669 GeodesicLength=0.9310886293362959 rxn_smarts="[C:1]([C:2]([C:3]([H:11])([H:12])[H:13])([C:4](=[O:5])[C:6]([H:14])([H:15])[H:16])[H:10])([H:7])([H:8])[H:9]>>[C:1]([C:2]([C:3]([H:11])([H:12])[H:13])([C:4](=[O:5])[H:10])[C:6]([H:14])([H:15])[H:16])([H:7])([H:8])[H:9]"
C       -1.35995540       1.02437596      -0.40544851
C       -0.36456648      -0.04549139      -0.08379811
C       -0.75689839      -0.88920275       1.08716219
C        0.65081928      -0.10806941      -1.14066509
O        0.69378043       0.62868181      -2.13316511
C        1.80517713      -0.00855216       0.13281114
H       -1.84579138       0.80124151      -1.36178317
H       -0.83976356       1.97315713      -0.57080596
H       -2.15758154       1.20432310       0.31419845
H        0.22975651      -1.32335240      -1.03303972
H       -0.81149548      -0.27630053       1.99127287
H       -0.07375458      -1.71888670       1.26728505
H       -1.74277325      -1.33701082       0.93747613
H        1.81123165      -0.22907359       1.20036575
H        2.55045013      -0.69809572      -0.27310211
H        2.21136493       1.00225597       0.07123621
16
Frame=10 idx=000669 GeodesicLength=1.0351018691871392 rxn_smarts="[C:1]([C:2]([C:3]([H:11])([H:12])[H:13])([C:4](=[O:5])[C:6]([H:14])([H:15])[H:16])[H:10])([H:7])([H:8])[H:9]>>[C:1]([C:2]([C:3]([H:11])([H:12])[H:13])([C:4](=[O:5])[H:10])[C:6]([H:14])([H:15])[H:16])([H:7])([H:8])[H:9]"
C       -1.35496654       1.01762839      -0.40530535
C       -0.34666187      -0.04992649      -0.09187341
C       -0.74703070      -0.89195233       1.08091631
C        0.65520676      -0.09547366      -1.16404180
O        0.69376670       0.64797032      -2.14526309
C        1.79673141      -0.00289030       0.14357589
H       -1.85201819       0.79758663      -1.35599933
H       -0.84910286       1.97537194      -0.55891148
H       -2.15229381       1.19023138       0.31684659
H        0.19407939      -1.31648974      -1.03582623
H       -0.80430812      -0.27860187       1.98428095
H       -0.06697357      -1.72296710       1.26732180
H       -1.73070315      -1.34302231       0.92775921
H        1.80311112      -0.17794188       1.21958543
H        2.51621912      -0.73695655      -0.23071093
H        2.24494433       0.98743358       0.04764545
16
Frame=11 idx=000669 GeodesicLength=1.1393082387676674 rxn_smarts="[C:1]([C:2]([C:3]([H:11])([H:12])[H:13])([C:4](=[O:5])[C:6]([H:14])([H:15])[H:16])[H:10])([H:7])([H:8])[H:9]>>[C:1]([C:2]([C:3]([H:11])([H:12])[H:13])([C:4](=[O:5])[H:10])[C:6]([H:14])([H:15])[H:16])([H:7])([H:8])[H:9]"
C       -1.34981718       1.01082273      -0.40541704
C       -0.32892343      -0.05466591      -0.10040199
C       -0.73687740      -0.89455250       1.07468379
C        0.65962226      -0.08306394      -1.18719661
O        0.69376601       0.66702353      -2.15712392
C        1.78830767       0.00332319       0.15430317
H       -1.85798917       0.79389965      -1.35036365
H       -0.85810943       1.97708958      -0.54680485
H       -2.14681168       1.17607264       0.31921050
H        0.15890680      -1.30957506      -1.03874856
H       -0.79617483      -0.28048864       1.97714164
H       -0.06014050      -1.72704777       1.26727536
H       -1.71854211      -1.34862196       0.91873525
H        1.79508692      -0.12750087       1.23663169
H        2.47969917      -0.77287258      -0.18765218
H        2.27799690       0.97015791       0.02572740
16
Frame=12 idx=000669 GeodesicLength=1.2437388833206766 rxn_smarts="[C:1]([C:2]([C:3]([H:11])([H:12])[H:13])([C:4](=[O:5])[C:6]([H:14])([H:15])[H:16])[H:10])([H:7])([H:8])[H:9]>>[C:1]([C:2]([C:3]([H:11])([H:12])[H:13])([C:4](=[O:5])[H:10])[C:6]([H:14])([H:15])[H:16])([H:7])([H:8])[H:9]"
C       -1.34448326       1.00397526      -0.40578056
C       -0.31134113      -0.05972467      -0.10937682
C       -0.72648270      -0.89699813       1.06847025
C        0.66405107      -0.07085910      -1.21015753
O        0.69378361       0.68576560      -2.16878992
C        1.77992109       0.01001200       0.16495914
H       -1.86370377       0.79019028      -1.34485961
H       -0.86674178       1.97831120      -0.53453509
H       -2.14109587       1.16190226       0.32130149
H        0.12413500      -1.30271131      -1.04166335
H       -0.78712309      -0.28195022       1.96986674
H       -0.05333017      -1.73114646       1.26715609
H       -1.70635861      -1.35377328       0.91039894
H        1.78718856      -0.07806531       1.25163138
H        2.44136756      -0.80550764      -0.14431548
H        2.31021349       0.95057952       0.00569433
16
Frame=13 idx=000669 GeodesicLength=1.3484077309144524 rxn_smarts="[C:1]([C:2]([C:3]([H:11])([H:12])[H:13])([C:4](=[O:5])[C:6]([H:14])([H:15])[H:16])[H:10])([H:7])([H:8])[H:9]>>[C:1]([C:2]([C:3]([H:11])([H:12])[H:13])([C:4](=[O:5])[H:10])[C:6]([H:14])([H:15])[H:16])([H:7])([H:8])[H:9]"
C       -1.33893962       0.99710185      -0.40637912
C       -0.29392609      -0.06513123      -0.11877736
C       -0.71594356      -0.89931448       1.06228548
C        0.66847512      -0.05886464      -1.23291485
O        0.69379693       0.70414249      -2.18032080
C        1.77152912       0.01709180       0.17558804
H       -1.86914942       0.78648597      -1.33946322
H       -0.87495293       1.97902154      -0.52210195
H       -2.13511637       1.14777447       0.32313342
H        0.08965313      -1.29597775      -1.04441278
H       -0.77726002      -0.28303025       1.96249169
H       -0.04666242      -1.73529032       1.26699932
H       -1.69426633      -1.35848407       0.90270341
H        1.77930782      -0.02980823       1.26483376
H        2.40189927      -0.83453050      -0.10114965
H        2.34155536       0.92881335      -0.01251539
16
Frame=14 idx=000669 GeodesicLength=1.4533233006926956 rxn_smarts="[C:1]([C:2]([C:3]([H:11])([H:12])[H:13])([C:4](=[O:5])[C:6]([H:14])([H:15])[H:16])[H:10])([H:7])([H:8])[H:9]>>[C:1]([C:2]([C:3]([H:11])([H:12])[H:13])([C:4](=[O:5])[H:10])[C:6]([H:14])([H:15])[H:16])([H:7])([H:8])[H:9]"
C       -1.33315112       0.99021266      -0.40721457
C       -0.27663617      -0.07089647      -0.12861719
C       -0.70523587      -0.90147374       1.05612012
C        0.67289041      -0.04710989      -1.25553679
O        0.69382205       0.72208697      -2.19175933
C        1.76319965       0.02449484       0.18608242
H       -1.87432666       0.78278559      -1.33415580
H       -0.88268489       1.97924113      -0.50957678
H       -2.12881335       1.13373209       0.32472517
H        0.05536062      -1.28945837      -1.04692536
H       -0.76654922      -0.28368699       1.95498522
H       -0.04012723      -1.73946680       1.26679195
H       -1.68225576      -1.36269714       0.89565976
H        1.77159498       0.01698600       1.27630855
H        2.36149565      -0.86004315      -0.05839581
H        2.37141691       0.90529325      -0.02849157
16
Frame=15 idx=000669 GeodesicLength=1.5584829735459182 rxn_smarts="[C:1]([C:2]([C:3]([H:11])([H:12])[H:13])([C:4](=[O:5])[C:6]([H:14])([H:15])[H:16])[H:10])([H:7])([H:8])[H:9]>>[C:1]([C:2]([C:3]([H:11])([H:12])[H:13])([C:4](=[O:5])[H:10])[C:6]([H:14])([H:15])[H:16])([H:7])([H:8])[H:9]"
C       -1.32707634       0.98332143      -0.40827233
C       -0.25945757      -0.07705943      -0.13889953
C       -0.69441013      -0.90349081       1.04997250
C        0.67728923      -0.03561379      -1.27804616
O        0.69385114       0.73953964      -2.20317364
C        1.75491991       0.03213700       0.19644306
H       -1.87921831       0.77912209      -1.32890887
H       -0.88986436       1.97896773      -0.49697287
H       -2.12213364       1.11982808       0.32609834
H        0.02115474      -1.28321016      -1.04909218
H       -0.75505321      -0.28393388       1.94735644
H       -0.03378587      -1.74368988       1.26655277
H       -1.67039286      -1.36641467       0.88923961
H        1.76402106       0.06217709       1.28626676
H        2.32063653      -0.88206732      -0.01639131
H        2.39951970       0.88038689      -0.04217260
16
Frame=16 idx=000669 GeodesicLength=1.6638639632511023 rxn_smarts="[C:1]([C:2]([C:3]([H:11])([H:12])[H:13])([C:4](=[O:5])[C:6]([H:14])([H:15])[H:16])[H:10])([H:7])([H:8])[H:9]>>[C:1]([C:2]([C:3]([H:11])([H:12])[H:13])([C:4](=[O:5])[H:10])[C:6]([H:14])([H:15])[H:16])([H:7])([H:8])[H:9]"
C       -1.32068442       0.97643978      -0.40953557
C       -0.24238851      -0.08367153      -0.14963333
C       -0.68352524      -0.90538825       1.04384096
C        0.68165921      -0.02438671      -1.30046767
O        0.69386614       0.75645242      -2.21464593
C        1.74664988       0.03994917       0.20668729
H       -1.88381590       0.77553630      -1.32369384
H       -0.89641786       1.97820458      -0.48428997
H       -2.11503867       1.10610985       0.32727977
H       -0.01305476      -1.27727570      -1.05082397
H       -0.74284858      -0.28378488       1.93961110
H       -0.02769556      -1.74797315       1.26630210
H       -1.65874776      -1.36965604       0.88341927
H        1.75653278       0.10567795       1.29491829
H        2.27981131      -0.90065789       0.02458400
H        2.42569796       0.85442410      -0.05355249
