13
Frame=0 idx=010422 GeodesicLength=0.0 rxn_smarts="[O:1]([C:2]([C@@:3]([C:4](=[O:5])[H:12])([C:6]#[C:7][H:13])[H:11])([H:9])[H:10])[H:8]>>[C:2](=[C:3]([C:6]#[C:7][H:13])[H:11])([H:9])[H:10].[O:1]([C:4](=[O:5])[H:12])[H:8]"
O       -1.63291455       0.31667359       0.74982825
C       -0.85029651      -0.98692074      -0.23591940
C        0.22237395      -0.25688339      -0.79374634
C       -0.68271940       1.32693997       0.03323145
O       -0.00895745       2.00653820       0.74696455
C        1.52245052      -0.39329026      -0.22231421
C        2.60019724      -0.47024567       0.30010554
H       -1.27877166       0.27744813       1.64892413
H       -0.66876866      -1.69738999       0.56241678
H       -1.71770375      -1.21089111      -0.84371269
H        0.18132029      -0.02885848      -1.85235071
H       -1.24601470       1.65212370      -0.84796767
H        3.55980474      -0.53524395       0.75454035
13
Frame=1 idx=010422 GeodesicLength=0.10437116119141647 rxn_smarts="[O:1]([C:2]([C@@:3]([C:4](=[O:5])[H:12])([C:6]#[C:7][H:13])[H:11])([H:9])[H:10])[H:8]>>[C:2](=[C:3]([C:6]#[C:7][H:13])[H:11])([H:9])[H:10].[O:1]([C:4](=[O:5])[H:12])[H:8]"
O       -1.66259373       0.32777221       0.72950330
C       -0.85435543      -1.00812684      -0.22761448
C        0.21569886      -0.27369349      -0.78600674
C       -0.66309258       1.34013057       0.04708150
O       -0.01333954       1.99962551       0.80144645
C        1.52294995      -0.41299246      -0.23181240
C        2.60403669      -0.46446948       0.28655311
H       -1.35140503       0.30157411       1.64451533
H       -0.66522405      -1.71365612       0.57373715
H       -1.70718865      -1.25506658      -0.84721977
H        0.15901174      -0.04093973      -1.84327529
H       -1.16276213       1.69796822      -0.85980166
H        3.57826391      -0.49812591       0.71289350
13
Frame=2 idx=010422 GeodesicLength=0.20899305642664098 rxn_smarts="[O:1]([C:2]([C@@:3]([C:4](=[O:5])[H:12])([C:6]#[C:7][H:13])[H:11])([H:9])[H:10])[H:8]>>[C:2](=[C:3]([C:6]#[C:7][H:13])[H:11])([H:9])[H:10].[O:1]([C:4](=[O:5])[H:12])[H:8]"
O       -1.69520461       0.33975425       0.70395692
C       -0.85688800      -1.02992226      -0.21731025
C        0.20947773      -0.28959876      -0.77646506
C       -0.64422625       1.35358570       0.06223473
O       -0.02428058       1.99260068       0.85880813
C        1.52407047      -0.43020285      -0.23996190
C        2.60779049      -0.45318865       0.27474356
H       -1.43259380       0.32884915       1.63407766
H       -0.65939897      -1.72793342       0.58900967
H       -1.69275288      -1.30385444      -0.84879442
H        0.13673046      -0.05206582      -1.83211125
H       -1.07222725       1.74345215      -0.86817370
H        3.59950318      -0.47147572       0.65998589
13
Frame=3 idx=010422 GeodesicLength=0.31402209594775077 rxn_smarts="[O:1]([C:2]([C@@:3]([C:4](=[O:5])[H:12])([C:6]#[C:7][H:13])[H:11])([H:9])[H:10])[H:8]>>[C:2](=[C:3]([C:6]#[C:7][H:13])[H:11])([H:9])[H:10].[O:1]([C:4](=[O:5])[H:12])[H:8]"
O       -1.72685563       0.35356629       0.67525152
C       -0.86022743      -1.05245099      -0.20610114
C        0.20166217      -0.30686996      -0.76848309
C       -0.62161637       1.36611852       0.07996844
O       -0.03407681       1.98160757       0.91917144
C        1.52489740      -0.45135356      -0.25432030
C        2.61422795      -0.45615442       0.24871542
H       -1.51624462       0.35863962       1.61825490
H       -0.65316134      -1.74147089       0.60595575
H       -1.67902685      -1.35460705      -0.84722522
H        0.10983242      -0.06279280      -1.82158182
H       -0.97082411       1.78918214      -0.86908184
H        3.61141323      -0.42341445       0.61947595
13
Frame=4 idx=010422 GeodesicLength=0.41908239683081266 rxn_smarts="[O:1]([C:2]([C@@:3]([C:4](=[O:5])[H:12])([C:6]#[C:7][H:13])[H:11])([H:9])[H:10])[H:8]>>[C:2](=[C:3]([C:6]#[C:7][H:13])[H:11])([H:9])[H:10].[O:1]([C:4](=[O:5])[H:12])[H:8]"
O       -1.75973879       0.36787741       0.64146756
C       -0.86151994      -1.07548820      -0.19277331
C        0.19394313      -0.32288694      -0.75981073
C       -0.60016070       1.37877342       0.09910207
O       -0.05134583       1.97075647       0.98103518
C        1.52638489      -0.46918754      -0.26987725
C        2.62064149      -0.45035779       0.22182556
H       -1.60565565       0.39159830       1.59475596
H       -0.64311967      -1.75252948       0.62679107
H       -1.66122527      -1.40990659      -0.84216902
H        0.08127580      -0.07167906      -1.80963914
H       -0.86283243       1.83296037      -0.86382618
H        3.62335298      -0.38993035       0.57311823
13
Frame=5 idx=010422 GeodesicLength=0.5240942289980424 rxn_smarts="[O:1]([C:2]([C@@:3]([C:4](=[O:5])[H:12])([C:6]#[C:7][H:13])[H:11])([H:9])[H:10])[H:8]>>[C:2](=[C:3]([C:6]#[C:7][H:13])[H:11])([H:9])[H:10].[O:1]([C:4](=[O:5])[H:12])[H:8]"
O       -1.79166933       0.38294718       0.60426104
C       -0.86237068      -1.09896221      -0.17830265
C        0.18568914      -0.33881876      -0.75117331
C       -0.57844514       1.39111074       0.11975980
O       -0.07349753       1.95963015       1.04305838
C        1.52761301      -0.48681509      -0.28752119
C        2.62670477      -0.44566146       0.19175460
H       -1.69635106       0.42738493       1.56416668
H       -0.63154950      -1.76254343       0.64927439
H       -1.64190336      -1.46711345      -0.83419329
H        0.05058987      -0.07895345      -1.79666560
H       -0.74776174       1.87360734      -0.85082683
H        3.63295154      -0.35581250       0.52640799
13
Frame=6 idx=010422 GeodesicLength=0.6291834641516014 rxn_smarts="[O:1]([C:2]([C@@:3]([C:4](=[O:5])[H:12])([C:6]#[C:7][H:13])[H:11])([H:9])[H:10])[H:8]>>[C:2](=[C:3]([C:6]#[C:7][H:13])[H:11])([H:9])[H:10].[O:1]([C:4](=[O:5])[H:12])[H:8]"
O       -1.82136822       0.39842989       0.56517056
C       -0.86270245      -1.12271912      -0.16295273
C        0.17669351      -0.35445019      -0.74319096
C       -0.55673148       1.40326042       0.14149308
O       -0.10018939       1.94938579       1.10340079
C        1.52839545      -0.50393121      -0.30838659
C        2.63330095      -0.44428544       0.15516228
H       -1.78514224       0.46575464       1.52747949
H       -0.61785107      -1.77200369       0.67236009
H       -1.62151498      -1.52533465      -0.82313467
H        0.01716602      -0.08419742      -1.78301174
H       -0.62750019       1.90988506      -0.82956244
H        3.63744409      -0.31979407       0.48517285
13
Frame=7 idx=010422 GeodesicLength=0.734256784738498 rxn_smarts="[O:1]([C:2]([C@@:3]([C:4](=[O:5])[H:12])([C:6]#[C:7][H:13])[H:11])([H:9])[H:10])[H:8]>>[C:2](=[C:3]([C:6]#[C:7][H:13])[H:11])([H:9])[H:10].[O:1]([C:4](=[O:5])[H:12])[H:8]"
O       -1.84904906       0.41356955       0.52519992
C       -0.86253474      -1.14659110      -0.14717281
C        0.16762620      -0.36926901      -0.73449984
C       -0.53684319       1.41583468       0.16354615
O       -0.13376610       1.94285523       1.16008536
C        1.52855356      -0.51919920      -0.32853307
C        2.63903706      -0.44216404       0.11868435
H       -1.87087944       0.50614651       1.48552509
H       -0.60287119      -1.78208097       0.69473680
H       -1.59954599      -1.58330177      -0.81064393
H       -0.01651871      -0.08717774      -1.76749668
H       -0.50492328       1.94033876      -0.80069031
H        3.64171488      -0.28896089       0.44125897
13
Frame=8 idx=010422 GeodesicLength=0.8392925949413045 rxn_smarts="[O:1]([C:2]([C@@:3]([C:4](=[O:5])[H:12])([C:6]#[C:7][H:13])[H:11])([H:9])[H:10])[H:8]>>[C:2](=[C:3]([C:6]#[C:7][H:13])[H:11])([H:9])[H:10].[O:1]([C:4](=[O:5])[H:12])[H:8]"
O       -1.87343871       0.42802609       0.48694909
C       -0.86232207      -1.17068752      -0.13173309
C        0.15814276      -0.38357725      -0.72586354
C       -0.51831842       1.42896552       0.18508289
O       -0.17172716       1.94122972       1.21085553
C        1.52777524      -0.53335865      -0.34900131
C        2.64382186      -0.44057010       0.08088407
H       -1.94976288       0.54794805       1.44111645
H       -0.58673955      -1.79445806       0.71439195
H       -1.57732550      -1.63966496      -0.79756183
H       -0.05085013      -0.08814206      -1.75077469
H       -0.38219370       1.96412830      -0.76483124
H        3.64293827      -0.25983907       0.40048572
13
Frame=9 idx=010422 GeodesicLength=0.9443518908836639 rxn_smarts="[O:1]([C:2]([C@@:3]([C:4](=[O:5])[H:12])([C:6]#[C:7][H:13])[H:11])([H:9])[H:10])[H:8]>>[C:2](=[C:3]([C:6]#[C:7][H:13])[H:11])([H:9])[H:10].[O:1]([C:4](=[O:5])[H:12])[H:8]"
O       -1.89465104       0.44139138       0.45196500
C       -0.86223133      -1.19509113      -0.11716718
C        0.14842492      -0.39725663      -0.71687094
C       -0.50153111       1.44311888       0.20542225
O       -0.21364932       1.94641592       1.25427363
C        1.52600901      -0.54621207      -0.36845545
C        2.64720875      -0.43882589       0.04411051
H       -2.02075623       0.59063150       1.39632390
H       -0.56984372      -1.81049996       0.73000079
H       -1.55503830      -1.69362583      -0.78532231
H       -0.08484138      -0.08728829      -1.73261394
H       -0.26152153       1.98085854      -0.72303789
H        3.64242129      -0.23361641       0.36137165
13
Frame=10 idx=010422 GeodesicLength=1.0495649490966552 rxn_smarts="[O:1]([C:2]([C@@:3]([C:4](=[O:5])[H:12])([C:6]#[C:7][H:13])[H:11])([H:9])[H:10])[H:8]>>[C:2](=[C:3]([C:6]#[C:7][H:13])[H:11])([H:9])[H:10].[O:1]([C:4](=[O:5])[H:12])[H:8]"
O       -1.91313639       0.45359518       0.42083076
C       -0.86229573      -1.21995360      -0.10363288
C        0.13850193      -0.41033754      -0.70738532
C       -0.48631581       1.45853570       0.22426943
O       -0.25858897       1.95894507       1.28991832
C        1.52332025      -0.55788456      -0.38669421
C        2.64923098      -0.43684933       0.00874014
H       -2.08428634       0.63406187       1.35220393
H       -0.55222618      -1.83069204       0.74123820
H       -1.53268490      -1.74517642      -0.77460116
H       -0.11825484      -0.08492295      -1.71299096
H       -0.14381993       1.99077911      -0.67568141
H        3.64055593      -0.21010048       0.32378518
13
Frame=11 idx=010422 GeodesicLength=1.1551447309323926 rxn_smarts="[O:1]([C:2]([C@@:3]([C:4](=[O:5])[H:12])([C:6]#[C:7][H:13])[H:11])([H:9])[H:10])[H:8]>>[C:2](=[C:3]([C:6]#[C:7][H:13])[H:11])([H:9])[H:10].[O:1]([C:4](=[O:5])[H:12])[H:8]"
O       -1.92950867       0.46465835       0.39365375
C       -0.86255416      -1.24544341      -0.09119211
C        0.12847843      -0.42286957      -0.69703274
C       -0.47254399       1.47542198       0.24154987
O       -0.30621569       1.97924567       1.31768969
C        1.51981615      -0.56857247      -0.40314415
C        2.64995101      -0.43466065      -0.02443940
H       -2.14138440       0.67820832       1.30915341
H       -0.53413003      -1.85525263       0.74807492
H       -1.51011984      -1.79443421      -0.76600288
H       -0.15068585      -0.08135520      -1.69170055
H       -0.02941860       1.99416311      -0.62268300
H        3.63831563      -0.18910928       0.28607318
13
Frame=12 idx=010422 GeodesicLength=1.260992079060825 rxn_smarts="[O:1]([C:2]([C@@:3]([C:4](=[O:5])[H:12])([C:6]#[C:7][H:13])[H:11])([H:9])[H:10])[H:8]>>[C:2](=[C:3]([C:6]#[C:7][H:13])[H:11])([H:9])[H:10].[O:1]([C:4](=[O:5])[H:12])[H:8]"
O       -1.94432127       0.47469569       0.37013450
C       -0.86289939      -1.27166244      -0.07974389
C        0.11841980      -0.43488675      -0.68560285
C       -0.45996897       1.49382354       0.25730793
O       -0.35601045       2.00689894       1.33770097
C        1.51564689      -0.57835798      -0.41771438
C        2.64955591      -0.43250451      -0.05525078
H       -2.19337898       0.72325570       1.26685497
H       -0.51554928      -1.88375817       0.75092967
H       -1.48704295      -1.84174152      -0.75963966
H       -0.18204084      -0.07685574      -1.66862904
H        0.08128674       1.99153780      -0.56344140
H        3.63630278      -0.17044457       0.24709394
13
Frame=13 idx=010422 GeodesicLength=1.3673128433068034 rxn_smarts="[O:1]([C:2]([C@@:3]([C:4](=[O:5])[H:12])([C:6]#[C:7][H:13])[H:11])([H:9])[H:10])[H:8]>>[C:2](=[C:3]([C:6]#[C:7][H:13])[H:11])([H:9])[H:10].[O:1]([C:4](=[O:5])[H:12])[H:8]"
O       -1.95723233       0.48344513       0.35182935
C       -0.86314490      -1.29896195      -0.06959967
C        0.10811654      -0.44644380      -0.67355455
C       -0.44802563       1.51386753       0.27117848
O       -0.40676879       2.04313594       1.34879557
C        1.51081977      -0.58729027      -0.43179308
C        2.64815297      -0.43041858      -0.08522349
H       -2.23927638       0.76891596       1.22713065
H       -0.49579122      -1.91678387       0.74895071
H       -1.46374522      -1.88708663      -0.75589072
H       -0.21307075      -0.07166173      -1.64417310
H        0.18716061       1.98299684      -0.49879121
H        3.63280531      -0.15371456       0.21114105
13
Frame=14 idx=010422 GeodesicLength=1.4739819295922263 rxn_smarts="[O:1]([C:2]([C@@:3]([C:4](=[O:5])[H:12])([C:6]#[C:7][H:13])[H:11])([H:9])[H:10])[H:8]>>[C:2](=[C:3]([C:6]#[C:7][H:13])[H:11])([H:9])[H:10].[O:1]([C:4](=[O:5])[H:12])[H:8]"
O       -1.96878677       0.49099940       0.33823296
C       -0.86311584      -1.32746593      -0.06054728
C        0.09764856      -0.45760381      -0.66057895
C       -0.43658303       1.53552819       0.28332170
O       -0.45839029       2.08714169       1.35109099
C        1.50544220      -0.59535598      -0.44519783
C        2.64591888      -0.42837877      -0.11427741
H       -2.28082567       0.81564177       1.18893529
H       -0.47488005      -1.95355845       0.74282781
H       -1.43984788      -1.93089254      -0.75463797
H       -0.24371340      -0.06601714      -1.61808538
H        0.28838360       1.96899899      -0.42738895
H        3.62874970      -0.13903742       0.17630503
13
Frame=15 idx=010422 GeodesicLength=1.5810541114464265 rxn_smarts="[O:1]([C:2]([C@@:3]([C:4](=[O:5])[H:12])([C:6]#[C:7][H:13])[H:11])([H:9])[H:10])[H:8]>>[C:2](=[C:3]([C:6]#[C:7][H:13])[H:11])([H:9])[H:10].[O:1]([C:4](=[O:5])[H:12])[H:8]"
O       -1.97854447       0.49710698       0.33087118
C       -0.86256988      -1.35755056      -0.05278182
C        0.08671069      -0.46856870      -0.64727048
C       -0.42503378       1.55883022       0.29316284
O       -0.50941000       2.13932386       1.34321307
C        1.49937842      -0.60264324      -0.45970473
C        2.64277211      -0.42576881      -0.14461887
H       -2.31719406       0.86339845       1.15358161
H       -0.45204401      -1.99422615       0.73194485
H       -1.41574784      -1.97327753      -0.75589691
H       -0.27504827      -0.06023337      -1.59071667
H        0.38472576       1.94926355      -0.34926499
H        3.62200532      -0.12565469       0.14748091
13
Frame=16 idx=010422 GeodesicLength=1.688426442628876 rxn_smarts="[O:1]([C:2]([C@@:3]([C:4](=[O:5])[H:12])([C:6]#[C:7][H:13])[H:11])([H:9])[H:10])[H:8]>>[C:2](=[C:3]([C:6]#[C:7][H:13])[H:11])([H:9])[H:10].[O:1]([C:4](=[O:5])[H:12])[H:8]"
O       -1.98658591       0.50168573       0.33018434
C       -0.86136146      -1.38942386      -0.04635089
C        0.07535237      -0.47944283      -0.63337657
C       -0.41324560       1.58385174       0.30047062
O       -0.55985458       2.19969803       1.32405742
C        1.49262282      -0.60902803      -0.47510585
C        2.63856337      -0.42214861      -0.17567784
H       -2.34914560       0.91244432       1.12061000
H       -0.42734741      -2.03840047       0.71640022
H       -1.39129881      -2.01439465      -0.75989371
H       -0.30705770      -0.05451643      -1.56179368
H        0.47602695       1.92352395      -0.26258557
H        3.61333156      -0.11384890       0.12306151
