10
Frame=0 idx=001790 GeodesicLength=0.0 rxn_smarts="[O:1]([c:2]1[c:3]([H:8])[c:4]([H:9])[n:5][n:6]1[H:10])[H:7]>>[O:1]([C@@:2]12[C:3]([H:8])=[C:4]([H:9])[N:5]1[N:6]2[H:10])[H:7]"
O       -1.72123434      -0.14098870       0.59096272
C       -0.63289554      -0.04843083      -0.14236494
C        0.37356834       1.05232325      -0.04107183
C        1.35845642       0.15479163       0.14030596
N        0.80088609      -1.12348753       0.06237386
N       -0.30137214      -0.99797476      -1.03524892
H       -1.70345865       0.55753037       1.25623707
H        0.30070083       2.09733091      -0.29148821
H        2.41332339       0.26954936       0.36577199
H       -0.88797440      -1.82064371      -0.90547770
10
Frame=1 idx=001790 GeodesicLength=0.03423332244662259 rxn_smarts="[O:1]([c:2]1[c:3]([H:8])[c:4]([H:9])[n:5][n:6]1[H:10])[H:7]>>[O:1]([C@@:2]12[C:3]([H:8])=[C:4]([H:9])[N:5]1[N:6]2[H:10])[H:7]"
O       -1.73315320      -0.13688012       0.58260174
C       -0.63073700      -0.04836743      -0.13368798
C        0.37507972       1.04840231      -0.03605656
C        1.36501465       0.15235811       0.13576195
N        0.80106696      -1.12335237       0.07014661
N       -0.29317288      -1.00220903      -1.02310783
H       -1.73086936       0.56911289       1.23965879
H        0.30057736       2.09917815      -0.26018845
H        2.42623257       0.26731142       0.32696761
H       -0.88003883      -1.82555392      -0.90209585
10
Frame=2 idx=001790 GeodesicLength=0.06831138182878765 rxn_smarts="[O:1]([c:2]1[c:3]([H:8])[c:4]([H:9])[n:5][n:6]1[H:10])[H:7]>>[O:1]([C@@:2]12[C:3]([H:8])=[C:4]([H:9])[N:5]1[N:6]2[H:10])[H:7]"
O       -1.74467015      -0.13266279       0.57433292
C       -0.62852517      -0.04834270      -0.12479683
C        0.37662527       1.04455430      -0.03167194
C        1.37165160       0.15009026       0.13023094
N        0.80158444      -1.12302966       0.07726213
N       -0.28542163      -1.00641808      -1.01096288
H       -1.75736223       0.58056250       1.22288180
H        0.30060409       2.10059216      -0.22861353
H        2.43771307       0.26519427       0.28969907
H       -0.87219929      -1.83054025      -0.89836170
10
Frame=3 idx=001790 GeodesicLength=0.10226248125388168 rxn_smarts="[O:1]([c:2]1[c:3]([H:8])[c:4]([H:9])[n:5][n:6]1[H:10])[H:7]>>[O:1]([C@@:2]12[C:3]([H:8])=[C:4]([H:9])[N:5]1[N:6]2[H:10])[H:7]"
O       -1.75594626      -0.12833606       0.56599759
C       -0.62627004      -0.04836951      -0.11563373
C        0.37818970       1.04078550      -0.02772821
C        1.37832890       0.14797250       0.12403559
N        0.80241245      -1.12255451       0.08399391
N       -0.27799691      -1.01063741      -0.99871619
H       -1.78331748       0.59202780       1.20561869
H        0.30083249       2.10157038      -0.19637125
H        2.44813440       0.26319446       0.25306185
H       -0.86436725      -1.83565316      -0.89425824
10
Frame=4 idx=001790 GeodesicLength=0.13612297680248886 rxn_smarts="[O:1]([c:2]1[c:3]([H:8])[c:4]([H:9])[n:5][n:6]1[H:10])[H:7]>>[O:1]([C@@:2]12[C:3]([H:8])=[C:4]([H:9])[N:5]1[N:6]2[H:10])[H:7]"
O       -1.76701695      -0.12392531       0.55751245
C       -0.62395305      -0.04846967      -0.10613994
C        0.37975560       1.03706803      -0.02411783
C        1.38500262       0.14599929       0.11737289
N        0.80353573      -1.12191707       0.09053889
N       -0.27080476      -1.01488869      -0.98627101
H       -1.80902108       0.60370032       1.18750926
H        0.30130026       2.10204160      -0.16301028
H        2.45764543       0.26130143       0.21632612
H       -0.85644379      -1.84090994      -0.88972056
10
Frame=5 idx=001790 GeodesicLength=0.16981996181222972 rxn_smarts="[O:1]([c:2]1[c:3]([H:8])[c:4]([H:9])[n:5][n:6]1[H:10])[H:7]>>[O:1]([C@@:2]12[C:3]([H:8])=[C:4]([H:9])[N:5]1[N:6]2[H:10])[H:7]"
O       -1.77782409      -0.11933606       0.54897600
C       -0.62162952      -0.04858835      -0.09642449
C        0.38128521       1.03347616      -0.02118243
C        1.39162524       0.14421411       0.10984673
N        0.80493701      -1.12109386       0.09651205
N       -0.26403496      -1.01910654      -0.97382396
H       -1.83380778       0.61510993       1.16935749
H        0.30199703       2.10192835      -0.12945658
H        2.46610377       0.25962841       0.18106286
H       -0.84865190      -1.84623215      -0.88486767
10
Frame=6 idx=001790 GeodesicLength=0.20333790454965817 rxn_smarts="[O:1]([c:2]1[c:3]([H:8])[c:4]([H:9])[n:5][n:6]1[H:10])[H:7]>>[O:1]([C@@:2]12[C:3]([H:8])=[C:4]([H:9])[N:5]1[N:6]2[H:10])[H:7]"
O       -1.78835947      -0.11460470       0.54043173
C       -0.61931377      -0.04872320      -0.08646461
C        0.38273931       1.03002462      -0.01890811
C        1.39814339       0.14262570       0.10150366
N        0.80659980      -1.12008322       0.10189629
N       -0.25769303      -1.02325590      -0.96139652
H       -1.85770712       0.62624562       1.15122237
H        0.30296295       2.10115144      -0.09586093
H        2.47363541       0.25820487       0.14733255
H       -0.84100748      -1.85158522      -0.87975643
10
Frame=7 idx=001790 GeodesicLength=0.23665809830699608 rxn_smarts="[O:1]([c:2]1[c:3]([H:8])[c:4]([H:9])[n:5][n:6]1[H:10])[H:7]>>[O:1]([C@@:2]12[C:3]([H:8])=[C:4]([H:9])[N:5]1[N:6]2[H:10])[H:7]"
O       -1.79864186      -0.10968368       0.53186694
C       -0.61703290      -0.04884692      -0.07629014
C        0.38408552       1.02673038      -0.01734893
C        1.40449285       0.14123428       0.09229874
N        0.80847696      -1.11888386       0.10657873
N       -0.25182623      -1.02727128      -0.94907557
H       -1.88047538       0.63685269       1.13356536
H        0.30419360       2.09967920      -0.06281297
H        2.48032136       0.25707392       0.11572238
H       -0.83359392      -1.85688473      -0.87450453
10
Frame=8 idx=001790 GeodesicLength=0.2698033229069325 rxn_smarts="[O:1]([c:2]1[c:3]([H:8])[c:4]([H:9])[n:5][n:6]1[H:10])[H:7]>>[O:1]([C@@:2]12[C:3]([H:8])=[C:4]([H:9])[N:5]1[N:6]2[H:10])[H:7]"
O       -1.80872821      -0.10460334       0.52320991
C       -0.61477371      -0.04897551      -0.06582282
C        0.38531142       1.02358441      -0.01631153
C        1.41065810       0.14002508       0.08243450
N        0.81055753      -1.11751628       0.11072656
N       -0.24635051      -1.03115128      -0.93679116
H       -1.90240580       0.64707360       1.11615379
H        0.30572680       2.09748191      -0.03009625
H        2.48633743       0.25621952       0.08560956
H       -0.82633305      -1.86213812      -0.86911255
10
Frame=9 idx=001790 GeodesicLength=0.3028320583632573 rxn_smarts="[O:1]([c:2]1[c:3]([H:8])[c:4]([H:9])[n:5][n:6]1[H:10])[H:7]>>[O:1]([C@@:2]12[C:3]([H:8])=[C:4]([H:9])[N:5]1[N:6]2[H:10])[H:7]"
O       -1.81869219      -0.09934543       0.51434023
C       -0.61252332      -0.04911731      -0.05500384
C        0.38641315       1.02057924      -0.01564872
C        1.41663012       0.13898428       0.07206393
N        0.81282625      -1.11599711       0.11448529
N       -0.24118304      -1.03490394      -0.92447914
H       -1.92369700       0.65698599       1.09884589
H        0.30758883       2.09454479       0.00247025
H        2.49179044       0.25562612       0.05649047
H       -0.81915326      -1.86735662      -0.86356437
10
Frame=10 idx=001790 GeodesicLength=0.3357297278651726 rxn_smarts="[O:1]([c:2]1[c:3]([H:8])[c:4]([H:9])[n:5][n:6]1[H:10])[H:7]>>[O:1]([C@@:2]12[C:3]([H:8])=[C:4]([H:9])[N:5]1[N:6]2[H:10])[H:7]"
O       -1.82850190      -0.09401909       0.50532050
C       -0.61025917      -0.04931554      -0.04370028
C        0.38737736       1.01767217      -0.01514855
C        1.42242712       0.13809865       0.06128731
N        0.81532907      -1.11434078       0.11792359
N       -0.23629752      -1.03850142      -0.91206147
H       -1.94463877       0.66681002       1.08123729
H        0.30980842       2.09082981       0.03511834
H        2.49676122       0.25528814       0.02786451
H       -0.81200583      -1.87252194      -0.85784124
10
Frame=11 idx=001790 GeodesicLength=0.3686166903141451 rxn_smarts="[O:1]([c:2]1[c:3]([H:8])[c:4]([H:9])[n:5][n:6]1[H:10])[H:7]>>[O:1]([C@@:2]12[C:3]([H:8])=[C:4]([H:9])[N:5]1[N:6]2[H:10])[H:7]"
O       -1.83823313      -0.08850909       0.49593759
C       -0.60796145      -0.04954960      -0.03188317
C        0.38821075       1.01487155      -0.01468853
C        1.42800410       0.13735595       0.05025152
N        0.81800113      -1.11254771       0.12117258
N       -0.23159231      -1.04193188      -0.89950913
H       -1.96522169       0.67645612       1.06343535
H        0.31238805       2.08628597       0.06779342
H        2.50121300       0.25517643      -0.00055285
H       -0.80480846      -1.87760774      -0.85195678
10
Frame=12 idx=001790 GeodesicLength=0.40131010830007996 rxn_smarts="[O:1]([c:2]1[c:3]([H:8])[c:4]([H:9])[n:5][n:6]1[H:10])[H:7]>>[O:1]([C@@:2]12[C:3]([H:8])=[C:4]([H:9])[N:5]1[N:6]2[H:10])[H:7]"
O       -1.84777158      -0.08289760       0.48643480
C       -0.60568648      -0.04981084      -0.01957507
C        0.38887275       1.01215886      -0.01422162
C        1.43331557       0.13673247       0.03890223
N        0.82080490      -1.11066137       0.12392060
N       -0.22723044      -1.04503508      -0.88703329
H       -1.98503426       0.68553663       1.04619664
H        0.31529486       2.08107817       0.09913062
H        2.50520717       0.25532498      -0.02749842
H       -0.79777249      -1.88242622      -0.84625649
10
Frame=13 idx=001790 GeodesicLength=0.43389835091991175 rxn_smarts="[O:1]([c:2]1[c:3]([H:8])[c:4]([H:9])[n:5][n:6]1[H:10])[H:7]>>[O:1]([C@@:2]12[C:3]([H:8])=[C:4]([H:9])[N:5]1[N:6]2[H:10])[H:7]"
O       -1.85720563      -0.07706555       0.47657822
C       -0.60343248      -0.05008288      -0.00679429
C        0.38937745       1.00954669      -0.01369020
C        1.43835395       0.13620892       0.02738899
N        0.82369022      -1.10870791       0.12632298
N       -0.22311643      -1.04784912      -0.87460069
H       -2.00412203       0.69399243       1.02963397
H        0.31850182       2.07527676       0.12920033
H        2.50878715       0.25568561      -0.05329981
H       -0.79083402      -1.88700493      -0.84073950
10
Frame=14 idx=001790 GeodesicLength=0.46639321047785476 rxn_smarts="[O:1]([c:2]1[c:3]([H:8])[c:4]([H:9])[n:5][n:6]1[H:10])[H:7]>>[O:1]([C@@:2]12[C:3]([H:8])=[C:4]([H:9])[N:5]1[N:6]2[H:10])[H:7]"
O       -1.86648185      -0.07107190       0.46639481
C       -0.60118118      -0.05040205       0.00652147
C        0.38972579       1.00698746      -0.01298006
C        1.44312289       0.13576629       0.01577991
N        0.82666272      -1.10670630       0.12844261
N       -0.21922201      -1.05038508      -0.86216605
H       -2.02264234       0.70197261       1.01349976
H        0.32200083       2.06894664       0.15819162
H        2.51196945       0.25624264      -0.07828560
H       -0.78395431      -1.89135031      -0.83539848
10
Frame=15 idx=001790 GeodesicLength=0.4988183106991792 rxn_smarts="[O:1]([c:2]1[c:3]([H:8])[c:4]([H:9])[n:5][n:6]1[H:10])[H:7]>>[O:1]([C@@:2]12[C:3]([H:8])=[C:4]([H:9])[N:5]1[N:6]2[H:10])[H:7]"
O       -1.87557185      -0.06493329       0.45585739
C       -0.59892238      -0.05078684       0.02040526
C        0.38992200       1.00445657      -0.01199744
C        1.44762621       0.13539214       0.00416011
N        0.82971729      -1.10467145       0.13036612
N       -0.21550484      -1.05266463      -0.84968485
H       -2.04070940       0.70957704       0.99760734
H        0.32578301       2.06213193       0.18629471
H        2.51475131       0.25697591      -0.10279020
H       -0.77709134      -1.89547739      -0.83021844
10
Frame=16 idx=001790 GeodesicLength=0.5311980277838956 rxn_smarts="[O:1]([c:2]1[c:3]([H:8])[c:4]([H:9])[n:5][n:6]1[H:10])[H:7]>>[O:1]([C@@:2]12[C:3]([H:8])=[C:4]([H:9])[N:5]1[N:6]2[H:10])[H:7]"
O       -1.88442857      -0.05868322       0.44498024
C       -0.59665032      -0.05125050       0.03487897
C        0.38996949       1.00193363      -0.01065685
C        1.45186513       0.13507787      -0.00739679
N        0.83284676      -1.10261300       0.13216921
N       -0.21192695      -1.05470480      -0.83711973
H       -2.05842157       0.71690906       0.98175856
H        0.32983974       2.05486426       0.21368521
H        2.51711145       0.25786274      -0.12710765
H       -0.77020517      -1.89939605      -0.82519118
