14
Frame=0 idx=005327 GeodesicLength=0.0 rxn_smarts="[O:1]([C:2]([C:3]([C@@:4]1([H:12])[C:5]([H:13])([H:14])[O:6]1)([H:10])[H:11])([H:8])[H:9])[H:7]>>[C:2]1([H:8])([H:9])[C:3]([H:10])([H:11])[C@:4]2([H:12])[C@@:5]1([H:14])[O:6]2.[O:1]([H:7])[H:13]"
O        0.59933669       1.12435784       1.68457291
C        1.15339550      -0.15757988       0.03139879
C        0.15564298      -1.23895127      -0.08710390
C       -1.05841380      -0.62090288      -0.71686748
C       -1.06489656       0.81732076      -0.45412182
O       -0.73263924       0.29228558      -1.74492104
H        1.14354551       1.91889366       1.71504932
H        1.24650447       0.52237588      -0.80221473
H        2.03620290      -0.33479097       0.63045501
H        0.60714251      -2.04797189      -0.68427038
H       -0.08374034      -1.66304963       0.89099080
H       -1.93578204      -1.23344586      -0.90101175
H       -0.06538484       1.24187661       0.91252284
H       -2.00091374       1.37958199      -0.47447855
14
Frame=1 idx=005327 GeodesicLength=0.12810593362143635 rxn_smarts="[O:1]([C:2]([C:3]([C@@:4]1([H:12])[C:5]([H:13])([H:14])[O:6]1)([H:10])[H:11])([H:8])[H:9])[H:7]>>[C:2]1([H:8])([H:9])[C:3]([H:10])([H:11])[C@:4]2([H:12])[C@@:5]1([H:14])[O:6]2.[O:1]([H:7])[H:13]"
O        0.66493886       1.18771355       1.66557373
C        1.13601221      -0.16918369       0.07880670
C        0.14626851      -1.25190619      -0.09649594
C       -1.04892089      -0.62093566      -0.74619047
C       -1.08521979       0.79863027      -0.40308069
O       -0.71632571       0.35525704      -1.71232992
H        1.15947309       2.00869083       1.56159219
H        1.29403620       0.49744222      -0.75621106
H        2.01719403      -0.39105641       0.66763174
H        0.60880640      -2.04765087      -0.70195889
H       -0.11438823      -1.69326691       0.86844177
H       -1.91077110      -1.23510973      -0.98991183
H       -0.11755001       1.22092800       0.97230210
H       -2.03355359       1.34044756      -0.40816943
14
Frame=2 idx=005327 GeodesicLength=0.25569337547877546 rxn_smarts="[O:1]([C:2]([C:3]([C@@:4]1([H:12])[C:5]([H:13])([H:14])[O:6]1)([H:10])[H:11])([H:8])[H:9])[H:7]>>[C:2]1([H:8])([H:9])[C:3]([H:10])([H:11])[C@:4]2([H:12])[C@@:5]1([H:14])[O:6]2.[O:1]([H:7])[H:13]"
O        0.72802014       1.25833736       1.62999843
C        1.11988568      -0.18344640       0.12640821
C        0.13825434      -1.26457322      -0.10744061
C       -1.03704218      -0.61605640      -0.77309119
C       -1.10391798       0.77826597      -0.34636360
O       -0.70097497       0.42268057      -1.67035939
H        1.15329882       2.09115435       1.39505239
H        1.34642075       0.46173963      -0.71042659
H        1.99170920      -0.44531015       0.71489366
H        0.61038055      -2.04545203      -0.72340797
H       -0.14351653      -1.72606614       0.84201505
H       -1.88144520      -1.22724009      -1.07782891
H       -0.15706246       1.19724948       1.03588324
H       -2.06401015       1.29871706      -0.33533271
14
Frame=3 idx=005327 GeodesicLength=0.3839140471096305 rxn_smarts="[O:1]([C:2]([C:3]([C@@:4]1([H:12])[C:5]([H:13])([H:14])[O:6]1)([H:10])[H:11])([H:8])[H:9])[H:7]>>[C:2]1([H:8])([H:9])[C:3]([H:10])([H:11])[C@:4]2([H:12])[C@@:5]1([H:14])[O:6]2.[O:1]([H:7])[H:13]"
O        0.78225773       1.33149734       1.58024515
C        1.10391962      -0.19763839       0.17373693
C        0.13209636      -1.27580767      -0.11960685
C       -1.02354035      -0.60743062      -0.79755791
C       -1.12293148       0.75522338      -0.28647199
O       -0.68849004       0.49154331      -1.62037903
H        1.13921804       2.15391137       1.22495344
H        1.40149050       0.41862931      -0.66372372
H        1.95906170      -0.49460815       0.77209332
H        0.61435048      -2.03988148      -0.74731006
H       -0.16980066      -1.76020478       0.81205094
H       -1.84909808      -1.21123928      -1.16259272
H       -0.18336574       1.18419444       1.09410692
H       -2.09516806       1.25181122      -0.25954443
14
Frame=4 idx=005327 GeodesicLength=0.5134493686838509 rxn_smarts="[O:1]([C:2]([C:3]([C@@:4]1([H:12])[C:5]([H:13])([H:14])[O:6]1)([H:10])[H:11])([H:8])[H:9])[H:7]>>[C:2]1([H:8])([H:9])[C:3]([H:10])([H:11])[C@:4]2([H:12])[C@@:5]1([H:14])[O:6]2.[O:1]([H:7])[H:13]"
O        0.82991699       1.40348945       1.51867519
C        1.08822249      -0.21117398       0.21990108
C        0.12794241      -1.28526491      -0.13302128
C       -1.00914727      -0.59532958      -0.81898333
C       -1.14180648       0.72982814      -0.22541040
O       -0.67961712       0.55939248      -1.56401830
H        1.11730480       2.19926426       1.05557520
H        1.45849444       0.36959233      -0.61525611
H        1.91953865      -0.53902482       0.83754092
H        0.62042773      -2.03083178      -0.77365769
H       -0.19276655      -1.79477356       0.77869604
H       -1.81461040      -1.18794451      -1.24260424
H       -0.19813354       1.18134469       1.14532894
H       -2.12576615       1.20143180      -0.18276603
14
Frame=5 idx=005327 GeodesicLength=0.644336220742806 rxn_smarts="[O:1]([C:2]([C:3]([C@@:4]1([H:12])[C:5]([H:13])([H:14])[O:6]1)([H:10])[H:11])([H:8])[H:9])[H:7]>>[C:2]1([H:8])([H:9])[C:3]([H:10])([H:11])[C@:4]2([H:12])[C@@:5]1([H:14])[O:6]2.[O:1]([H:7])[H:13]"
O        0.87105953       1.47072254       1.44863117
C        1.07225348      -0.22288031       0.26442790
C        0.12602207      -1.29237187      -0.14754143
C       -0.99454956      -0.58056889      -0.83707970
C       -1.15992222       0.70257021      -0.16549654
O       -0.67533026       0.62381818      -1.50388609
H        1.09340479       2.22561858       0.89063851
H        1.51570771       0.31760470      -0.56360777
H        1.87339195      -0.57787665       0.90836720
H        0.62939393      -2.01739434      -0.80186884
H       -0.21139706      -1.82884698       0.74235356
H       -1.77951999      -1.15863829      -1.31566175
H       -0.20543694       1.19026589       1.18795862
H       -2.15507744       1.14797723      -0.10723483
14
Frame=6 idx=005327 GeodesicLength=0.7765750638016976 rxn_smarts="[O:1]([C:2]([C:3]([C@@:4]1([H:12])[C:5]([H:13])([H:14])[O:6]1)([H:10])[H:11])([H:8])[H:9])[H:7]>>[C:2]1([H:8])([H:9])[C:3]([H:10])([H:11])[C@:4]2([H:12])[C@@:5]1([H:14])[O:6]2.[O:1]([H:7])[H:13]"
O        0.90751157       1.53128693       1.37259801
C        1.05638410      -0.23253544       0.30653181
C        0.12640942      -1.29685504      -0.16306837
C       -0.98041270      -0.56367018      -0.85140271
C       -1.17609144       0.67478241      -0.10833993
O       -0.67587196       0.68312361      -1.44272729
H        1.06661399       2.23534063       0.73237501
H        1.57266923       0.26430458      -0.50813554
H        1.82120108      -0.61124452       0.98211329
H        0.64069370      -1.99962930      -0.83169222
H       -0.22533712      -1.86138328       0.70356053
H       -1.74506481      -1.12489625      -1.38013089
H       -0.20735827       1.20754629       1.22260889
H       -2.18134680       1.09382957      -0.03429059
14
Frame=7 idx=005327 GeodesicLength=0.9098897286317711 rxn_smarts="[O:1]([C:2]([C:3]([C@@:4]1([H:12])[C:5]([H:13])([H:14])[O:6]1)([H:10])[H:11])([H:8])[H:9])[H:7]>>[C:2]1([H:8])([H:9])[C:3]([H:10])([H:11])[C@:4]2([H:12])[C@@:5]1([H:14])[O:6]2.[O:1]([H:7])[H:13]"
O        0.93976451       1.58405638       1.29321121
C        1.04052056      -0.23976086       0.34604344
C        0.12917163      -1.29863357      -0.17963542
C       -0.96743726      -0.54569744      -0.86227217
C       -1.18982127       0.64744013      -0.05518061
O       -0.68151481       0.73630072      -1.38321527
H        1.04076133       2.22985823       0.58334138
H        1.62859541       0.21140547      -0.44797691
H        1.76373307      -0.63940751       1.05614321
H        0.65473298      -1.97730216      -0.86291176
H       -0.23407321      -1.89200780       0.66259136
H       -1.71329115      -1.08885923      -1.43478435
H       -0.20696331       1.23275498       1.24939316
H       -2.20417848       1.03985266       0.03525274
14
Frame=8 idx=005327 GeodesicLength=1.0441976034836244 rxn_smarts="[O:1]([C:2]([C:3]([C@@:4]1([H:12])[C:5]([H:13])([H:14])[O:6]1)([H:10])[H:11])([H:8])[H:9])[H:7]>>[C:2]1([H:8])([H:9])[C:3]([H:10])([H:11])[C@:4]2([H:12])[C@@:5]1([H:14])[O:6]2.[O:1]([H:7])[H:13]"
O        0.96919262       1.62913034       1.21162914
C        1.02481445      -0.24476280       0.38297583
C        0.13422470      -1.29769224      -0.19723907
C       -0.95590365      -0.52717388      -0.87003830
C       -1.20089137       0.62123554      -0.00606598
O       -0.69205387       0.78358948      -1.32668927
H        1.01611379       2.21157325       0.44352204
H        1.68322688       0.15935601      -0.38239453
H        1.70112293      -0.66293513       1.12923686
H        0.67128887      -1.95037790      -0.89541087
H       -0.23775876      -1.92038922       0.61959919
H       -1.68487339      -1.05203257      -1.48003890
H       -0.20523344       1.26371373       1.26919690
H       -2.22326977       0.98676540       0.10171695
14
Frame=9 idx=005327 GeodesicLength=1.1793041208461903 rxn_smarts="[O:1]([C:2]([C:3]([C@@:4]1([H:12])[C:5]([H:13])([H:14])[O:6]1)([H:10])[H:11])([H:8])[H:9])[H:7]>>[C:2]1([H:8])([H:9])[C:3]([H:10])([H:11])[C@:4]2([H:12])[C@@:5]1([H:14])[O:6]2.[O:1]([H:7])[H:13]"
O        0.99675819       1.66679576       1.12845061
C        1.00925092      -0.24778457       0.41764490
C        0.14148207      -1.29403441      -0.21588038
C       -0.94598727      -0.50855437      -0.87514526
C       -1.20939978       0.59647164       0.03933784
O       -0.70721126       0.82555695      -1.27372306
H        0.99368358       2.18238500       0.31247789
H        1.73600121       0.10831325      -0.31061701
H        1.63349190      -0.68252673       1.20035321
H        0.69038591      -1.91859449      -0.92910310
H       -0.23649431      -1.94646921       0.57457383
H       -1.66025679      -1.01560651      -1.51669464
H       -0.20299499       1.29938271       1.28260930
H       -2.23870939       0.93466499       0.16571587
14
Frame=10 idx=005327 GeodesicLength=1.3151180503973956 rxn_smarts="[O:1]([C:2]([C:3]([C@@:4]1([H:12])[C:5]([H:13])([H:14])[O:6]1)([H:10])[H:11])([H:8])[H:9])[H:7]>>[C:2]1([H:8])([H:9])[C:3]([H:10])([H:11])[C@:4]2([H:12])[C@@:5]1([H:14])[O:6]2.[O:1]([H:7])[H:13]"
O        1.02331754       1.69741871       1.04368994
C        0.99381773      -0.24916455       0.45050408
C        0.15087205      -1.28763384      -0.23555212
C       -0.93772896      -0.49008010      -0.87795186
C       -1.21558338       0.57322639       0.08163911
O       -0.72663601       0.86295529      -1.22421433
H        0.97395227       2.14365457       0.18913109
H        1.78619397       0.05823923      -0.23188755
H        1.56085171      -0.69885537       1.26885226
H        0.71208107      -1.88154627      -0.96392172
H       -0.23040075      -1.97026013       0.52737715
H       -1.63949299      -0.98030453      -1.54576942
H       -0.20055726       1.33890399       1.29010286
H       -2.25068699       0.88344662       0.22800051
14
Frame=11 idx=005327 GeodesicLength=1.4516518227692756 rxn_smarts="[O:1]([C:2]([C:3]([C@@:4]1([H:12])[C:5]([H:13])([H:14])[O:6]1)([H:10])[H:11])([H:8])[H:9])[H:7]>>[C:2]1([H:8])([H:9])[C:3]([H:10])([H:11])[C@:4]2([H:12])[C@@:5]1([H:14])[O:6]2.[O:1]([H:7])[H:13]"
O        1.04955754       1.72118808       0.95703424
C        0.97847827      -0.24927581       0.48212139
C        0.16233039      -1.27841265      -0.25616778
C       -0.93108329      -0.47185929      -0.87870434
C       -1.21969242       0.55148406       0.12148770
O       -0.74988324       0.89650157      -1.17769136
H        0.95698859       2.09615259       0.07227394
H        1.83273127       0.00918190      -0.14564820
H        1.48339709      -0.71264222       1.33413063
H        0.73647107      -1.83869143      -0.99966794
H       -0.21957346      -1.99174355       0.47787075
H       -1.62238060      -0.94649204      -1.56827845
H       -0.19797284       1.38162572       1.29201598
H       -2.25936837       0.83298307       0.28922344
14
Frame=12 idx=005327 GeodesicLength=1.5890006671799783 rxn_smarts="[O:1]([C:2]([C:3]([C@@:4]1([H:12])[C:5]([H:13])([H:14])[O:6]1)([H:10])[H:11])([H:8])[H:9])[H:7]>>[C:2]1([H:8])([H:9])[C:3]([H:10])([H:11])[C@:4]2([H:12])[C@@:5]1([H:14])[O:6]2.[O:1]([H:7])[H:13]"
O        1.07599878       1.73797074       0.86808695
C        0.96318412      -0.24849061       0.51310120
C        0.17575145      -1.26627033      -0.27747320
C       -0.92594281      -0.45393759      -0.87754611
C       -1.22194801       0.53124028       0.15942493
O       -0.77630904       0.92677196      -1.13355473
H        0.94232093       2.04030710      -0.03898689
H        1.87416748      -0.03853134      -0.05191966
H        1.40182733      -0.72473378       1.39541406
H        0.76358507      -1.78952794      -1.03583244
H       -0.20414768      -2.01075845       0.42612266
H       -1.60848114      -0.91429111      -1.58521225
H       -0.19514712       1.42690868       1.28865015
H       -2.26485936       0.78334239       0.34972533
14
Frame=13 idx=005327 GeodesicLength=1.7274344500547836 rxn_smarts="[O:1]([C:2]([C:3]([C@@:4]1([H:12])[C:5]([H:13])([H:14])[O:6]1)([H:10])[H:11])([H:8])[H:9])[H:7]>>[C:2]1([H:8])([H:9])[C:3]([H:10])([H:11])[C@:4]2([H:12])[C@@:5]1([H:14])[O:6]2.[O:1]([H:7])[H:13]"
O        1.10294774       1.74739707       0.77655440
C        0.94785558      -0.24715081       0.54402323
C        0.19096612      -1.25112792      -0.29905849
C       -0.92214513      -0.43633332      -0.87456998
C       -1.22257045       0.51253829       0.19583108
O       -0.80503876       0.95422025      -1.09120867
H        0.92915880       1.97623478      -0.14515947
H        1.90892004      -0.08414728       0.04850601
H        1.31738314      -0.73606673       1.45188208
H        0.79334397      -1.73370738      -1.07159346
H       -0.18435916      -2.02702009       0.37243707
H       -1.59722424      -0.88362987      -1.59750175
H       -0.19194533       1.47402660       1.28035157
H       -2.26729231       0.73476643       0.40950637
14
Frame=14 idx=005327 GeodesicLength=1.8673374508208098 rxn_smarts="[O:1]([C:2]([C:3]([C@@:4]1([H:12])[C:5]([H:13])([H:14])[O:6]1)([H:10])[H:11])([H:8])[H:9])[H:7]>>[C:2]1([H:8])([H:9])[C:3]([H:10])([H:11])[C@:4]2([H:12])[C@@:5]1([H:14])[O:6]2.[O:1]([H:7])[H:13]"
O        1.13047327       1.74889803       0.68251568
C        0.93243015      -0.24549996       0.57525371
C        0.20767384      -1.23303985      -0.32031133
C       -0.91948926      -0.41911338      -0.86987816
C       -1.22178422       0.49548119       0.23084650
O       -0.83485098       0.97914438      -1.05022658
H        0.91628880       1.90431426      -0.24600749
H        1.93559423      -0.12653789       0.15367211
H        1.23201018      -0.74762876       1.50261747
H        0.82536068      -1.67143126      -1.10574523
H       -0.16066044      -2.04009974       0.31759325
H       -1.58788617      -0.85433411      -1.60612860
H       -0.18829991       1.52202679       1.26772009
H       -2.26686019       0.68782030       0.46807858
14
Frame=15 idx=005327 GeodesicLength=2.0091899970871068 rxn_smarts="[O:1]([C:2]([C:3]([C@@:4]1([H:12])[C:5]([H:13])([H:14])[O:6]1)([H:10])[H:11])([H:8])[H:9])[H:7]>>[C:2]1([H:8])([H:9])[C:3]([H:10])([H:11])[C@:4]2([H:12])[C@@:5]1([H:14])[O:6]2.[O:1]([H:7])[H:13]"
O        1.15843915       1.74195849       0.58657617
C        0.91691366      -0.24366418       0.60680377
C        0.22541292      -1.21233453      -0.34049365
C       -0.91774083      -0.40242140      -0.86366386
C       -1.21983531       0.48018487       0.26437962
O       -0.86423851       1.00174059      -1.01043442
H        0.90222807       1.82555524      -0.34058858
H        1.95346404      -0.16434614       0.26056080
H        1.14817584      -0.76025863       1.54681305
H        0.85886180      -1.60373565      -1.13689107
H       -0.13381970      -2.04958614       0.26286097
H       -1.57967406      -0.82613740      -1.61217330
H       -0.18428222       1.56975805       1.25172017
H       -2.26390487       0.64328683       0.52453034
14
Frame=16 idx=005327 GeodesicLength=2.153559977124455 rxn_smarts="[O:1]([C:2]([C:3]([C@@:4]1([H:12])[C:5]([H:13])([H:14])[O:6]1)([H:10])[H:11])([H:8])[H:9])[H:7]>>[C:2]1([H:8])([H:9])[C:3]([H:10])([H:11])[C@:4]2([H:12])[C@@:5]1([H:14])[O:6]2.[O:1]([H:7])[H:13]"
O        1.18637817       1.72645913       0.48973529
C        0.90135426      -0.24163310       0.63830136
C        0.24363436      -1.18957498      -0.35898082
C       -0.91668884      -0.38646301      -0.85619347
C       -1.21698370       0.46665915       0.29623127
O       -0.89164057       1.02215340      -0.97183489
H        0.88599444       1.74125395      -0.42781802
H        1.96276995      -0.19625842       0.36588693
H        1.06821900      -0.77435983       1.58402831
H        0.89284265      -1.53221506      -1.16388312
H       -0.10478139      -2.05528247       0.20963563
H       -1.57195780      -0.79867897      -1.61662053
H       -0.18024202       1.61605149       1.23364898
H       -2.25889852       0.60188874       0.57786308
