15
Frame=0 idx=009719 GeodesicLength=0.0 rxn_smarts="[C:1]([C@@:2]([O:3][H:12])([C@@:4]([O:5][H:14])([C:6](=[O:7])[H:15])[H:13])[H:11])([H:8])([H:9])[H:10]>>[C:1](/[C:2](=[C:4](/[O:5][H:14])[H:13])[H:11])([H:8])([H:9])[H:10].[O:3]([C:6](=[O:7])[H:15])[H:12]"
C       -1.24856498       0.73749214      -1.23374952
C       -0.81816970      -0.19883011      -0.17508314
O        0.95682555      -0.81489178      -0.95135360
C       -0.16034293       0.22693254       0.99910594
O       -0.22637717      -0.62112625       2.08024052
C        1.41061343      -0.01742005       0.27491331
O        2.12672059      -0.65258509       1.06133579
H       -1.24536229       0.26723585      -2.21429499
H       -2.27675799       1.03421287      -0.99731071
H       -0.63663466       1.63911831      -1.24984753
H       -1.23240707      -1.20088616      -0.18241381
H        1.16624233      -1.72456692      -0.70515728
H       -0.23330923       1.29033969       1.23616137
H        0.70126773      -0.91887226       2.20069922
H        1.71625633       0.95384716      -0.14324562
15
Frame=1 idx=009719 GeodesicLength=0.1125484702527126 rxn_smarts="[C:1]([C@@:2]([O:3][H:12])([C@@:4]([O:5][H:14])([C:6](=[O:7])[H:15])[H:13])[H:11])([H:8])([H:9])[H:10]>>[C:1](/[C:2](=[C:4](/[O:5][H:14])[H:13])[H:11])([H:8])([H:9])[H:10].[O:3]([C:6](=[O:7])[H:15])[H:12]"
C       -1.26179724       0.74532947      -1.23313159
C       -0.82102389      -0.20129556      -0.18556582
O        0.97975838      -0.83870562      -0.95630355
C       -0.16716667       0.22359309       0.99250975
O       -0.23272519      -0.62961062       2.06978735
C        1.43497849      -0.02187675       0.27934103
O        2.14257065      -0.64076425       1.08232150
H       -1.27198443       0.28136863      -2.21684821
H       -2.28564501       1.04799700      -0.98619570
H       -0.64622484       1.64449803      -1.25372523
H       -1.25379066      -1.19576315      -0.18715474
H        1.19666172      -1.74461405      -0.70236070
H       -0.23780928       1.28589030       1.23490626
H        0.69785514      -0.90585818       2.20995577
H        1.72634283       0.94981166      -0.14753611
15
Frame=2 idx=009719 GeodesicLength=0.22506719800559005 rxn_smarts="[C:1]([C@@:2]([O:3][H:12])([C@@:4]([O:5][H:14])([C:6](=[O:7])[H:15])[H:13])[H:11])([H:8])([H:9])[H:10]>>[C:1](/[C:2](=[C:4](/[O:5][H:14])[H:13])[H:11])([H:8])([H:9])[H:10].[O:3]([C:6](=[O:7])[H:15])[H:12]"
C       -1.27544910       0.75343018      -1.23241595
C       -0.82390742      -0.20377109      -0.19660349
O        1.00349738      -0.86347794      -0.96076733
C       -0.17406165       0.22013224       0.98544975
O       -0.23875902      -0.63835465       2.05874877
C        1.45995902      -0.02627241       0.28403120
O        2.15846719      -0.62810923       1.10390793
H       -1.29965054       0.29604799      -2.21919232
H       -2.29465690       1.06205427      -0.97446140
H       -0.65615767       1.65004018      -1.25775743
H       -1.27574298      -1.18999996      -0.19200360
H        1.22830533      -1.76526454      -0.69870318
H       -0.24236756       1.28124248       1.23338806
H        0.69387290      -0.89310109       2.21852277
H        1.73665103       0.94540357      -0.15214378
15
Frame=3 idx=009719 GeodesicLength=0.33756628413520323 rxn_smarts="[C:1]([C@@:2]([O:3][H:12])([C@@:4]([O:5][H:14])([C:6](=[O:7])[H:15])[H:13])[H:11])([H:8])([H:9])[H:10]>>[C:1](/[C:2](=[C:4](/[O:5][H:14])[H:13])[H:11])([H:8])([H:9])[H:10].[O:3]([C:6](=[O:7])[H:15])[H:12]"
C       -1.28954240       0.76180877      -1.23159232
C       -0.82683287      -0.20625062      -0.20823164
O        1.02808534      -0.88926411      -0.96468698
C       -0.18102992       0.21654794       0.97789166
O       -0.24447373      -0.64735646       2.04708838
C        1.48558269      -0.03060056       0.28899920
O        2.17438057      -0.61456438       1.12610783
H       -1.32842192       0.31130799      -2.22129357
H       -2.30379122       1.07639124      -0.96207656
H       -0.66646534       1.65575967      -1.26195026
H       -1.29824663      -1.18355149      -0.19697152
H        1.26121993      -1.78653982      -0.69411069
H       -0.24697907       1.27638934       1.23158155
H        0.68932151      -0.88066090       2.22633024
H        1.74719307       0.94058338      -0.15708533
15
Frame=4 idx=009719 GeodesicLength=0.450054851965832 rxn_smarts="[C:1]([C@@:2]([O:3][H:12])([C@@:4]([O:5][H:14])([C:6](=[O:7])[H:15])[H:13])[H:11])([H:8])([H:9])[H:10]>>[C:1](/[C:2](=[C:4](/[O:5][H:14])[H:13])[H:11])([H:8])([H:9])[H:10].[O:3]([C:6](=[O:7])[H:15])[H:12]"
C       -1.30410050       0.77048321      -1.23064947
C       -0.82981954      -0.20872651      -0.22049098
O        1.05356468      -0.91612431      -0.96800085
C       -0.18807364       0.21283180       0.96979591
O       -0.24986565      -0.65662635       2.03475955
C        1.51187646      -0.03485844       0.29426044
O        2.19027015      -0.60006561       1.14893056
H       -1.35836653       0.32718899      -2.22311048
H       -2.31304096       1.09102162      -0.94900580
H       -0.67718032       1.66167254      -1.26631074
H       -1.32127598      -1.17637681      -0.20208436
H        1.29545256      -1.80846202      -0.68850262
H       -0.25164022       1.27131619       1.22946145
H        0.68421697      -0.86857685       2.23332627
H        1.75798253       0.93530256      -0.16237888
15
Frame=5 idx=009719 GeodesicLength=0.5625389954526108 rxn_smarts="[C:1]([C@@:2]([O:3][H:12])([C@@:4]([O:5][H:14])([C:6](=[O:7])[H:15])[H:13])[H:11])([H:8])([H:9])[H:10]>>[C:1](/[C:2](=[C:4](/[O:5][H:14])[H:13])[H:11])([H:8])([H:9])[H:10].[O:3]([C:6](=[O:7])[H:15])[H:12]"
C       -1.31914323       0.77946744      -1.22957432
C       -0.83289189      -0.21118753      -0.23340947
O        1.07996413      -0.94410908      -0.97064986
C       -0.19519732       0.20898425       0.96113199
O       -0.25492608      -0.66616355       2.02172746
C        1.53886640      -0.03904346       0.29982711
O        2.20609467      -0.58456003       1.17237393
H       -1.38952339       0.34372256      -2.22460606
H       -2.32240596       1.10594652      -0.93522951
H       -0.68833738       1.66779764      -1.27083804
H       -1.34479287      -1.16843903      -0.20735623
H        1.33103670      -1.83104623      -0.68181336
H       -0.25634380       1.26601701       1.22700614
H        0.67856989      -0.85689959       2.23944772
H        1.76903013       0.92951307      -0.16803749
15
Frame=6 idx=009719 GeodesicLength=0.6750229088055129 rxn_smarts="[C:1]([C@@:2]([O:3][H:12])([C@@:4]([O:5][H:14])([C:6](=[O:7])[H:15])[H:13])[H:11])([H:8])([H:9])[H:10]>>[C:1](/[C:2](=[C:4](/[O:5][H:14])[H:13])[H:11])([H:8])([H:9])[H:10].[O:3]([C:6](=[O:7])[H:15])[H:12]"
C       -1.33469954       0.78878417      -1.22835375
C       -0.83608381      -0.21361416      -0.24702572
O        1.10732467      -0.97328375      -0.97255652
C       -0.20239773       0.20500026       0.95185454
O       -0.25964708      -0.67597400       2.00793843
C        1.56657941      -0.04315372       0.30571986
O        2.22179840      -0.56798387       1.19643691
H       -1.42195812       0.36095377      -2.22572615
H       -2.33188199       1.12117476      -0.92071763
H       -0.69998457       1.67416096      -1.27553368
H       -1.36873972      -1.15971178      -0.21282913
H        1.36801110      -1.85431433      -0.67394979
H       -0.26107937       1.26048007       1.22418702
H        0.67240281      -0.84567188       2.24463361
H        1.78035554       0.92315349      -0.17407800
15
Frame=7 idx=009719 GeodesicLength=0.7875150010486831 rxn_smarts="[C:1]([C@@:2]([O:3][H:12])([C@@:4]([O:5][H:14])([C:6](=[O:7])[H:15])[H:13])[H:11])([H:8])([H:9])[H:10]>>[C:1](/[C:2](=[C:4](/[O:5][H:14])[H:13])[H:11])([H:8])([H:9])[H:10].[O:3]([C:6](=[O:7])[H:15])[H:12]"
C       -1.35079248       0.79845008      -1.22697689
C       -0.83944161      -0.21598269      -0.26135814
O        1.13567223      -1.00369833      -0.97364836
C       -0.20967446       0.20088470       0.94193102
O       -0.26401421      -0.68605342       1.99335466
C        1.59504107      -0.04718419       0.31195989
O        2.23732314      -0.55028859       1.22110075
H       -1.45570965       0.37891442      -2.22641438
H       -2.34146904       1.13671334      -0.90546093
H       -0.71216308       1.68078415      -1.28039839
H       -1.39304953      -1.15018209      -0.21853296
H        1.40640364      -1.87827791      -0.66483760
H       -0.26583571       1.25470258       1.22098147
H        0.66573626      -0.83494827       2.24880777
H        1.79197344       0.91616622      -0.18050790
15
Frame=8 idx=009719 GeodesicLength=0.9000152332864162 rxn_smarts="[C:1]([C@@:2]([O:3][H:12])([C@@:4]([O:5][H:14])([C:6](=[O:7])[H:15])[H:13])[H:11])([H:8])([H:9])[H:10]>>[C:1](/[C:2](=[C:4](/[O:5][H:14])[H:13])[H:11])([H:8])([H:9])[H:10].[O:3]([C:6](=[O:7])[H:15])[H:12]"
C       -1.36745339       0.80848943      -1.22542906
C       -0.84301226      -0.21825927      -0.27643600
O        1.16503280      -1.03541037      -0.97384191
C       -0.21702121       0.19663983       0.93131798
O       -0.26801163      -0.69640388       1.97792084
C        1.62427985      -0.05113698       0.31857259
O        2.25259864      -0.53142589       1.24633891
H       -1.49081726       0.39764781      -2.22661384
H       -2.35117168       1.15255825      -0.88944247
H       -0.72493225       1.68770449      -1.28542389
H       -1.41763832      -1.13984821      -0.22452204
H        1.44623373      -1.90295281      -0.65438961
H       -0.27059866       1.24867701       1.21736344
H        0.65860520      -0.82475693       2.25191874
H        1.80390645       0.90847753      -0.18733367
15
Frame=9 idx=009719 GeodesicLength=1.0124297282232946 rxn_smarts="[C:1]([C@@:2]([O:3][H:12])([C@@:4]([O:5][H:14])([C:6](=[O:7])[H:15])[H:13])[H:11])([H:8])([H:9])[H:10]>>[C:1](/[C:2](=[C:4](/[O:5][H:14])[H:13])[H:11])([H:8])([H:9])[H:10].[O:3]([C:6](=[O:7])[H:15])[H:12]"
C       -1.38480669       0.81896951      -1.22367983
C       -0.84683978      -0.22037334      -0.29235158
O        1.19548670      -1.06854381      -0.97287240
C       -0.22437817       0.19227997       0.91987924
O       -0.27165473      -0.70698860       1.96151854
C        1.65435671      -0.05500197       0.32560458
O        2.26753471      -0.51141747       1.27212278
H       -1.52744965       0.41729784      -2.22623696
H       -2.36105258       1.16870645      -0.87256900
H       -0.73848509       1.69502333      -1.29059217
H       -1.44234539      -1.12876906      -0.23095893
H        1.48763616      -1.92837867      -0.64229758
H       -0.27530220       1.24240729       1.21321446
H        0.65103847      -0.81517318       2.25379449
H        1.81626153       0.89996171      -0.19457565
15
Frame=10 idx=009719 GeodesicLength=1.1248432706561882 rxn_smarts="[C:1]([C@@:2]([O:3][H:12])([C@@:4]([O:5][H:14])([C:6](=[O:7])[H:15])[H:13])[H:11])([H:8])([H:9])[H:10]>>[C:1](/[C:2](=[C:4](/[O:5][H:14])[H:13])[H:11])([H:8])([H:9])[H:10].[O:3]([C:6](=[O:7])[H:15])[H:12]"
C       -1.40279473       0.82987340      -1.22172551
C       -0.85099045      -0.22230474      -0.30906091
O        1.22698626      -1.10307934      -0.97081504
C       -0.23179077       0.18780994       0.90766408
O       -0.27490459      -0.71783457       1.94415402
C        1.68526853      -0.05879210       0.33305466
O        2.28207745      -0.49017498       1.29839779
H       -1.56549589       0.43779626      -2.22523721
H       -2.37106884       1.18514600      -0.85490858
H       -0.75276761       1.70272611      -1.29589247
H       -1.46713629      -1.11692903      -0.23781059
H        1.53051439      -1.95452315      -0.62869139
H       -0.27996702       1.23589095       1.20859204
H        0.64307976      -0.80617951       2.25449067
H        1.82898980       0.89057475      -0.20221157
15
Frame=11 idx=009719 GeodesicLength=1.237252633149896 rxn_smarts="[C:1]([C@@:2]([O:3][H:12])([C@@:4]([O:5][H:14])([C:6](=[O:7])[H:15])[H:13])[H:11])([H:8])([H:9])[H:10]>>[C:1](/[C:2](=[C:4](/[O:5][H:14])[H:13])[H:11])([H:8])([H:9])[H:10].[O:3]([C:6](=[O:7])[H:15])[H:12]"
C       -1.42145417       0.84122417      -1.21954727
C       -0.85552340      -0.22399947      -0.32657716
O        1.25954004      -1.13905773      -0.96757953
C       -0.23924903       0.18325077       0.89463397
O       -0.27775084      -0.72891887       1.92577966
C        1.71704715      -0.06250973       0.34094895
O        2.29616216      -0.46768047       1.32512185
H       -1.60496396       0.45917137      -2.22355193
H       -2.38124118       1.20186238      -0.83645766
H       -0.76785417       1.71086016      -1.30130707
H       -1.49190904      -1.10437065      -0.24512993
H        1.57487779      -1.98138524      -0.61350593
H       -0.28456747       1.22913799       1.20346379
H        0.63476314      -0.79781299       2.25393521
H        1.84212297       0.88022831      -0.21022694
15
Frame=12 idx=009719 GeodesicLength=1.3496548320941562 rxn_smarts="[C:1]([C@@:2]([O:3][H:12])([C@@:4]([O:5][H:14])([C:6](=[O:7])[H:15])[H:13])[H:11])([H:8])([H:9])[H:10]>>[C:1](/[C:2](=[C:4](/[O:5][H:14])[H:13])[H:11])([H:8])([H:9])[H:10].[O:3]([C:6](=[O:7])[H:15])[H:12]"
C       -1.44082643       0.85305268      -1.21712692
C       -0.86050204      -0.22539486      -0.34492359
O        1.29316736      -1.17652990      -0.96306056
C       -0.24674268       0.17861907       0.88074164
O       -0.28018144      -0.74023018       1.90633155
C        1.74972848      -0.06615860       0.34931269
O        2.30971382      -0.44390685       1.35223625
H       -1.64587312       0.48145707      -2.22110892
H       -2.39158763       1.21884537      -0.81720209
H       -0.78383227       1.71948127      -1.30681261
H       -1.51656532      -1.09114739      -0.25299406
H        1.62074037      -2.00895866      -0.59664854
H       -0.28907474       1.22215614       1.19779416
H        0.62613298      -0.79010171       2.25207042
H        1.85570265       0.86881655      -0.21860942
15
Frame=13 idx=009719 GeodesicLength=1.4620262299708984 rxn_smarts="[C:1]([C@@:2]([O:3][H:12])([C@@:4]([O:5][H:14])([C:6](=[O:7])[H:15])[H:13])[H:11])([H:8])([H:9])[H:10]>>[C:1](/[C:2](=[C:4](/[O:5][H:14])[H:13])[H:11])([H:8])([H:9])[H:10].[O:3]([C:6](=[O:7])[H:15])[H:12]"
C       -1.46095199       0.86538274      -1.21444733
C       -0.86598297      -0.22642380      -0.36411469
O        1.32787713      -1.21552178      -0.95716393
C       -0.25425441       0.17394477       0.86594303
O       -0.28217997      -0.75173387       1.88575468
C        1.78334622      -0.06974686       0.35818335
O        2.32266138      -0.41887394       1.37968597
H       -1.68822434       0.50467062      -2.21784502
H       -2.40214292       1.23606146      -0.79713842
H       -0.80079470       1.72864863      -1.31238402
H       -1.54100928      -1.07732301      -0.26145774
H        1.66810352      -2.03722729      -0.57807226
H       -0.29345391       1.21496635       1.19154251
H        0.61722928      -0.78305874       2.24882888
H        1.86977697       0.85623475      -0.22731502
15
Frame=14 idx=009719 GeodesicLength=1.5743667876201481 rxn_smarts="[C:1]([C@@:2]([O:3][H:12])([C@@:4]([O:5][H:14])([C:6](=[O:7])[H:15])[H:13])[H:11])([H:8])([H:9])[H:10]>>[C:1](/[C:2](=[C:4](/[O:5][H:14])[H:13])[H:11])([H:8])([H:9])[H:10].[O:3]([C:6](=[O:7])[H:15])[H:12]"
C       -1.48188893       0.87824970      -1.21148747
C       -0.87202902      -0.22700775      -0.38418461
O        1.36370141      -1.25608654      -0.94975724
C       -0.26176475       0.16925267       0.85017467
O       -0.28372951      -0.76340962       1.86396838
C        1.81794952      -0.07327873       0.36760149
O        2.33492370      -0.39257686       1.40738932
H       -1.73204953       0.52885480      -2.21367953
H       -2.41293931       1.25348917      -0.77624535
H       -0.81885366       1.73843553      -1.31799054
H       -1.56516115      -1.06296476      -0.27060768
H        1.71699976      -2.06619095      -0.55766019
H       -0.29766741       1.20758055       1.18465496
H        0.60810527      -0.77671032       2.24413220
H        1.88440362       0.84236311      -0.23630840
15
Frame=15 idx=009719 GeodesicLength=1.686662020374969 rxn_smarts="[C:1]([C@@:2]([O:3][H:12])([C@@:4]([O:5][H:14])([C:6](=[O:7])[H:15])[H:13])[H:11])([H:8])([H:9])[H:10]>>[C:1](/[C:2](=[C:4](/[O:5][H:14])[H:13])[H:11])([H:8])([H:9])[H:10].[O:3]([C:6](=[O:7])[H:15])[H:12]"
C       -1.50369186       0.89168205      -1.20822782
C       -0.87869616      -0.22706535      -0.40516183
O        1.40066856      -1.29825630      -0.94072169
C       -0.26924882       0.16457897       0.83337426
O       -0.28480973      -0.77521963       1.84089777
C        1.85358528      -0.07676037       0.37761755
O        2.34642763      -0.36505119       1.43526503
H       -1.77736216       0.55403234      -2.20853960
H       -2.42402053       1.27108626      -0.75451134
H       -0.83812675       1.74891696      -1.32359681
H       -1.58895638      -1.04814135      -0.28050541
H        1.76744831      -2.09583396      -0.53533498
H       -0.30167326       1.20002283       1.17707299
H        0.59880988      -0.77107090       2.23789795
H        1.89964601       0.82707965      -0.24552607
15
Frame=16 idx=009719 GeodesicLength=1.7989060939982842 rxn_smarts="[C:1]([C@@:2]([O:3][H:12])([C@@:4]([O:5][H:14])([C:6](=[O:7])[H:15])[H:13])[H:11])([H:8])([H:9])[H:10]>>[C:1](/[C:2](=[C:4](/[O:5][H:14])[H:13])[H:11])([H:8])([H:9])[H:10].[O:3]([C:6](=[O:7])[H:15])[H:12]"
C       -1.52642331       0.90571334      -1.20464513
C       -0.88603977      -0.22651078      -0.42709173
O        1.43882281      -1.34207325      -0.92991824
C       -0.27667927       0.15995432       0.81546324
O       -0.28539436      -0.78713989       1.81644496
C        1.89030785      -0.08019345       0.38828812
O        2.35710375      -0.33633270       1.46321673
H       -1.82419571       0.58023570      -2.20234362
H       -2.43542807       1.28881344      -0.73191236
H       -0.85874058       1.76017485      -1.32916206
H       -1.61235399      -1.03291978      -0.29122515
H        1.81947800      -2.12614711      -0.51099121
H       -0.30543003       1.19231054       1.16872781
H        0.58939855      -0.76614115       2.23004720
H        1.91557411       0.81025592      -0.25489856
