14
Frame=0 idx=002328 GeodesicLength=0.0 rxn_smarts="[O:1]=[C:2]([C:3]([C:4]1([H:10])[C:5]([H:11])([H:12])[C:6]1([H:13])[H:14])([H:8])[H:9])[H:7]>>[O:1]([C:2]([C:3]([C:4]1([H:10])[C:5]([H:11])=[C:6]1[H:13])([H:8])[H:9])([H:7])[H:12])[H:14]"
O        0.83592306       1.69054167      -0.01430000
C        0.97460270       0.62637370       0.74590587
C        1.10026922      -0.65343092      -0.04139061
C       -0.33327939      -0.84561064      -0.56861922
C       -1.28255015      -0.18208969       0.37720316
C       -1.12753024       0.38928666      -0.85694083
H        1.45883526       0.79162153       1.70621603
H        1.83227335      -0.53851885      -0.84171239
H        1.38243345      -1.50022404       0.58827896
H       -0.57400531      -1.78759786      -1.04903712
H       -2.10540675      -0.45844133       1.01972514
H       -0.28228792       0.35757808       1.16672638
H       -1.81134561       0.68855959      -1.63295338
H       -0.06793163       1.42195207      -0.59910195
14
Frame=1 idx=002328 GeodesicLength=0.10664649986872457 rxn_smarts="[O:1]=[C:2]([C:3]([C:4]1([H:10])[C:5]([H:11])([H:12])[C:6]1([H:13])[H:14])([H:8])[H:9])[H:7]>>[O:1]([C:2]([C:3]([C:4]1([H:10])[C:5]([H:11])=[C:6]1[H:13])([H:8])[H:9])([H:7])[H:12])[H:14]"
O        0.84677893       1.69386345      -0.01912232
C        0.98914484       0.63344531       0.74501650
C        1.09650313      -0.65339979      -0.03524542
C       -0.33397537      -0.84061086      -0.56865792
C       -1.29233634      -0.18869696       0.37737796
C       -1.13504701       0.39095530      -0.85423244
H        1.50214882       0.79685079       1.69113249
H        1.83628954      -0.55918339      -0.83096762
H        1.36664755      -1.49273991       0.60997709
H       -0.56534149      -1.77447155      -1.06873651
H       -2.11948032      -0.48452309       1.00528511
H       -0.28911101       0.35678991       1.18131602
H       -1.81755346       0.68623910      -1.63298171
H       -0.08466782       1.43548168      -0.60016124
14
Frame=2 idx=002328 GeodesicLength=0.21323074967289513 rxn_smarts="[O:1]=[C:2]([C:3]([C:4]1([H:10])[C:5]([H:11])([H:12])[C:6]1([H:13])[H:14])([H:8])[H:9])[H:7]>>[O:1]([C:2]([C:3]([C:4]1([H:10])[C:5]([H:11])=[C:6]1[H:13])([H:8])[H:9])([H:7])[H:12])[H:14]"
O        0.85763759       1.69715025      -0.02398989
C        1.00405488       0.64056751       0.74409708
C        1.09264258      -0.65324842      -0.02879636
C       -0.33466618      -0.83549642      -0.56857322
C       -1.30241870      -0.19559682       0.37743410
C       -1.14261871       0.39265888      -0.85140500
H        1.54655767       0.80184016       1.67456540
H        1.84006253      -0.58030824      -0.81948854
H        1.35057805      -1.48475493       0.63187784
H       -0.55630487      -1.76078376      -1.08826850
H       -2.13359939      -0.51096011       0.99005467
H       -0.29640905       0.35574888       1.19628628
H       -1.82360320       0.68396952      -1.63304498
H       -0.10191320       1.44921351      -0.60074888
14
Frame=3 idx=002328 GeodesicLength=0.31977220016121505 rxn_smarts="[O:1]=[C:2]([C:3]([C:4]1([H:10])[C:5]([H:11])([H:12])[C:6]1([H:13])[H:14])([H:8])[H:9])[H:7]>>[O:1]([C:2]([C:3]([C:4]1([H:10])[C:5]([H:11])=[C:6]1[H:13])([H:8])[H:9])([H:7])[H:12])[H:14]"
O        0.86850331       1.70040981      -0.02888164
C        1.01936121       0.64773940       0.74314639
C        1.08868693      -0.65296215      -0.02203295
C       -0.33534542      -0.83026277      -0.56835554
C       -1.31280699      -0.20280802       0.37735467
C       -1.15024251       0.39439646      -0.84845497
H        1.59207346       0.80655077       1.65639810
H        1.84356496      -0.60189789      -0.80723965
H        1.33422610      -1.47623348       0.65399727
H       -0.54687699      -1.74651831      -1.10760294
H       -2.14775737      -0.53774762       0.97400312
H       -0.30422218       0.35443021       1.21165456
H       -1.82947648       0.68175718      -1.63314797
H       -0.11968804       1.46314641      -0.60083846
14
Frame=4 idx=002328 GeodesicLength=0.42627378135681604 rxn_smarts="[O:1]=[C:2]([C:3]([C:4]1([H:10])[C:5]([H:11])([H:12])[C:6]1([H:13])[H:14])([H:8])[H:9])[H:7]>>[O:1]([C:2]([C:3]([C:4]1([H:10])[C:5]([H:11])=[C:6]1[H:13])([H:8])[H:9])([H:7])[H:12])[H:14]"
O        0.87937802       1.70364855      -0.03377664
C        1.03509450       0.65496120       0.74216352
C        1.08463353      -0.65252536      -0.01493632
C       -0.33600648      -0.82490323      -0.56799075
C       -1.32351231      -0.21034886       0.37712290
C       -1.15791448       0.39616862      -0.84537683
H        1.63870910       0.81093454       1.63647440
H        1.84676764      -0.62395886      -0.79417454
H        1.31758923      -1.46713693       0.67636162
H       -0.53703222      -1.73164835      -1.12671280
H       -2.16194624      -0.56489155       0.95709226
H       -0.31259465       0.35281062       1.22744199
H       -1.83515138       0.67960986      -1.63329552
H       -0.13801425       1.47727977      -0.60039329
14
Frame=5 idx=002328 GeodesicLength=0.5327422706222499 rxn_smarts="[O:1]=[C:2]([C:3]([C:4]1([H:10])[C:5]([H:11])([H:12])[C:6]1([H:13])[H:14])([H:8])[H:9])[H:7]>>[O:1]([C:2]([C:3]([C:4]1([H:10])[C:5]([H:11])=[C:6]1[H:13])([H:8])[H:9])([H:7])[H:12])[H:14]"
O        0.89027335       1.70687646      -0.03865874
C        1.05129722       0.66223371       0.74113890
C        1.08048849      -0.65192085      -0.00750054
C       -0.33663894      -0.81941221      -0.56746926
C       -1.33453739      -0.21823893       0.37672188
C       -1.16562854       0.39797632      -0.84216396
H        1.68641717       0.81494388       1.61468233
H        1.84964254      -0.64649855      -0.78026231
H        1.30067501      -1.45742380       0.69898539
H       -0.52675797      -1.71616641      -1.14556417
H       -2.17614866      -0.59237953       0.93929794
H       -0.32156294       0.35085951       1.24366523
H       -1.84060769       0.67753826      -1.63348664
H       -0.15691165       1.49161215      -0.59938605
14
Frame=6 idx=002328 GeodesicLength=0.6392078363254379 rxn_smarts="[O:1]=[C:2]([C:3]([C:4]1([H:10])[C:5]([H:11])([H:12])[C:6]1([H:13])[H:14])([H:8])[H:9])[H:7]>>[O:1]([C:2]([C:3]([C:4]1([H:10])[C:5]([H:11])=[C:6]1[H:13])([H:8])[H:9])([H:7])[H:12])[H:14]"
O        0.90120332       1.71010316      -0.04351713
C        1.06802383       0.66955895       0.74005564
C        1.07625239      -0.65112975       0.00029364
C       -0.33723468      -0.81378013      -0.56677366
C       -1.34588940      -0.22649675       0.37613302
C       -1.17337967       0.39982282      -0.83880693
H        1.73516371       0.81850880       1.59086198
H        1.85215391      -0.66953608      -0.76545382
H        1.28349378      -1.44703528       0.72190091
H       -0.51602961      -1.70004138      -1.16412132
H       -2.19034753      -0.62022551       0.92057513
H       -0.33117959       0.34854930       1.26034826
H       -1.84582217       0.67555507      -1.63372082
H       -0.17640829       1.50614678      -0.59777488
14
Frame=7 idx=002328 GeodesicLength=0.7456596683734473 rxn_smarts="[O:1]=[C:2]([C:3]([C:4]1([H:10])[C:5]([H:11])([H:12])[C:6]1([H:13])[H:14])([H:8])[H:9])[H:7]>>[O:1]([C:2]([C:3]([C:4]1([H:10])[C:5]([H:11])=[C:6]1[H:13])([H:8])[H:9])([H:7])[H:12])[H:14]"
O        0.91218708       1.71333787      -0.04834636
C        1.08533463       0.67693810       0.73888741
C        1.07193361      -0.65013504       0.00845337
C       -0.33778326      -0.80799978      -0.56589059
C       -1.35756434      -0.23514337       0.37533881
C       -1.18116086       0.40171011      -0.83529499
H        1.78483558       0.82156261       1.56490124
H        1.85427018      -0.69308445      -0.74971261
H        1.26606390      -1.43592196       0.74512617
H       -0.50483349      -1.68325659      -1.18235268
H       -2.20450967      -0.64841901       0.90090298
H       -0.34147401       0.34585579       1.27750701
H       -1.85077434       0.67367397      -1.63399066
H       -0.19652501       1.52088176      -0.59552911
14
Frame=8 idx=002328 GeodesicLength=0.8521061623418881 rxn_smarts="[O:1]=[C:2]([C:3]([C:4]1([H:10])[C:5]([H:11])([H:12])[C:6]1([H:13])[H:14])([H:8])[H:9])[H:7]>>[O:1]([C:2]([C:3]([C:4]1([H:10])[C:5]([H:11])=[C:6]1[H:13])([H:8])[H:9])([H:7])[H:12])[H:14]"
O        0.92325066       1.71659228      -0.05315521
C        1.10330029       0.68437721       0.73759293
C        1.06753866      -0.64891462       0.01699177
C       -0.33827463      -0.80205998      -0.56480504
C       -1.36955620      -0.24420245       0.37432339
C       -1.18896321       0.40364379      -0.83161547
H        1.83532535       0.82402037       1.53665597
H        1.85595397      -0.71716537      -0.73298213
H        1.24839676      -1.42400736       0.76869886
H       -0.49315654      -1.66578114      -1.20022582
H       -2.21859781      -0.67697347       0.88024024
H       -0.35248806       0.34274418       1.29516905
H       -1.85543924       0.67191607      -1.63428966
H       -0.21729001       1.53581049      -0.59259889
14
Frame=9 idx=002328 GeodesicLength=0.9587247876864659 rxn_smarts="[O:1]=[C:2]([C:3]([C:4]1([H:10])[C:5]([H:11])([H:12])[C:6]1([H:13])[H:14])([H:8])[H:9])[H:7]>>[O:1]([C:2]([C:3]([C:4]1([H:10])[C:5]([H:11])=[C:6]1[H:13])([H:8])[H:9])([H:7])[H:12])[H:14]"
O        0.93443765       1.71990984      -0.05801767
C        1.12211187       0.69189161       0.73596284
C        1.06309574      -0.64746198       0.02589852
C       -0.33869150      -0.79594771      -0.56350935
C       -1.38186275      -0.25369379       0.37303554
C       -1.19678093       0.40563960      -0.82773688
H        1.88646688       0.82584669       1.50620605
H        1.85712844      -0.74187857      -0.71529898
H        1.23054080      -1.41114457       0.79271766
H       -0.48101219      -1.64763112      -1.21770878
H       -2.23258012      -0.70591395       0.85854358
H       -0.36433820       0.33910661       1.31336191
H       -1.85979043       0.67032814      -1.63457369
H       -0.23872527       1.55094920      -0.58888075
14
Frame=10 idx=002328 GeodesicLength=1.065316297606651 rxn_smarts="[O:1]=[C:2]([C:3]([C:4]1([H:10])[C:5]([H:11])([H:12])[C:6]1([H:13])[H:14])([H:8])[H:9])[H:7]>>[O:1]([C:2]([C:3]([C:4]1([H:10])[C:5]([H:11])=[C:6]1[H:13])([H:8])[H:9])([H:7])[H:12])[H:14]"
O        0.94575443       1.72327418      -0.06288965
C        1.14173741       0.69946132       0.73406837
C        1.05859617      -0.64574297       0.03520148
C       -0.33902835      -0.78965854      -0.56198080
C       -1.39447542      -0.26364514       0.37148158
C       -1.20460497       0.40768972      -0.82365910
H        1.93819069       0.82693136       1.47327473
H        1.85778099      -0.76718829      -0.69651552
H        1.21248521      -1.39731250       0.81714712
H       -0.46835148      -1.62873658      -1.23477703
H       -2.24641479      -0.73522775       0.83577971
H       -0.37699691       0.33497170       1.33210114
H       -1.86380643       0.66890829      -1.63485913
H       -0.26086654       1.56627520      -0.58437290
14
Frame=11 idx=002328 GeodesicLength=1.171866126619794 rxn_smarts="[O:1]=[C:2]([C:3]([C:4]1([H:10])[C:5]([H:11])([H:12])[C:6]1([H:13])[H:14])([H:8])[H:9])[H:7]>>[O:1]([C:2]([C:3]([C:4]1([H:10])[C:5]([H:11])=[C:6]1[H:13])([H:8])[H:9])([H:7])[H:12])[H:14]"
O        0.95723911       1.72669391      -0.06779008
C        1.16226295       0.70707316       0.73183176
C        1.05405357      -0.64374916       0.04490287
C       -0.33927165      -0.78318754      -0.56020733
C       -1.40738345      -0.27407765       0.36963738
C       -1.21242850       0.40979583      -0.81936320
H        1.99035889       0.82724939       1.43781418
H        1.85786073      -0.79312452      -0.67658960
H        1.19424664      -1.38244508       0.84200423
H       -0.45515814      -1.60907726      -1.25140297
H       -2.26006416      -0.76491165       0.81191389
H       -0.39050697       0.33029405       1.35139826
H       -1.86746610       0.66767983      -1.63512248
H       -0.28374291       1.58178670      -0.57902693
14
Frame=12 idx=002328 GeodesicLength=1.2783657481323945 rxn_smarts="[O:1]=[C:2]([C:3]([C:4]1([H:10])[C:5]([H:11])([H:12])[C:6]1([H:13])[H:14])([H:8])[H:9])[H:7]>>[O:1]([C:2]([C:3]([C:4]1([H:10])[C:5]([H:11])=[C:6]1[H:13])([H:8])[H:9])([H:7])[H:12])[H:14]"
O        0.96892281       1.73017810      -0.07274856
C        1.18378267       0.71471996       0.72915630
C        1.04947572      -0.64146030       0.05502029
C       -0.33940948      -0.77652398      -0.55816937
C       -1.42058114      -0.28502168       0.36747380
C       -1.22024259       0.41196440      -0.81482668
H        2.04286766       0.82674365       1.39970958
H        1.85730913      -0.81972322      -0.65544135
H        1.17582971      -1.36644341       0.86733458
H       -0.44140555      -1.58860750      -1.26756224
H       -2.27349035      -0.79498913       0.78688276
H       -0.40492932       0.32501655       1.37128275
H       -1.87074029       0.66667341      -1.63534404
H       -0.30738896       1.59747313      -0.57276781
14
Frame=13 idx=002328 GeodesicLength=1.3847974270140242 rxn_smarts="[O:1]=[C:2]([C:3]([C:4]1([H:10])[C:5]([H:11])([H:12])[C:6]1([H:13])[H:14])([H:8])[H:9])[H:7]>>[O:1]([C:2]([C:3]([C:4]1([H:10])[C:5]([H:11])=[C:6]1[H:13])([H:8])[H:9])([H:7])[H:12])[H:14]"
O        0.98084604       1.73373871      -0.07778698
C        1.20639339       0.72238598       0.72593361
C        1.04487534      -0.63886546       0.06556101
C       -0.33943093      -0.76966244      -0.55585605
C       -1.43405250      -0.29650637       0.36496066
C       -1.22804004       0.41419829      -0.81003062
H        2.09557780       0.82537557       1.35892055
H        1.85606886      -0.84701528      -0.63300590
H        1.15725852      -1.34921511       0.89316257
H       -0.42708482      -1.56730796      -1.28323412
H       -2.28664874      -0.82545999       0.76064289
H       -0.42031419       0.31908908       1.39177043
H       -1.87360723       0.66591949      -1.63549929
H       -0.33184148       1.61332548      -0.56553877
14
Frame=14 idx=002328 GeodesicLength=1.4911704777964316 rxn_smarts="[O:1]=[C:2]([C:3]([C:4]1([H:10])[C:5]([H:11])([H:12])[C:6]1([H:13])[H:14])([H:8])[H:9])[H:7]>>[O:1]([C:2]([C:3]([C:4]1([H:10])[C:5]([H:11])=[C:6]1[H:13])([H:8])[H:9])([H:7])[H:12])[H:14]"
O        0.99305044       1.73738761      -0.08294828
C        1.23020250       0.73006212       0.72203786
C        1.04025934      -0.63593504       0.07654962
C       -0.33932050      -0.76258873      -0.55324664
C       -1.44779075      -0.30857147       0.36206000
C       -1.23581577       0.41650145      -0.80494740
H        2.14839736       0.82305240       1.31530397
H        1.85406027      -0.87504492      -0.60915936
H        1.13854119      -1.33061646       0.91954740
H       -0.41216007      -1.54512029      -1.29838937
H       -2.29948816      -0.85636301       0.73310333
H       -0.43674909       0.31244226       1.41289239
H       -1.87603398       0.66545817      -1.63556337
H       -0.35715278       1.62933591      -0.55724015
14
Frame=15 idx=002328 GeodesicLength=1.5974910112253966 rxn_smarts="[O:1]=[C:2]([C:3]([C:4]1([H:10])[C:5]([H:11])([H:12])[C:6]1([H:13])[H:14])([H:8])[H:9])[H:7]>>[O:1]([C:2]([C:3]([C:4]1([H:10])[C:5]([H:11])=[C:6]1[H:13])([H:8])[H:9])([H:7])[H:12])[H:14]"
O        1.00558146       1.74114095      -0.08826621
C        1.25531292       0.73773337       0.71733775
C        1.03563875      -0.63263861       0.08801395
C       -0.33906100      -0.75528998      -0.55032681
C       -1.46178604      -0.32126381       0.35872390
C       -1.24356302       0.41887665      -0.79955311
H        2.20123691       0.81966977       1.26871255
H        1.85120874      -0.90384546      -0.58376897
H        1.11969721      -1.31048702       0.94655247
H       -0.39660000      -1.52200097      -1.31300719
H       -2.31196273      -0.88771780       0.70418446
H       -0.45433205       0.30499612       1.43467562
H       -1.87798590       0.66533068      -1.63551278
H       -0.38338525       1.64549612      -0.54776562
14
Frame=16 idx=002328 GeodesicLength=1.703762074641726 rxn_smarts="[O:1]=[C:2]([C:3]([C:4]1([H:10])[C:5]([H:11])([H:12])[C:6]1([H:13])[H:14])([H:8])[H:9])[H:7]>>[O:1]([C:2]([C:3]([C:4]1([H:10])[C:5]([H:11])=[C:6]1[H:13])([H:8])[H:9])([H:7])[H:12])[H:14]"
O        1.01848149       1.74501293      -0.09377683
C        1.28183750       0.74537805       0.71168429
C        1.03102112      -0.62893749       0.09999287
C       -0.33863533      -0.74775258      -0.54707644
C       -1.47603093      -0.33463664       0.35489950
C       -1.25127629       0.42132900      -0.79381596
H        2.25402673       0.81509640       1.21893790
H        1.84741608      -0.93345803      -0.55665604
H        1.10073829      -1.28862153       0.97425783
H       -0.38035645      -1.49788667      -1.32706649
H       -2.32401032      -0.91957032       0.67376766
H       -0.47318348       0.29666320       1.45715254
H       -1.87942489       0.66558740      -1.63531679
H       -0.41060351       1.66179629      -0.53698406
