12
Frame=0 idx=007987 GeodesicLength=0.0 rxn_smarts="[N:1]([c:2]1[n:3][c:4]([H:10])[c:5]([H:11])[c:6]([H:12])[n:7]1)([H:8])[H:9]>>[N:1]([C:2]1=[N:7][N:3]1[C:4]1([H:10])[C:5]([H:11])=[C:6]1[H:12])([H:8])[H:9]"
N        2.47194701      -0.33613901       0.04361011
C        1.14880221       0.00566258       0.04552553
N        0.23037456      -0.95889625       0.21668336
C       -1.09623900      -0.61552636      -0.03570163
C       -1.91795600       0.41004121       0.68344613
C       -1.52788116       0.74643216      -0.50972404
N        0.68558621       1.20116743       0.10174877
H        3.13795791       0.33889772      -0.28252538
H        2.65165857      -1.30400935      -0.16365459
H       -1.64452295      -1.51615212      -0.32346418
H       -2.54244261       0.57712682       1.54418566
H       -1.59728472       1.45139513      -1.32012974
12
Frame=1 idx=007987 GeodesicLength=0.07506799786588224 rxn_smarts="[N:1]([c:2]1[n:3][c:4]([H:10])[c:5]([H:11])[c:6]([H:12])[n:7]1)([H:8])[H:9]>>[N:1]([C:2]1=[N:7][N:3]1[C:4]1([H:10])[C:5]([H:11])=[C:6]1[H:12])([H:8])[H:9]"
N        2.47172239      -0.33704079       0.01657289
C        1.15042866       0.00245958       0.05329193
N        0.23057956      -0.95184540       0.26941034
C       -1.09344732      -0.62323974      -0.01577649
C       -1.92367534       0.40790878       0.67464262
C       -1.49556514       0.76273515      -0.50223302
N        0.67825536       1.19397698       0.12098262
H        3.12998131       0.34154907      -0.31755146
H        2.65124645      -1.30727017      -0.17800285
H       -1.63138349      -1.52578693      -0.31483771
H       -2.59091563       0.56752143       1.50404030
H       -1.57722681       1.46903204      -1.31053919
12
Frame=2 idx=007987 GeodesicLength=0.1500574276119731 rxn_smarts="[N:1]([c:2]1[n:3][c:4]([H:10])[c:5]([H:11])[c:6]([H:12])[n:7]1)([H:8])[H:9]>>[N:1]([C:2]1=[N:7][N:3]1[C:4]1([H:10])[C:5]([H:11])=[C:6]1[H:12])([H:8])[H:9]"
N        2.47018256      -0.33832437      -0.00919650
C        1.15162985      -0.00044872       0.05891293
N        0.23089014      -0.94355176       0.31753008
C       -1.09073923      -0.63083434       0.00305173
C       -1.92821719       0.40532251       0.66603955
C       -1.46509174       0.77897248      -0.49394467
N        0.67121421       1.18731485       0.13687728
H        3.12203743       0.34359955      -0.34881878
H        2.65045908      -1.31084587      -0.18966991
H       -1.61806574      -1.53601616      -0.30500947
H       -2.63466433       0.55759583       1.46367152
H       -1.55963506       1.48721601      -1.29944377
12
Frame=3 idx=007987 GeodesicLength=0.22491357268772452 rxn_smarts="[N:1]([c:2]1[n:3][c:4]([H:10])[c:5]([H:11])[c:6]([H:12])[n:7]1)([H:8])[H:9]>>[N:1]([C:2]1=[N:7][N:3]1[C:4]1([H:10])[C:5]([H:11])=[C:6]1[H:12])([H:8])[H:9]"
N        2.46744356      -0.33997671      -0.03402918
C        1.15234390      -0.00316105       0.06301528
N        0.23123011      -0.93431858       0.36173706
C       -1.08816815      -0.63847720       0.02091277
C       -1.93191689       0.40222665       0.65730031
C       -1.43630451       0.79498619      -0.48519109
N        0.66427211       1.18100738       0.15029687
H        3.11420490       0.34540580      -0.37616563
H        2.64929577      -1.31448940      -0.19992460
H       -1.60472035      -1.54692321      -0.29405780
H       -2.67366740       0.54809628       1.42337462
H       -1.54401305       1.50562385      -1.28726861
12
Frame=4 idx=007987 GeodesicLength=0.29964906925187995 rxn_smarts="[N:1]([c:2]1[n:3][c:4]([H:10])[c:5]([H:11])[c:6]([H:12])[n:7]1)([H:8])[H:9]>>[N:1]([C:2]1=[N:7][N:3]1[C:4]1([H:10])[C:5]([H:11])=[C:6]1[H:12])([H:8])[H:9]"
N        2.46378940      -0.34191963      -0.05806200
C        1.15256327      -0.00580365       0.06458185
N        0.23160601      -0.92423287       0.40195293
C       -1.08582305      -0.64599812       0.03776392
C       -1.93468727       0.39882827       0.64873441
C       -1.40930487       0.81113790      -0.47586017
N        0.65754800       1.17497342       0.16087299
H        3.10683573       0.34674962      -0.40029618
H        2.64838432      -1.31830667      -0.20718277
H       -1.59172182      -1.55819716      -0.28204525
H       -2.70871435       0.53809937       1.38335557
H       -1.53047537       1.52466952      -1.27381527
12
Frame=5 idx=007987 GeodesicLength=0.37436306533650765 rxn_smarts="[N:1]([c:2]1[n:3][c:4]([H:10])[c:5]([H:11])[c:6]([H:12])[n:7]1)([H:8])[H:9]>>[N:1]([C:2]1=[N:7][N:3]1[C:4]1([H:10])[C:5]([H:11])=[C:6]1[H:12])([H:8])[H:9]"
N        2.45915943      -0.34421711      -0.08214087
C        1.15241718      -0.00826258       0.06598680
N        0.23202215      -0.91344175       0.44002066
C       -1.08348877      -0.65363555       0.05417192
C       -1.93712759       0.39506781       0.63967844
C       -1.38344206       0.82714072      -0.46630084
N        0.65091422       1.16929241       0.17060818
H        3.09948419       0.34800700      -0.42205866
H        2.64704900      -1.32210455      -0.21434449
H       -1.57856479      -1.57017993      -0.26870225
H       -2.74083198       0.52841848       1.34278503
H       -1.51759098       1.54391506      -1.25970393
12
Frame=6 idx=007987 GeodesicLength=0.4490870226968471 rxn_smarts="[N:1]([c:2]1[n:3][c:4]([H:10])[c:5]([H:11])[c:6]([H:12])[n:7]1)([H:8])[H:9]>>[N:1]([C:2]1=[N:7][N:3]1[C:4]1([H:10])[C:5]([H:11])=[C:6]1[H:12])([H:8])[H:9]"
N        2.45355737      -0.34679410      -0.10668119
C        1.15197961      -0.01052249       0.06732278
N        0.23250079      -0.90196159       0.47627527
C       -1.08108836      -0.66128434       0.07022311
C       -1.93921225       0.39100388       0.63019983
C       -1.35851838       0.84323517      -0.45632108
N        0.64448577       1.16397342       0.17992399
H        3.09185804       0.34890243      -0.44306635
H        2.64553776      -1.32593155      -0.22019448
H       -1.56521299      -1.58265808      -0.25416680
H       -2.77084201       0.51834575       1.30115396
H       -1.50504535       1.56369149      -1.24466904
12
Frame=7 idx=007987 GeodesicLength=0.523873206086519 rxn_smarts="[N:1]([c:2]1[n:3][c:4]([H:10])[c:5]([H:11])[c:6]([H:12])[n:7]1)([H:8])[H:9]>>[N:1]([C:2]1=[N:7][N:3]1[C:4]1([H:10])[C:5]([H:11])=[C:6]1[H:12])([H:8])[H:9]"
N        2.44683945      -0.34968057      -0.13222041
C        1.15132773      -0.01253565       0.06913264
N        0.23304625      -0.88984541       0.51128421
C       -1.07853663      -0.66898300       0.08613063
C       -1.94104189       0.38663807       0.62015795
C       -1.33429154       0.85943771      -0.44590167
N        0.63828000       1.15905339       0.18939823
H        3.08376012       0.34943807      -0.46385817
H        2.64378361      -1.32972244      -0.22502190
H       -1.55152741      -1.59565741      -0.23834557
H       -2.79922702       0.50782935       1.25797348
H       -1.49241267       1.58402787      -1.22872942
12
Frame=8 idx=007987 GeodesicLength=0.5986521656918438 rxn_smarts="[N:1]([c:2]1[n:3][c:4]([H:10])[c:5]([H:11])[c:6]([H:12])[n:7]1)([H:8])[H:9]>>[N:1]([C:2]1=[N:7][N:3]1[C:4]1([H:10])[C:5]([H:11])=[C:6]1[H:12])([H:8])[H:9]"
N        2.43889783      -0.35300822      -0.15892490
C        1.15036299      -0.01438359       0.07063441
N        0.23365890      -0.87714272       0.54478418
C       -1.07595660      -0.67681967       0.10196431
C       -1.94252946       0.38202337       0.60952679
C       -1.31098810       0.87555455      -0.43532089
N        0.63218291       1.15443614       0.19818053
H        3.07612133       0.35003435      -0.48135460
H        2.64155855      -1.33337537      -0.23046232
H       -1.53782981      -1.60928633      -0.22074618
H       -2.82525398       0.49746896       1.21402167
H       -1.48022458       1.60449853      -1.21230300
12
Frame=9 idx=007987 GeodesicLength=0.673484399232654 rxn_smarts="[N:1]([c:2]1[n:3][c:4]([H:10])[c:5]([H:11])[c:6]([H:12])[n:7]1)([H:8])[H:9]>>[N:1]([C:2]1=[N:7][N:3]1[C:4]1([H:10])[C:5]([H:11])=[C:6]1[H:12])([H:8])[H:9]"
N        2.42956710      -0.35677498      -0.18755401
C        1.14911194      -0.01608207       0.07173078
N        0.23436819      -0.86391741       0.57681586
C       -1.07332202      -0.68473837       0.11775874
C       -1.94365352       0.37717981       0.59840795
C       -1.28852277       0.89179986      -0.42440441
N        0.62626257       1.15012853       0.20643786
H        3.06883519       0.35041641      -0.49641265
H        2.63926461      -1.33684193      -0.23518039
H       -1.52413576      -1.62340128      -0.20148611
H       -2.84938427       0.48678092       1.16900202
H       -1.46839124       1.62545052      -1.19511565
12
Frame=10 idx=007987 GeodesicLength=0.7483864458518399 rxn_smarts="[N:1]([c:2]1[n:3][c:4]([H:10])[c:5]([H:11])[c:6]([H:12])[n:7]1)([H:8])[H:9]>>[N:1]([C:2]1=[N:7][N:3]1[C:4]1([H:10])[C:5]([H:11])=[C:6]1[H:12])([H:8])[H:9]"
N        2.41851817      -0.36106843      -0.21909208
C        1.14762814      -0.01761764       0.07256251
N        0.23521284      -0.85021616       0.60759078
C       -1.07060788      -0.69275971       0.13366013
C       -1.94445675       0.37210577       0.58676190
C       -1.26679176       0.90822657      -0.41308481
N        0.62056078       1.14615343       0.21440078
H        3.06197685       0.35043893      -0.50902574
H        2.63709498      -1.33992830      -0.23885480
H       -1.51042783      -1.63800545      -0.18043846
H       -2.87192737       0.47566147       1.12256251
H       -1.45678017       1.64700952      -1.17704272
12
Frame=11 idx=007987 GeodesicLength=0.8234179886018408 rxn_smarts="[N:1]([c:2]1[n:3][c:4]([H:10])[c:5]([H:11])[c:6]([H:12])[n:7]1)([H:8])[H:9]>>[N:1]([C:2]1=[N:7][N:3]1[C:4]1([H:10])[C:5]([H:11])=[C:6]1[H:12])([H:8])[H:9]"
N        2.40539145      -0.36579919      -0.25363844
C        1.14598162      -0.01890419       0.07374003
N        0.23621584      -0.83604998       0.63747950
C       -1.06765467      -0.70090479       0.14971085
C       -1.94490373       0.36666770       0.57430830
C       -1.24551955       0.92481464      -0.40132607
N        0.61507460       1.14250450       0.22267427
H        3.05477962       0.34947168      -0.52023081
H        2.63496249      -1.34204708      -0.24135187
H       -1.49644549      -1.65305835      -0.15766127
H       -2.89287897       0.46402134       1.07420880
H       -1.44500321       1.66928372      -1.15791330
12
Frame=12 idx=007987 GeodesicLength=0.8985292020967922 rxn_smarts="[N:1]([c:2]1[n:3][c:4]([H:10])[c:5]([H:11])[c:6]([H:12])[n:7]1)([H:8])[H:9]>>[N:1]([C:2]1=[N:7][N:3]1[C:4]1([H:10])[C:5]([H:11])=[C:6]1[H:12])([H:8])[H:9]"
N        2.39129484      -0.37048873      -0.28668544
C        1.14433185      -0.01981612       0.07603976
N        0.23731681      -0.82132231       0.66718543
C       -1.06434987      -0.70921405       0.16608208
C       -1.94511386       0.36084781       0.56066421
C       -1.22452507       0.94154673      -0.38925820
N        0.60977212       1.13934048       0.23166832
H        3.04654770       0.34712528      -0.53208505
H        2.63180872      -1.34322745      -0.24598733
H       -1.48195254      -1.66864631      -0.13299281
H       -2.91239927       0.45180024       1.02348919
H       -1.43273144       1.69205443      -1.13812016
12
Frame=13 idx=007987 GeodesicLength=0.9737245550617806 rxn_smarts="[N:1]([c:2]1[n:3][c:4]([H:10])[c:5]([H:11])[c:6]([H:12])[n:7]1)([H:8])[H:9]>>[N:1]([C:2]1=[N:7][N:3]1[C:4]1([H:10])[C:5]([H:11])=[C:6]1[H:12])([H:8])[H:9]"
N        2.37715278      -0.37490134      -0.31457848
C        1.14279302      -0.02046632       0.08071831
N        0.23817280      -0.80641745       0.69707433
C       -1.06065686      -0.71773052       0.18233011
C       -1.94514926       0.35438820       0.54529700
C       -1.20334698       0.95872456      -0.37647037
N        0.60472070       1.13647499       0.24293071
H        3.03477570       0.34354663      -0.55164465
H        2.62808601      -1.34369834      -0.25067215
H       -1.46682468      -1.68456091      -0.10760658
H       -2.93060447       0.43860736       0.96955860
H       -1.41911876       1.71603315      -1.11693683
12
Frame=14 idx=007987 GeodesicLength=1.0489779627716096 rxn_smarts="[N:1]([c:2]1[n:3][c:4]([H:10])[c:5]([H:11])[c:6]([H:12])[n:7]1)([H:8])[H:9]>>[N:1]([C:2]1=[N:7][N:3]1[C:4]1([H:10])[C:5]([H:11])=[C:6]1[H:12])([H:8])[H:9]"
N        2.36291113      -0.37928015      -0.33838690
C        1.14126757      -0.02104660       0.08708050
N        0.23868521      -0.79156738       0.72670576
C       -1.05675720      -0.72651349       0.19832251
C       -1.94489574       0.34731278       0.52821278
C       -1.18215039       0.97641343      -0.36286902
N        0.59990968       1.13374742       0.25598419
H        3.01966760       0.33934899      -0.57807816
H        2.62446796      -1.34366266      -0.25415489
H       -1.45145873      -1.70077639      -0.08152899
H       -2.94709635       0.42467348       0.91284871
H       -1.40455075       1.74135056      -1.09413650
12
Frame=15 idx=007987 GeodesicLength=1.124229802477676 rxn_smarts="[N:1]([c:2]1[n:3][c:4]([H:10])[c:5]([H:11])[c:6]([H:12])[n:7]1)([H:8])[H:9]>>[N:1]([C:2]1=[N:7][N:3]1[C:4]1([H:10])[C:5]([H:11])=[C:6]1[H:12])([H:8])[H:9]"
N        2.34833441      -0.38370136      -0.36011036
C        1.13956818      -0.02155039       0.09356674
N        0.23909755      -0.77647356       0.75563020
C       -1.05275182      -0.73549421       0.21447164
C       -1.94410780       0.33983391       0.50974971
C       -1.16143136       0.99444219      -0.34870405
N        0.59526941       1.13122381       0.26911171
H        3.00338235       0.33486998      -0.60536978
H        2.62032409      -1.34347243      -0.25855348
H       -1.43618730      -1.71726129      -0.05371679
H       -2.96138595       0.41024368       0.85419100
H       -1.39011175       1.76733968      -1.07026653
12
Frame=16 idx=007987 GeodesicLength=1.1995393148113456 rxn_smarts="[N:1]([c:2]1[n:3][c:4]([H:10])[c:5]([H:11])[c:6]([H:12])[n:7]1)([H:8])[H:9]>>[N:1]([C:2]1=[N:7][N:3]1[C:4]1([H:10])[C:5]([H:11])=[C:6]1[H:12])([H:8])[H:9]"
N        2.33325433      -0.38817630      -0.38028458
C        1.13770586      -0.02196775       0.10035774
N        0.23938259      -0.76118655       0.78396376
C       -1.04860829      -0.74472438       0.23079369
C       -1.94271396       0.33184986       0.48962170
C       -1.14109006       1.01280444      -0.33392509
N        0.59078605       1.12889089       0.28253433
H        2.98566409       0.33016299      -0.63384094
H        2.61573116      -1.34312397      -0.26347960
H       -1.42101679      -1.73404747      -0.02395631
H       -2.97340891       0.39532082       0.79324075
H       -1.37568606       1.79419741      -1.04502546
