16
Frame=0 idx=004284 GeodesicLength=0.0 rxn_smarts="[C:1]([C@@:2]1([H:10])[C:3]([H:11])([H:12])[O:4][C@:5]1([C:6]([H:14])([H:15])[H:16])[H:13])([H:7])([H:8])[H:9]>>[C:1]([C@@:2]([C:3][H:11])([C@@:5]([O:4][H:12])([C:6]([H:14])([H:15])[H:16])[H:13])[H:10])([H:7])([H:8])[H:9]"
C       -1.45843913       0.64354915      -0.44853545
C       -0.70836445      -0.16479840       0.60130737
C       -0.75939242      -1.67314173       0.42674888
O        0.97813500      -1.44610638      -0.21019998
C        0.82227989      -0.16478953       0.48018938
C        1.51005532       0.91635481      -0.30592825
H       -1.29290380       1.71776809      -0.33404727
H       -2.53222552       0.46486074      -0.35884819
H       -1.15916626       0.35623158      -1.45891851
H       -1.03681535       0.13446447       1.60076196
H       -1.29790702      -1.97518901      -0.47773273
H        0.57669156      -2.12392457       0.51692143
H        1.28172128      -0.25435037       1.46926852
H        2.57354911       0.68768742      -0.39161526
H        1.40600406       1.87748650       0.20117081
H        1.09677770       1.00389729      -1.31054271
16
Frame=1 idx=004284 GeodesicLength=0.056759505665263436 rxn_smarts="[C:1]([C@@:2]1([H:10])[C:3]([H:11])([H:12])[O:4][C@:5]1([C:6]([H:14])([H:15])[H:16])[H:13])([H:7])([H:8])[H:9]>>[C:1]([C@@:2]([C:3][H:11])([C@@:5]([O:4][H:12])([C:6]([H:14])([H:15])[H:16])[H:13])[H:10])([H:7])([H:8])[H:9]"
C       -1.46009895       0.64602891      -0.44705406
C       -0.70906570      -0.16389220       0.60061752
C       -0.75260395      -1.67217942       0.41844338
O        0.97077278      -1.44630345      -0.20580737
C        0.82156324      -0.16241294       0.48045042
C        1.51079308       0.91608847      -0.30818254
H       -1.29563508       1.72017932      -0.33016547
H       -2.53368767       0.46605872      -0.35761593
H       -1.16103179       0.36162659      -1.45832614
H       -1.03878866       0.13053340       1.60094337
H       -1.29149400      -1.97419686      -0.48585788
H        0.57970111      -2.13829105       0.53221173
H        1.28035300      -0.25020040       1.46999252
H        2.57393865       0.68594218      -0.39447211
H        1.40856955       1.87827293       0.19737191
H        1.09671438       1.00274581      -1.31254935
16
Frame=2 idx=004284 GeodesicLength=0.11351774455369328 rxn_smarts="[C:1]([C@@:2]1([H:10])[C:3]([H:11])([H:12])[O:4][C@:5]1([C:6]([H:14])([H:15])[H:16])[H:13])([H:7])([H:8])[H:9]>>[C:1]([C@@:2]([C:3][H:11])([C@@:5]([O:4][H:12])([C:6]([H:14])([H:15])[H:16])[H:13])[H:10])([H:7])([H:8])[H:9]"
C       -1.46173447       0.64843203      -0.44561343
C       -0.70972673      -0.16296518       0.59994492
C       -0.74580034      -1.67116142       0.41037521
O        0.96358940      -1.44642511      -0.20144992
C        0.82088513      -0.16002819       0.48068810
C        1.51154652       0.91588618      -0.31038695
H       -1.29837401       1.72252045      -0.32639708
H       -2.53512102       0.46716615      -0.35642000
H       -1.16284532       0.36686713      -1.45773590
H       -1.04068085       0.12672832       1.60110132
H       -1.28512496      -1.97321608      -0.49369361
H        0.58220824      -2.15276739       0.54701639
H        1.27903399      -0.24613103       1.47067786
H        2.57435610       0.68431962      -0.39725648
H        1.41110543       1.87909281       0.19365921
H        1.09668289       1.00168170      -1.31450963
16
Frame=3 idx=004284 GeodesicLength=0.17026926489881034 rxn_smarts="[C:1]([C@@:2]1([H:10])[C:3]([H:11])([H:12])[O:4][C@:5]1([C:6]([H:14])([H:15])[H:16])[H:13])([H:7])([H:8])[H:9]>>[C:1]([C@@:2]([C:3][H:11])([C@@:5]([O:4][H:12])([C:6]([H:14])([H:15])[H:16])[H:13])[H:10])([H:7])([H:8])[H:9]"
C       -1.46334640       0.65076161      -0.44421128
C       -0.71034705      -0.16201861       0.59928809
C       -0.73898582      -1.67009003       0.40253627
O        0.95658156      -1.44647054      -0.19713171
C        0.82024563      -0.15763378       0.48090123
C        1.51231484       0.91574877      -0.31254555
H       -1.30112153       1.72479450      -0.32273551
H       -2.53652629       0.46818648      -0.35525764
H       -1.16460958       0.37196097      -1.45714800
H       -1.04249216       0.12304472       1.60123656
H       -1.27878817      -1.97224625      -0.50125816
H        0.58421626      -2.16737526       0.56137589
H        1.27776502      -0.24213617       1.47132394
H        2.57480048       0.68281977      -0.39997517
H        1.41361235       1.87994789       0.19002812
H        1.09668086       1.00070592      -1.31642708
16
Frame=4 idx=004284 GeodesicLength=0.22701486125888698 rxn_smarts="[C:1]([C@@:2]1([H:10])[C:3]([H:11])([H:12])[O:4][C@:5]1([C:6]([H:14])([H:15])[H:16])[H:13])([H:7])([H:8])[H:9]>>[C:1]([C@@:2]([C:3][H:11])([C@@:5]([O:4][H:12])([C:6]([H:14])([H:15])[H:16])[H:13])[H:10])([H:7])([H:8])[H:9]"
C       -1.46493548       0.65302020      -0.44284574
C       -0.71092596      -0.16105350       0.59864573
C       -0.73216355      -1.66896688       0.39491941
O        0.94974594      -1.44643822      -0.19285786
C        0.81964503      -0.15522849       0.48108832
C        1.51309733       0.91567727      -0.31466188
H       -1.30387862       1.72700380      -0.31917533
H       -2.53790408       0.46912225      -0.35412637
H       -1.16632696       0.37691454      -1.45656258
H       -1.04422222       0.11947902       1.60134982
H       -1.27247213      -1.97128721      -0.50856751
H        0.58572542      -2.18213466       0.57532815
H        1.27654726      -0.23821115       1.47192969
H        2.57527096       0.68144304      -0.40263447
H        1.41609102       1.88083968       0.18647524
H        1.09670604       0.99982031      -1.31830460
16
Frame=5 idx=004284 GeodesicLength=0.2837545897361802 rxn_smarts="[C:1]([C@@:2]1([H:10])[C:3]([H:11])([H:12])[O:4][C@:5]1([C:6]([H:14])([H:15])[H:16])[H:13])([H:7])([H:8])[H:9]>>[C:1]([C@@:2]([C:3][H:11])([C@@:5]([O:4][H:12])([C:6]([H:14])([H:15])[H:16])[H:13])[H:10])([H:7])([H:8])[H:9]"
C       -1.46650222       0.65521042      -0.44151488
C       -0.71146274      -0.16007084       0.59801664
C       -0.72533573      -1.66779468       0.38751657
O        0.94307982      -1.44632778      -0.18863218
C        0.81908374      -0.15281084       0.48124831
C        1.51389347       0.91567297      -0.31673950
H       -1.30664616       1.72915102      -0.31571106
H       -2.53925484       0.46997588      -0.35302385
H       -1.16799974       0.38173447      -1.45597999
H       -1.04587096       0.11602712       1.60144214
H       -1.26616791      -1.97033921      -0.51563665
H        0.58673607      -2.19706445       0.58890895
H        1.27538186      -0.23435066       1.47249432
H        2.57576677       0.68019007      -0.40524045
H        1.41854205       1.88177016       0.18299687
H        1.09675653       0.99902635      -1.32014524
16
Frame=6 idx=004284 GeodesicLength=0.34048059961261656 rxn_smarts="[C:1]([C@@:2]1([H:10])[C:3]([H:11])([H:12])[O:4][C@:5]1([C:6]([H:14])([H:15])[H:16])[H:13])([H:7])([H:8])[H:9]>>[C:1]([C@@:2]([C:3][H:11])([C@@:5]([O:4][H:12])([C:6]([H:14])([H:15])[H:16])[H:13])[H:10])([H:7])([H:8])[H:9]"
C       -1.46804707       0.65733381      -0.44021709
C       -0.71195636      -0.15907139       0.59739999
C       -0.71850308      -1.66657505       0.38032248
O        0.93658094      -1.44613814      -0.18445819
C        0.81856242      -0.15037931       0.48138032
C        1.51470287       0.91573721      -0.31878131
H       -1.30942512       1.73123748      -0.31233854
H       -2.54057882       0.47074850      -0.35194788
H       -1.16962962       0.38642520      -1.45540014
H       -1.04743781       0.11268600       1.60151427
H       -1.25986591      -1.96940199      -0.52247744
H        0.58724291      -2.21218101       0.60214595
H        1.27427034      -0.23055008       1.47301729
H        2.57628762       0.67906192      -0.40779821
H        1.42096601       1.88274123       0.17958995
H        1.09683068       0.99832563      -1.32195142
16
Frame=7 idx=004284 GeodesicLength=0.3971986929532553 rxn_smarts="[C:1]([C@@:2]1([H:10])[C:3]([H:11])([H:12])[O:4][C@:5]1([C:6]([H:14])([H:15])[H:16])[H:13])([H:7])([H:8])[H:9]>>[C:1]([C@@:2]([C:3][H:11])([C@@:5]([O:4][H:12])([C:6]([H:14])([H:15])[H:16])[H:13])[H:10])([H:7])([H:8])[H:9]"
C       -1.46957045       0.65939237      -0.43895062
C       -0.71240589      -0.15805596       0.59679472
C       -0.71166598      -1.66531058       0.37333030
O        0.93024644      -1.44586812      -0.18033982
C        0.81808184      -0.14793246       0.48148327
C        1.51552514       0.91587133      -0.32079048
H       -1.31221642       1.73326514      -0.30905313
H       -2.54187628       0.47144173      -0.35089612
H       -1.17121845       0.39099213      -1.45482326
H       -1.04892241       0.10945187       1.60156700
H       -1.25355738      -1.96847539      -0.52910308
H        0.58724273      -2.22750132       0.61507110
H        1.27321417      -0.22680475       1.47349776
H        2.57683286       0.67805948      -0.41031321
H        1.42336343       1.88375473       0.17625135
H        1.09692664       0.99771980      -1.32372578
16
Frame=8 idx=004284 GeodesicLength=0.45392403644593154 rxn_smarts="[C:1]([C@@:2]1([H:10])[C:3]([H:11])([H:12])[O:4][C@:5]1([C:6]([H:14])([H:15])[H:16])[H:13])([H:7])([H:8])[H:9]>>[C:1]([C@@:2]([C:3][H:11])([C@@:5]([O:4][H:12])([C:6]([H:14])([H:15])[H:16])[H:13])[H:10])([H:7])([H:8])[H:9]"
C       -1.47107296       0.66138886      -0.43771410
C       -0.71281013      -0.15702530       0.59619915
C       -0.70482183      -1.66400660       0.36653354
O        0.92407209      -1.44551650      -0.17628158
C        0.81764339      -0.14546871       0.48155548
C        1.51636049       0.91607718      -0.32277029
H       -1.31502222       1.73523684      -0.30584970
H       -2.54314786       0.47205726      -0.34986614
H       -1.17276736       0.39544208      -1.45425061
H       -1.05032558       0.10632040       1.60160149
H       -1.24723325      -1.96756138      -0.53552513
H        0.58672880      -2.24304192       0.62771774
H        1.27221545      -0.22311060       1.47393418
H        2.57740231       0.67718456      -0.41279110
H        1.42573555       1.88481246       0.17297850
H        1.09704309       0.99721137      -1.32547143
16
Frame=9 idx=004284 GeodesicLength=0.5114082853657907 rxn_smarts="[C:1]([C@@:2]1([H:10])[C:3]([H:11])([H:12])[O:4][C@:5]1([C:6]([H:14])([H:15])[H:16])[H:13])([H:7])([H:8])[H:9]>>[C:1]([C@@:2]([C:3][H:11])([C@@:5]([O:4][H:12])([C:6]([H:14])([H:15])[H:16])[H:13])[H:10])([H:7])([H:8])[H:9]"
C       -1.47258275       0.66338720      -0.43646888
C       -0.71318429      -0.15596823       0.59561012
C       -0.69786114      -1.66266501       0.35960829
O        0.91796553      -1.44514399      -0.17214751
C        0.81724398      -0.14295840       0.48160984
C        1.51720330       0.91633468      -0.32477218
H       -1.31786415       1.73722095      -0.30262132
H       -2.54443680       0.47263175      -0.34878387
H       -1.17432727       0.39994810      -1.45367453
H       -1.05168469       0.10312055       1.60165254
H       -1.24086023      -1.96662880      -0.54203099
H        0.58591269      -2.25889674       0.64054040
H        1.27124459      -0.21936436       1.47435110
H        2.57797080       0.67632172      -0.41523247
H        1.42810987       1.88596583       0.16960377
H        1.09715057       0.99669475      -1.32724432
16
Frame=10 idx=004284 GeodesicLength=0.5673488326367895 rxn_smarts="[C:1]([C@@:2]1([H:10])[C:3]([H:11])([H:12])[O:4][C@:5]1([C:6]([H:14])([H:15])[H:16])[H:13])([H:7])([H:8])[H:9]>>[C:1]([C@@:2]([C:3][H:11])([C@@:5]([O:4][H:12])([C:6]([H:14])([H:15])[H:16])[H:13])[H:10])([H:7])([H:8])[H:9]"
C       -1.47401624       0.66519926      -0.43531397
C       -0.71347649      -0.15492869       0.59503484
C       -0.69112149      -1.66126968       0.35347096
O        0.91224020      -1.44458371      -0.16832425
C        0.81689489      -0.14048359       0.48160956
C        1.51806547       0.91670441      -0.32666147
H       -1.32067761       1.73901410      -0.29965176
H       -2.54561090       0.47305030      -0.34785677
H       -1.17576115       0.40401535      -1.45310576
H       -1.05287524       0.10033541       1.60161933
H       -1.23449632      -1.96575072      -0.54784160
H        0.58410601      -2.27482998       0.65230377
H        1.27039080      -0.21584129       1.47468072
H        2.57861270       0.67582198      -0.41766548
H        1.43039840       1.88707242       0.16659402
H        1.09732696       0.99647443      -1.32889216
16
Frame=11 idx=004284 GeodesicLength=0.6240697005069744 rxn_smarts="[C:1]([C@@:2]1([H:10])[C:3]([H:11])([H:12])[O:4][C@:5]1([C:6]([H:14])([H:15])[H:16])[H:13])([H:7])([H:8])[H:9]>>[C:1]([C@@:2]([C:3][H:11])([C@@:5]([O:4][H:12])([C:6]([H:14])([H:15])[H:16])[H:13])[H:10])([H:7])([H:8])[H:9]"
C       -1.47545712       0.66701555      -0.43415190
C       -0.71373642      -0.15386193       0.59446362
C       -0.68424792      -1.65984964       0.34720207
O        0.90656182      -1.44399243      -0.16444513
C        0.81658818      -0.13795763       0.48158801
C        1.51893742       0.91713259      -0.32857380
H       -1.32353091       1.74082279      -0.29665742
H       -2.54680244       0.47342808      -0.34687811
H       -1.17720343       0.40814332      -1.45253859
H       -1.05402442       0.09747909       1.60160434
H       -1.22808077      -1.96486354      -0.55373395
H        0.58198075      -2.29110711       0.66428164
H        1.26957149      -0.21226549       1.47498600
H        2.57925427       0.67533867      -0.42006664
H        1.43269498       1.88827849       0.16348781
H        1.09749451       0.99625921      -1.33056795
16
Frame=12 idx=004284 GeodesicLength=0.6807913711376055 rxn_smarts="[C:1]([C@@:2]1([H:10])[C:3]([H:11])([H:12])[O:4][C@:5]1([C:6]([H:14])([H:15])[H:16])[H:13])([H:7])([H:8])[H:9]>>[C:1]([C@@:2]([C:3][H:11])([C@@:5]([O:4][H:12])([C:6]([H:14])([H:15])[H:16])[H:13])[H:10])([H:7])([H:8])[H:9]"
C       -1.47687672       0.66877027      -0.43301459
C       -0.71394394      -0.15278311       0.59389994
C       -0.67735790      -1.65839551       0.34110454
O        0.90104225      -1.44331652      -0.16064224
C        0.81632932      -0.13540842       0.48153175
C        1.51982219       0.91764217      -0.33046581
H       -1.32640097       1.74257600      -0.29373392
H       -2.54796603       0.47372366      -0.34591392
H       -1.17861030       0.41216342      -1.45197446
H       -1.05508405       0.09471351       1.60157482
H       -1.22162930      -1.96398849      -0.55945410
H        0.57929034      -2.30765497       0.67607444
H        1.26882016      -0.20872792       1.47524267
H        2.57992079       0.67499398      -0.42244710
H        1.43496621       1.88953956       0.16043979
H        1.09767798       0.99615236      -1.33222182
16
Frame=13 idx=004284 GeodesicLength=0.737515539856447 rxn_smarts="[C:1]([C@@:2]1([H:10])[C:3]([H:11])([H:12])[O:4][C@:5]1([C:6]([H:14])([H:15])[H:16])[H:13])([H:7])([H:8])[H:9]>>[C:1]([C@@:2]([C:3][H:11])([C@@:5]([O:4][H:12])([C:6]([H:14])([H:15])[H:16])[H:13])[H:10])([H:7])([H:8])[H:9]"
C       -1.47827473       0.67046342      -0.43190095
C       -0.71409672      -0.15169301       0.59334306
C       -0.67044673      -1.65691011       0.33517317
O        0.89568084      -1.44255481      -0.15691962
C        0.81612050      -0.13283405       0.48143965
C        1.52072004       0.91823626      -0.33233957
H       -1.32928884       1.74427394      -0.29087870
H       -2.54910083       0.47393548      -0.34496227
H       -1.17998231       0.41607783      -1.45141371
H       -1.05605212       0.09203555       1.60153186
H       -1.21513728      -1.96312736      -0.56500760
H        0.57601667      -2.32448583       0.68770292
H        1.26814011      -0.20522512       1.47544929
H        2.58061273       0.67479179      -0.42481072
H        1.43721218       1.89085867       0.15744862
H        1.09787650       0.99615736      -1.33385544
16
Frame=14 idx=004284 GeodesicLength=0.7942423469697817 rxn_smarts="[C:1]([C@@:2]1([H:10])[C:3]([H:11])([H:12])[O:4][C@:5]1([C:6]([H:14])([H:15])[H:16])[H:13])([H:7])([H:8])[H:9]>>[C:1]([C@@:2]([C:3][H:11])([C@@:5]([O:4][H:12])([C:6]([H:14])([H:15])[H:16])[H:13])[H:10])([H:7])([H:8])[H:9]"
C       -1.47965068       0.67209470      -0.43081029
C       -0.71419237      -0.15059226       0.59279234
C       -0.66351004      -1.65539602       0.32940282
O        0.89047743      -1.44170629      -0.15328240
C        0.81596390      -0.13023272       0.48131035
C        1.52163137       0.91891836      -0.33419678
H       -1.33219534       1.74591662      -0.28809021
H       -2.55020601       0.47406158      -0.34402152
H       -1.18131983       0.41988768      -1.45085684
H       -1.05692620       0.08944263       1.60147660
H       -1.20860259      -1.96228228      -0.57039803
H        0.57214224      -2.34161127       0.69918703
H        1.26753508      -0.20175510       1.47560402
H        2.58133071       0.67473673      -0.42716091
H        1.43943283       1.89223911       0.15451389
H        1.09808951       0.99627853      -1.33547007
16
Frame=15 idx=004284 GeodesicLength=0.8509696931436251 rxn_smarts="[C:1]([C@@:2]1([H:10])[C:3]([H:11])([H:12])[O:4][C@:5]1([C:6]([H:14])([H:15])[H:16])[H:13])([H:7])([H:8])[H:9]>>[C:1]([C@@:2]([C:3][H:11])([C@@:5]([O:4][H:12])([C:6]([H:14])([H:15])[H:16])[H:13])[H:10])([H:7])([H:8])[H:9]"
C       -1.48100400       0.67366279      -0.42974167
C       -0.71422794      -0.14948171       0.59224740
C       -0.65654137      -1.65385550       0.32378945
O        0.88543260      -1.44076934      -0.14973540
C        0.81586227      -0.12760263       0.48114246
C        1.52255661       0.91969216      -0.33603918
H       -1.33512151       1.74750289      -0.28536694
H       -2.55128039       0.47409840      -0.34308980
H       -1.18262297       0.42359312      -1.45030374
H       -1.05770306       0.08693232       1.60141010
H       -1.20202095      -1.96145406      -0.57562892
H        0.56764157      -2.35904116       0.71054419
H        1.26700938      -0.19831564       1.47570502
H        2.58207556       0.67483387      -0.42950113
H        1.44162797       1.89368424       0.15163507
H        1.09831624       0.99652027      -1.33706692
16
Frame=16 idx=004284 GeodesicLength=0.9076970587921923 rxn_smarts="[C:1]([C@@:2]1([H:10])[C:3]([H:11])([H:12])[O:4][C@:5]1([C:6]([H:14])([H:15])[H:16])[H:13])([H:7])([H:8])[H:9]>>[C:1]([C@@:2]([C:3][H:11])([C@@:5]([O:4][H:12])([C:6]([H:14])([H:15])[H:16])[H:13])[H:10])([H:7])([H:8])[H:9]"
C       -1.48233400       0.67516622      -0.42869418
C       -0.71420024      -0.14836240       0.59170773
C       -0.64953430      -1.65229086       0.31832888
O        0.88054743      -1.43974209      -0.14628410
C        0.81581862      -0.12494217       0.48093430
C        1.52349622       0.92056163      -0.33786842
H       -1.33806834       1.74903142      -0.28270735
H       -2.55232263       0.47404224      -0.34216519
H       -1.18389179       0.42719413      -1.44975441
H       -1.05837908       0.08450199       1.60133331
H       -1.19538831      -1.96064424      -0.58070333
H        0.56248753      -2.37678512       0.72179258
H        1.26656758      -0.19490469       1.47575021
H        2.58284800       0.67508870      -0.43183503
H        1.44379739       1.89519754       0.14881208
H        1.09855593       0.99688769      -1.33864708
