15
Frame=0 idx=003968 GeodesicLength=0.0 rxn_smarts="[C:1]([C:2]([C:3]([N:4]([C:5](=[O:6])[H:15])[H:14])([H:12])[H:13])([H:10])[H:11])([H:7])([H:8])[H:9]>>[C:1]([C@:2]1([H:11])[C:3]([H:12])([H:13])[N:4]([H:14])[C@:5]1([O:6][H:10])[H:15])([H:7])([H:8])[H:9]"
C       -1.65463639       0.50128165       0.52785808
C       -0.76711447      -0.19373326      -0.48247562
C        0.24079437      -1.13164147       0.18510822
N        1.33147916      -0.22501171       0.50748984
C        1.47134946       0.76340608      -0.37037183
O        1.58970042       0.66613295      -1.68963431
H       -2.32539930       1.21040782       0.03780727
H       -2.28655945      -0.19155933       1.10889907
H       -1.07181362       1.07519143       1.25868802
H        0.78934486       0.18211681      -1.95739694
H       -1.38521377      -0.72178777      -1.22037596
H        0.58154464      -1.91555859      -0.49721106
H       -0.07442670      -1.63244307       1.11686640
H        1.57892744      -0.03372710       1.46413616
H        1.98202336       1.64692556       0.01061270
15
Frame=1 idx=003968 GeodesicLength=0.1033679375780055 rxn_smarts="[C:1]([C:2]([C:3]([N:4]([C:5](=[O:6])[H:15])[H:14])([H:12])[H:13])([H:10])[H:11])([H:7])([H:8])[H:9]>>[C:1]([C@:2]1([H:11])[C:3]([H:12])([H:13])[N:4]([H:14])[C@:5]1([O:6][H:10])[H:15])([H:7])([H:8])[H:9]"
C       -1.64978489       0.50600395       0.51906872
C       -0.75197513      -0.19121975      -0.48141400
C        0.24585591      -1.13632826       0.19169673
N        1.34632964      -0.23869557       0.50563603
C        1.46771861       0.76051064      -0.36807731
O        1.57634761       0.67229260      -1.68737070
H       -2.31238288       1.21764122       0.02172141
H       -2.29047464      -0.18588377       1.09037341
H       -1.07397833       1.07575134       1.25824705
H        0.74428348       0.19496395      -1.95123251
H       -1.36692902      -0.72335797      -1.21888577
H        0.58041535      -1.92663936      -0.48611668
H       -0.07596705      -1.62616610       1.12612505
H        1.60301760      -0.05240837       1.46086762
H        1.95752375       1.65353546       0.01936096
15
Frame=2 idx=003968 GeodesicLength=0.20645772096478515 rxn_smarts="[C:1]([C:2]([C:3]([N:4]([C:5](=[O:6])[H:15])[H:14])([H:12])[H:13])([H:10])[H:11])([H:7])([H:8])[H:9]>>[C:1]([C@:2]1([H:11])[C:3]([H:12])([H:13])[N:4]([H:14])[C@:5]1([O:6][H:10])[H:15])([H:7])([H:8])[H:9]"
C       -1.64516620       0.51068990       0.51042488
C       -0.73725133      -0.18866125      -0.48022027
C        0.25080063      -1.14070780       0.19807670
N        1.36102995      -0.25214452       0.50310573
C        1.46381369       0.75796237      -0.36586885
O        1.56388793       0.67876402      -1.68499548
H       -2.29980242       1.22461000       0.00596933
H       -2.29418578      -0.18032023       1.07210494
H       -1.07649789       1.07649860       1.25769148
H        0.70058174       0.20662127      -1.94468153
H       -1.34913573      -0.72486572      -1.21718078
H        0.57886946      -1.93745372      -0.47517891
H       -0.07711116      -1.61941055       1.13526910
H        1.62734882      -0.07112665       1.45674797
H        1.93281829       1.65954428       0.02873569
15
Frame=3 idx=003968 GeodesicLength=0.3094047344201855 rxn_smarts="[C:1]([C:2]([C:3]([N:4]([C:5](=[O:6])[H:15])[H:14])([H:12])[H:13])([H:10])[H:11])([H:7])([H:8])[H:9]>>[C:1]([C@:2]1([H:11])[C:3]([H:12])([H:13])[N:4]([H:14])[C@:5]1([O:6][H:10])[H:15])([H:7])([H:8])[H:9]"
C       -1.64078509       0.51533629       0.50191004
C       -0.72292936      -0.18606080      -0.47889941
C        0.25564011      -1.14478559       0.20427089
N        1.37557888      -0.26536124       0.49991780
C        1.45962576       0.75575934      -0.36370831
O        1.55236629       0.68557287      -1.68247190
H       -2.28766288       1.23131138      -0.00948650
H       -2.29771242      -0.17487482       1.05407971
H       -1.07938214       1.07743309       1.25701456
H        0.65806717       0.21715239      -1.93785571
H       -1.33181888      -0.72633607      -1.21525222
H        0.57693091      -1.94800281      -0.46436224
H       -0.07785477      -1.61217732       1.14432364
H        1.65190226      -0.08987539       1.45178265
H        1.90803415       1.66490868       0.03873701
15
Frame=4 idx=003968 GeodesicLength=0.4123097127382982 rxn_smarts="[C:1]([C:2]([C:3]([N:4]([C:5](=[O:6])[H:15])[H:14])([H:12])[H:13])([H:10])[H:11])([H:7])([H:8])[H:9]>>[C:1]([C@:2]1([H:11])[C:3]([H:12])([H:13])[N:4]([H:14])[C@:5]1([O:6][H:10])[H:15])([H:7])([H:8])[H:9]"
C       -1.63664345       0.51994147       0.49350763
C       -0.70899491      -0.18342125      -0.47745921
C        0.26038489      -1.14856788       0.21029896
N        1.38997432      -0.27835113       0.49608884
C        1.45515058       0.75389292      -0.36156067
O        1.54181697       0.69275145      -1.67976431
H       -2.27596635       1.23774340      -0.02467871
H       -2.30107027      -0.16955119       1.03628528
H       -1.08263713       1.07855586       1.25620785
H        0.61658479       0.22660769      -1.93084968
H       -1.31496631      -0.72779350      -1.21309144
H        0.57462067      -1.95829028      -0.45363379
H       -0.07819504      -1.60446730       1.15330955
H        1.67665741      -0.10865023       1.44597413
H        1.88328384       1.66959995       0.04936558
15
Frame=5 idx=003968 GeodesicLength=0.5153608781501674 rxn_smarts="[C:1]([C:2]([C:3]([N:4]([C:5](=[O:6])[H:15])[H:14])([H:12])[H:13])([H:10])[H:11])([H:7])([H:8])[H:9]>>[C:1]([C@:2]1([H:11])[C:3]([H:12])([H:13])[N:4]([H:14])[C@:5]1([O:6][H:10])[H:15])([H:7])([H:8])[H:9]"
C       -1.63273726       0.52450613       0.48520193
C       -0.69543257      -0.18074563      -0.47590623
C        0.26504466      -1.15206367       0.21617699
N        1.40421508      -0.29112123       0.49163203
C        1.45038573       0.75235081      -0.35939432
O        1.53229290       0.70033502      -1.67684232
H       -2.26470440       1.24391075      -0.03964051
H       -2.30427448      -0.16434751       1.01870956
H       -1.08626190       1.07986609       1.25526615
H        0.57597369       0.23501806      -1.92375162
H       -1.29856902      -0.72926159      -1.21068475
H        0.57195816      -1.96832227      -0.44296543
H       -0.07812847      -1.59628535       1.16224209
H        1.70159321      -0.12744635       1.43932257
H        1.85864466       1.67360674       0.06063386
15
Frame=6 idx=003968 GeodesicLength=0.6185207944775998 rxn_smarts="[C:1]([C:2]([C:3]([N:4]([C:5](=[O:6])[H:15])[H:14])([H:12])[H:13])([H:10])[H:11])([H:7])([H:8])[H:9]>>[C:1]([C@:2]1([H:11])[C:3]([H:12])([H:13])[N:4]([H:14])[C@:5]1([O:6][H:10])[H:15])([H:7])([H:8])[H:9]"
C       -1.62906329       0.52902976       0.47697889
C       -0.68223006      -0.17803526      -0.47425193
C        0.26962751      -1.15527948       0.22191883
N        1.41829721      -0.30367903       0.48655714
C        1.44533472       0.75111691      -0.35718533
O        1.52382241       0.70834315      -1.67367876
H       -2.25387666       1.24981247      -0.05439875
H       -2.30732984      -0.15926611       1.00134673
H       -1.09025445       1.08136798       1.25417774
H        0.53611423       0.24242942      -1.91662372
H       -1.28262357      -0.73076410      -1.20802182
H        0.56895989      -1.97810214      -0.43232976
H       -0.07765278      -1.58763288       1.17113463
H        1.72668320      -0.14625948       1.43182548
H        1.83419148       1.67691879       0.07255064
15
Frame=7 idx=003968 GeodesicLength=0.7218743164544913 rxn_smarts="[C:1]([C:2]([C:3]([N:4]([C:5](=[O:6])[H:15])[H:14])([H:12])[H:13])([H:10])[H:11])([H:7])([H:8])[H:9]>>[C:1]([C@:2]1([H:11])[C:3]([H:12])([H:13])[N:4]([H:14])[C@:5]1([O:6][H:10])[H:15])([H:7])([H:8])[H:9]"
C       -1.62561359       0.53351485       0.46882274
C       -0.66937101      -0.17529316      -0.47250724
C        0.27414149      -1.15822408       0.22753539
N        1.43221725      -0.31603379       0.48087440
C        1.44000151       0.75017340      -0.35490666
O        1.51644188       0.71682063      -1.67024595
H       -2.24347057       1.25545315      -0.06898151
H       -2.31024396      -0.15430018       0.98418579
H       -1.09460845       1.08306238       1.25293378
H        0.49687264       0.24885764      -1.90952554
H       -1.26712523      -0.73232684      -1.20508386
H        0.56564255      -1.98763616      -0.42170381
H       -0.07676686      -1.57851493       1.17999495
H        1.75190281      -0.16508640       1.42348108
H        1.80997954       1.67953350       0.08512644
15
Frame=8 idx=003968 GeodesicLength=0.8254334165776218 rxn_smarts="[C:1]([C:2]([C:3]([N:4]([C:5](=[O:6])[H:15])[H:14])([H:12])[H:13])([H:10])[H:11])([H:7])([H:8])[H:9]>>[C:1]([C@:2]1([H:11])[C:3]([H:12])([H:13])[N:4]([H:14])[C@:5]1([O:6][H:10])[H:15])([H:7])([H:8])[H:9]"
C       -1.62237840       0.53796412       0.46071757
C       -0.65684042      -0.17252440      -0.47068380
C        0.27859225      -1.16090989       0.23303554
N        1.44596931      -0.32819597       0.47459158
C        1.43439020       0.74949840      -0.35253702
O        1.51018522       0.72582350      -1.66652637
H       -2.23347212       1.26083657      -0.08341328
H       -2.31302072      -0.14943935       0.96721839
H       -1.09931661       1.08495073       1.25152248
H        0.45813508       0.25431716      -1.90249911
H       -1.25207492      -0.73397819      -1.20185011
H        0.56202039      -1.99693642      -0.41106586
H       -0.07547131      -1.56893756       1.18883013
H        1.77722432      -0.18392166       1.41428833
H        1.78605773       1.68145296       0.09837152
15
Frame=9 idx=003968 GeodesicLength=0.9291554519848559 rxn_smarts="[C:1]([C:2]([C:3]([N:4]([C:5](=[O:6])[H:15])[H:14])([H:12])[H:13])([H:10])[H:11])([H:7])([H:8])[H:9]>>[C:1]([C@:2]1([H:11])[C:3]([H:12])([H:13])[N:4]([H:14])[C@:5]1([O:6][H:10])[H:15])([H:7])([H:8])[H:9]"
C       -1.61934125       0.54237626       0.45266219
C       -0.64462397      -0.16971256      -0.46880805
C        0.28298964      -1.16333710       0.23841670
N        1.45954442      -0.34015321       0.46771840
C        1.42853780       0.74907975      -0.35007130
O        1.50517380       0.73521549      -1.66245749
H       -2.22388589       1.26596574      -0.09770410
H       -2.31563887      -0.14470296       0.95046146
H       -1.10435459       1.08704357       1.24993775
H        0.41976640       0.25893298      -1.89554525
H       -1.23747950      -0.73572354      -1.19832008
H        0.55812863      -2.00599569      -0.40039931
H       -0.07377748      -1.55891387       1.19761722
H        1.80260685      -0.20273751       1.40423781
H        1.76235401       1.68266264       0.11225405
15
Frame=10 idx=003968 GeodesicLength=1.0330250253288378 rxn_smarts="[C:1]([C:2]([C:3]([N:4]([C:5](=[O:6])[H:15])[H:14])([H:12])[H:13])([H:10])[H:11])([H:7])([H:8])[H:9]>>[C:1]([C@:2]1([H:11])[C:3]([H:12])([H:13])[N:4]([H:14])[C@:5]1([O:6][H:10])[H:15])([H:7])([H:8])[H:9]"
C       -1.61649518       0.54675736       0.44463182
C       -0.63270636      -0.16687374      -0.46688389
C        0.28733793      -1.16552003       0.24369156
N        1.47293520      -0.35192941       0.46026889
C        1.42243450       0.74888868      -0.34747605
O        1.50135668       0.74518873      -1.65803823
H       -2.21469080       1.27084036      -0.11188461
H       -2.31811124      -0.14006153       0.93389332
H       -1.10972166       1.08933954       1.24816024
H        0.38168056       0.26262090      -1.88874536
H       -1.22333917      -0.73760458      -1.19445302
H        0.55397123      -2.01482484      -0.38968947
H       -0.07167588      -1.54844742       1.20637296
H        1.82801808      -0.22154513       1.39334715
H        1.73900612       1.68317111       0.12680470
15
Frame=11 idx=003968 GeodesicLength=1.137012163159927 rxn_smarts="[C:1]([C:2]([C:3]([N:4]([C:5](=[O:6])[H:15])[H:14])([H:12])[H:13])([H:10])[H:11])([H:7])([H:8])[H:9]>>[C:1]([C@:2]1([H:11])[C:3]([H:12])([H:13])[N:4]([H:14])[C@:5]1([O:6][H:10])[H:15])([H:7])([H:8])[H:9]"
C       -1.61382364       0.55110856       0.43661374
C       -0.62107167      -0.16400347      -0.46493467
C        0.29164653      -1.16746284       0.24886309
N        1.48613243      -0.36352475       0.45225983
C        1.41609740       0.74890580      -0.34473182
O        1.49877922       0.75574078      -1.65322620
H       -2.20588134       1.27546034      -0.12597793
H       -2.32042864      -0.13551942       0.91751824
H       -1.11539762       1.09184689       1.24617704
H        0.34374696       0.26542033      -1.88213584
H       -1.20966300      -0.73964379      -1.19023392
H        0.54957611      -2.02341764      -0.37892179
H       -0.06916834      -1.53754895       1.21508872
H        1.85341457      -0.24033457       1.38162682
H        1.71604101       1.68297273       0.14201469
15
Frame=12 idx=003968 GeodesicLength=1.2410502802501358 rxn_smarts="[C:1]([C:2]([C:3]([N:4]([C:5](=[O:6])[H:15])[H:14])([H:12])[H:13])([H:10])[H:11])([H:7])([H:8])[H:9]>>[C:1]([C@:2]1([H:11])[C:3]([H:12])([H:13])[N:4]([H:14])[C@:5]1([O:6][H:10])[H:15])([H:7])([H:8])[H:9]"
C       -1.61130802       0.55543294       0.42859489
C       -0.60970257      -0.16110052      -0.46298096
C        0.29592222      -1.16917386       0.25393235
N        1.49912575      -0.37494139       0.44370881
C        1.40954218       0.74911244      -0.34181676
O        1.49747383       0.76689646      -1.64799648
H       -2.19744583       1.27982680      -0.14000604
H       -2.32258148      -0.13107064       0.90133800
H       -1.12136231       1.09457091       1.24397537
H        0.30584945       0.26734616      -1.87574587
H       -1.19646025      -0.74186591      -1.18564102
H        0.54496944      -2.03177335      -0.36808752
H       -0.06626029      -1.52623267       1.22375324
H        1.87875365      -0.25909619       1.36909320
H        1.69348422       1.68206884       0.15787878
15
Frame=13 idx=003968 GeodesicLength=1.3451000434458606 rxn_smarts="[C:1]([C:2]([C:3]([N:4]([C:5](=[O:6])[H:15])[H:14])([H:12])[H:13])([H:10])[H:11])([H:7])([H:8])[H:9]>>[C:1]([C@:2]1([H:11])[C:3]([H:12])([H:13])[N:4]([H:14])[C@:5]1([O:6][H:10])[H:15])([H:7])([H:8])[H:9]"
C       -1.60892738       0.55973509       0.42056167
C       -0.59858330      -0.15816475      -0.46105014
C        0.30017132      -1.17066024       0.25889367
N        1.51190250      -0.38617927       0.43463007
C        1.40278409       0.74948986      -0.33871899
O        1.49748876       0.77868376      -1.64230924
H       -2.18937092       1.28394197      -0.15398435
H       -2.32455448      -0.12670425       0.88535701
H       -1.12758972       1.09751862       1.24153917
H        0.26787457       0.26839944      -1.86959474
H       -1.18374692      -0.74430066      -1.18064246
H        0.54017812      -2.03989140      -0.35718326
H       -0.06295835      -1.51451348       1.23234704
H        1.90398924      -0.27781606       1.35576038
H        1.67134248       1.68046138       0.17439419
15
Frame=14 idx=003968 GeodesicLength=1.4490883847724243 rxn_smarts="[C:1]([C:2]([C:3]([N:4]([C:5](=[O:6])[H:15])[H:14])([H:12])[H:13])([H:10])[H:11])([H:7])([H:8])[H:9]>>[C:1]([C@:2]1([H:11])[C:3]([H:12])([H:13])[N:4]([H:14])[C@:5]1([O:6][H:10])[H:15])([H:7])([H:8])[H:9]"
C       -1.60665801       0.56402005       0.41250363
C       -0.58769805      -0.15519386      -0.45917150
C        0.30440031      -1.17192806       0.26374138
N        1.52445069      -0.39723593       0.42503984
C        1.39583778       0.75002406      -0.33542654
O        1.49886670       0.79112242      -1.63612626
H       -2.18164237       1.28781158      -0.16792534
H       -2.32633145      -0.12241192       0.86958128
H       -1.13405220       1.10069567       1.23885614
H        0.22971188       0.26857229      -1.86369871
H       -1.17153995      -0.74697317      -1.17521700
H        0.53523343      -2.04776845      -0.34620792
H       -0.05927042      -1.50240761       1.24084844
H        1.92907252      -0.29647829       1.34164704
H        1.64961914       1.67815122       0.19155554
15
Frame=15 idx=003968 GeodesicLength=1.5529322088730306 rxn_smarts="[C:1]([C:2]([C:3]([N:4]([C:5](=[O:6])[H:15])[H:14])([H:12])[H:13])([H:10])[H:11])([H:7])([H:8])[H:9]>>[C:1]([C@:2]1([H:11])[C:3]([H:12])([H:13])[N:4]([H:14])[C@:5]1([O:6][H:10])[H:15])([H:7])([H:8])[H:9]"
C       -1.60447323       0.56829539       0.40440935
C       -0.57703008      -0.15218826      -0.45737932
C        0.30861502      -1.17298372       0.26846456
N        1.53675652      -0.40810823       0.41495299
C        1.38871711       0.75070142      -0.33192690
O        1.50164288       0.80425248      -1.62940497
H       -2.17423975       1.29144348      -0.18183990
H       -2.32789491      -0.11817782       0.85401595
H       -1.14071656       1.10410807       1.23591273
H        0.19125860       0.26783455      -1.85807098
H       -1.15985988      -0.74991452      -1.16933299
H        0.53016598      -2.05540358      -0.33516405
H       -0.05520681      -1.48993410       1.24923031
H        1.95395357      -0.31506475       1.32677313
H        1.62831157       1.67513959       0.20936009
15
Frame=16 idx=003968 GeodesicLength=1.656548247933164 rxn_smarts="[C:1]([C:2]([C:3]([N:4]([C:5](=[O:6])[H:15])[H:14])([H:12])[H:13])([H:10])[H:11])([H:7])([H:8])[H:9]>>[C:1]([C@:2]1([H:11])[C:3]([H:12])([H:13])[N:4]([H:14])[C@:5]1([O:6][H:10])[H:15])([H:7])([H:8])[H:9]"
C       -1.60234359       0.57256873       0.39626877
C       -0.56656459      -0.14914829      -0.45571239
C        0.31282089      -1.17383372       0.27305006
N        1.54880685      -0.41878919       0.40438559
C        1.38143328       0.75151256      -0.32821070
O        1.50586226       0.81810510      -1.62209832
H       -2.16714168       1.29484990      -0.19573758
H       -2.32922535      -0.11398605       0.83867053
H       -1.14754533       1.10776161       1.23269666
H        0.15241042       0.26615160      -1.85271988
H       -1.14873340      -0.75315626      -1.16296090
H        0.52501121      -2.06279440      -0.32405850
H       -0.05077975      -1.47711452       1.25746135
H        1.97858177      -0.33355337       1.31116116
H        1.60740700       1.67142631       0.22780416
