16
Frame=0 idx=001877 GeodesicLength=0.0 rxn_smarts="[C:1]([C@@:2]1([H:10])[C:3]([H:11])([H:12])[C@:4]1([C:5]([O:6][H:16])([H:14])[H:15])[H:13])([H:7])([H:8])[H:9]>>[C:1]([C:2]1([H:10])[C:3]([H:11])=[C:4]1[H:13])([H:7])([H:8])[H:9].[C:5](=[O:6])([H:14])[H:15].[H:12][H:16]"
C       -1.55736361      -0.77687568       0.00387609
C       -0.98750933       0.46341002      -0.64805847
C       -0.08374321       1.42028253       0.04786422
C        0.48666282       0.64938226      -0.88273788
C        1.69535560      -0.87065009       0.03687240
O        1.57330474      -0.90216162       1.27184806
H       -1.75237333      -1.54511649      -0.74816720
H       -0.88183751      -1.19304937       0.75060976
H       -2.50559560      -0.54832585       0.49566357
H       -1.67449466       0.91707795      -1.36605875
H       -0.07937115       2.43579579       0.40837821
H        0.18273330       0.87495529       1.59444253
H        1.13546142       0.82431354      -1.72428376
H        1.16282784      -1.60142593      -0.58670787
H        2.58777322      -0.41238197      -0.41050874
H        0.69816942       0.26476963       1.75696782
16
Frame=1 idx=001877 GeodesicLength=0.10775836265356921 rxn_smarts="[C:1]([C@@:2]1([H:10])[C:3]([H:11])([H:12])[C@:4]1([C:5]([O:6][H:16])([H:14])[H:15])[H:13])([H:7])([H:8])[H:9]>>[C:1]([C:2]1([H:10])[C:3]([H:11])=[C:4]1[H:13])([H:7])([H:8])[H:9].[C:5](=[O:6])([H:14])[H:15].[H:12][H:16]"
C       -1.57279221      -0.77109911       0.00321290
C       -0.99412291       0.46373452      -0.65021373
C       -0.08351707       1.41336270       0.04826474
C        0.48030163       0.63879022      -0.88864217
C        1.70354059      -0.86119892       0.03731219
O        1.57337435      -0.92626824       1.27406479
H       -1.77040063      -1.54274922      -0.74459459
H       -0.90355134      -1.18732594       0.75546674
H       -2.52060217      -0.53547829       0.49264224
H       -1.67777703       0.92112937      -1.36869157
H       -0.07263470       2.43508202       0.39066285
H        0.19908975       0.87635807       1.60030877
H        1.11162451       0.81269828      -1.74391888
H        1.21321690      -1.60525815      -0.60434869
H        2.59747034      -0.37086619      -0.37258817
H        0.71677999       0.23908888       1.77106257
16
Frame=2 idx=001877 GeodesicLength=0.21549735250845015 rxn_smarts="[C:1]([C@@:2]1([H:10])[C:3]([H:11])([H:12])[C@:4]1([C:5]([O:6][H:16])([H:14])[H:15])[H:13])([H:7])([H:8])[H:9]>>[C:1]([C:2]1([H:10])[C:3]([H:11])=[C:4]1[H:13])([H:7])([H:8])[H:9].[C:5](=[O:6])([H:14])[H:15].[H:12][H:16]"
C       -1.58869477      -0.76496685       0.00289490
C       -1.00083966       0.46391228      -0.65248601
C       -0.08331443       1.40623342       0.04842278
C        0.47379538       0.62771585      -0.89462452
C        1.71201592      -0.85162812       0.03760223
O        1.57350519      -0.95102851       1.27513143
H       -1.78885872      -1.54034639      -0.74030598
H       -0.92595337      -1.18086429       0.76098316
H       -2.53610399      -0.52186525       0.48960143
H       -1.68101020       0.92496856      -1.37159333
H       -0.06574027       2.43388088       0.37237283
H        0.21582602       0.87783498       1.60582320
H        1.08782001       0.80049785      -1.76297175
H        1.26695538      -1.60727218      -0.62272158
H        2.60517004      -0.32894939      -0.33343364
H        0.73542748       0.21187717       1.78530485
16
Frame=3 idx=001877 GeodesicLength=0.3232110138409002 rxn_smarts="[C:1]([C@@:2]1([H:10])[C:3]([H:11])([H:12])[C@:4]1([C:5]([O:6][H:16])([H:14])[H:15])[H:13])([H:7])([H:8])[H:9]>>[C:1]([C:2]1([H:10])[C:3]([H:11])=[C:4]1[H:13])([H:7])([H:8])[H:9].[C:5](=[O:6])([H:14])[H:15].[H:12][H:16]"
C       -1.60509567      -0.75845034       0.00294095
C       -1.00766364       0.46393032      -0.65488390
C       -0.08313521       1.39888365       0.04831871
C        0.46714042       0.61611443      -0.90067834
C        1.72080548      -0.84192001       0.03772862
O        1.57375702      -0.97643260       1.27496782
H       -1.80780340      -1.53788627      -0.73525585
H       -0.94906405      -1.17361728       0.76717219
H       -2.55210821      -0.50742950       0.48655262
H       -1.68418512       0.92857347      -1.37478881
H       -0.05867519       2.43215870       0.35350680
H        0.23291727       0.87937860       1.61096181
H        1.06403487       0.78766905      -1.78148129
H        1.32422797      -1.60715404      -0.64169508
H        2.61078762      -0.28679100      -0.29305548
H        0.75405983       0.18297283       1.79968923
16
Frame=4 idx=001877 GeodesicLength=0.43089485649875164 rxn_smarts="[C:1]([C@@:2]1([H:10])[C:3]([H:11])([H:12])[C@:4]1([C:5]([O:6][H:16])([H:14])[H:15])[H:13])([H:7])([H:8])[H:9]>>[C:1]([C:2]1([H:10])[C:3]([H:11])=[C:4]1[H:13])([H:7])([H:8])[H:9].[C:5](=[O:6])([H:14])[H:15].[H:12][H:16]"
C       -1.62202095      -0.75152013       0.00336928
C       -1.01460044       0.46377445      -0.65741720
C       -0.08297622       1.39130051       0.04792867
C        0.46033239       0.60393523      -0.90680044
C        1.72993927      -0.83205270       0.03767593
O        1.57420160      -1.00247625       1.27348897
H       -1.82730828      -1.53533917      -0.72940091
H       -0.97289757      -1.16554463       0.77403575
H       -2.56861572      -0.49211043       0.48351848
H       -1.68729529       0.93192165      -1.37830304
H       -0.05141734       2.42988176       0.33405560
H        0.25033348       0.88098321       1.61570062
H        1.04025232       0.77415221      -1.79949042
H        1.38520594      -1.60454911      -0.66110024
H        2.61424586      -0.24454838      -0.25146558
H        0.77262094       0.15219179       1.81420456
16
Frame=5 idx=001877 GeodesicLength=0.538529518278933 rxn_smarts="[C:1]([C@@:2]1([H:10])[C:3]([H:11])([H:12])[C@:4]1([C:5]([O:6][H:16])([H:14])[H:15])[H:13])([H:7])([H:8])[H:9]>>[C:1]([C:2]1([H:10])[C:3]([H:11])=[C:4]1[H:13])([H:7])([H:8])[H:9].[C:5](=[O:6])([H:14])[H:15].[H:12][H:16]"
C       -1.63949120      -0.74414173       0.00419669
C       -1.02165592       0.46343031      -0.66009473
C       -0.08283531       1.38346635       0.04722351
C        0.45336165       0.59111958      -0.91298574
C        1.73945203      -0.82199855       0.03742912
O        1.57492997      -1.02916004       1.27060257
H       -1.84745668      -1.53265914      -0.72269887
H       -0.99745269      -1.15661015       0.78155879
H       -2.58561151      -0.47583911       0.48053130
H       -1.69033451       0.93499233      -1.38215672
H       -0.04394112       2.42701104       0.31400007
H        0.26803322       0.88264171       1.62001199
H        1.01644870       0.75986696      -1.81703486
H        1.45003381      -1.59906227      -0.68071288
H        2.61546860      -0.20237859      -0.20867936
H        0.79105095       0.11932131       1.82880912
16
Frame=6 idx=001877 GeodesicLength=0.6461201554395403 rxn_smarts="[C:1]([C@@:2]1([H:10])[C:3]([H:11])([H:12])[C@:4]1([C:5]([O:6][H:16])([H:14])[H:15])[H:13])([H:7])([H:8])[H:9]>>[C:1]([C:2]1([H:10])[C:3]([H:11])=[C:4]1[H:13])([H:7])([H:8])[H:9].[C:5](=[O:6])([H:14])[H:15].[H:12][H:16]"
C       -1.65753055      -0.73628343       0.00544221
C       -1.02883415       0.46287777      -0.66292939
C       -0.08270576       1.37536595       0.04617223
C        0.44622440       0.57760844      -0.91923356
C        1.74938028      -0.81172638       0.03696865
O        1.57603211      -1.05649777       1.26620304
H       -1.86834711      -1.52980472      -0.71510488
H       -1.02272986      -1.14678126       0.78972989
H       -2.60308011      -0.45854673       0.47763149
H       -1.69329470       0.93775195      -1.38638108
H       -0.03621717       2.42351380       0.29331254
H        0.28596505       0.88435726       1.62387450
H        0.99260827       0.74472269      -1.83415624
H        1.51882211      -1.59023983      -0.70029417
H        2.61439370      -0.16045405      -0.16470931
H        0.80931349       0.08413632       1.84347407
16
Frame=7 idx=001877 GeodesicLength=0.753668243988743 rxn_smarts="[C:1]([C@@:2]1([H:10])[C:3]([H:11])([H:12])[C@:4]1([C:5]([O:6][H:16])([H:14])[H:15])[H:13])([H:7])([H:8])[H:9]>>[C:1]([C:2]1([H:10])[C:3]([H:11])=[C:4]1[H:13])([H:7])([H:8])[H:9].[C:5](=[O:6])([H:14])[H:15].[H:12][H:16]"
C       -1.67615548      -0.72790966       0.00712461
C       -1.03613676       0.46209458      -0.66593352
C       -0.08258161       1.36698197       0.04473881
C        0.43891514       0.56333752      -0.92554181
C        1.75976336      -0.80119833       0.03627366
O        1.57761546      -1.08451019       1.26016922
H       -1.89008046      -1.52672293      -0.70657370
H       -1.04871521      -1.13602723       0.79852837
H       -2.62099066      -0.44015813       0.47486642
H       -1.69616485       0.94016226      -1.39100571
H       -0.02821483       2.41935401       0.27195187
H        0.30406321       0.88614286       1.62726345
H        0.96871542       0.72860943      -1.85088987
H        1.59162623      -1.57758078      -0.71955510
H        2.61096121      -0.11895378      -0.11956945
H        0.82737984       0.04637838       1.85815276
16
Frame=8 idx=001877 GeodesicLength=0.8611776562006753 rxn_smarts="[C:1]([C@@:2]1([H:10])[C:3]([H:11])([H:12])[C@:4]1([C:5]([O:6][H:16])([H:14])[H:15])[H:13])([H:7])([H:8])[H:9]>>[C:1]([C:2]1([H:10])[C:3]([H:11])=[C:4]1[H:13])([H:7])([H:8])[H:9].[C:5](=[O:6])([H:14])[H:15].[H:12][H:16]"
C       -1.69537818      -0.71898482       0.00926182
C       -1.04356380       0.46105686      -0.66912106
C       -0.08245308       1.35829993       0.04288251
C        0.43143010       0.54824032      -0.93190866
C        1.77064793      -0.79036665       0.03532381
O        1.57981321      -1.11322564       1.25236596
H       -1.91276519      -1.52335413      -0.69706294
H       -1.07538270      -1.12432364       0.80792677
H       -2.63930208      -0.42059810       0.47228981
H       -1.69893395       0.94218032      -1.39606419
H       -0.01989923       2.41450003       0.24986237
H        0.32225830       0.88803245       1.63015697
H        0.94475689       0.71139988      -1.86727070
H        1.66842678      -1.56054412      -0.73815265
H        2.60511830      -0.07805826      -0.07327632
H        0.84522670       0.00574557       1.87278650
16
Frame=9 idx=001877 GeodesicLength=0.9686029282570244 rxn_smarts="[C:1]([C@@:2]1([H:10])[C:3]([H:11])([H:12])[C@:4]1([C:5]([O:6][H:16])([H:14])[H:15])[H:13])([H:7])([H:8])[H:9]>>[C:1]([C:2]1([H:10])[C:3]([H:11])=[C:4]1[H:13])([H:7])([H:8])[H:9].[C:5](=[O:6])([H:14])[H:15].[H:12][H:16]"
C       -1.71519942      -0.70946526       0.01187379
C       -1.05111299       0.45973934      -0.67250304
C       -0.08231102       1.34930212       0.04055644
C        0.42376286       0.53224090      -0.93832466
C        1.78209385      -0.77916423       0.03410296
O        1.58280308      -1.14267821       1.24264066
H       -1.93651137      -1.51961447      -0.68652804
H       -1.10268208      -1.11164859       0.81788083
H       -2.65795213      -0.39978028       0.46996901
H       -1.70158886       0.94375974      -1.40158660
H       -0.01123912       2.40891703       0.22697254
H        0.34048515       0.89008303       1.63253849
H        0.92072345       0.69293907      -1.88331803
H        1.74912044      -1.53856420      -0.75565971
H        2.59680801      -0.03793231      -0.02584757
H        0.86280018      -0.03813367       1.88723292
16
Frame=10 idx=001877 GeodesicLength=1.0759975650514124 rxn_smarts="[C:1]([C@@:2]1([H:10])[C:3]([H:11])([H:12])[C@:4]1([C:5]([O:6][H:16])([H:14])[H:15])[H:13])([H:7])([H:8])[H:9]>>[C:1]([C:2]1([H:10])[C:3]([H:11])=[C:4]1[H:13])([H:7])([H:8])[H:9].[C:5](=[O:6])([H:14])[H:15].[H:12][H:16]"
C       -1.73561046      -0.69931573       0.01498405
C       -1.05877146       0.45810894      -0.67609901
C       -0.08214532       1.33998855       0.03771002
C        0.41591923       0.51528293      -0.94478734
C        1.79413822      -0.76752377       0.03259184
O        1.58673862      -1.17292383       1.23081057
H       -1.96140102      -1.51545173      -0.67491454
H       -1.13056856      -1.09796492       0.82838713
H       -2.67687907      -0.37763199       0.46795313
H       -1.70410507       0.94482447      -1.40762710
H       -0.00220647       2.40258610       0.20319050
H        0.35864720       0.89239653       1.63439004
H        0.89662537       0.67308209      -1.89906119
H        1.83347910      -1.51101251      -0.77168090
H        2.58599042       0.00120319       0.02272577
H        0.88014927      -0.08564832       1.90142701
16
Frame=11 idx=001877 GeodesicLength=1.183333554605419 rxn_smarts="[C:1]([C@@:2]1([H:10])[C:3]([H:11])([H:12])[C@:4]1([C:5]([O:6][H:16])([H:14])[H:15])[H:13])([H:7])([H:8])[H:9]>>[C:1]([C:2]1([H:10])[C:3]([H:11])=[C:4]1[H:13])([H:7])([H:8])[H:9].[C:5](=[O:6])([H:14])[H:15].[H:12][H:16]"
C       -1.75658420      -0.68848728       0.01862436
C       -1.06652191       0.45612936      -0.67992189
C       -0.08194740       1.33035917       0.03428267
C        0.40790637       0.49730242      -0.95128209
C        1.80683176      -0.75535356       0.03078127
O        1.59181570      -1.20403348       1.21665345
H       -1.98749544      -1.51079018      -0.66214828
H       -1.15897262      -1.08321846       0.83943936
H       -2.69600101      -0.35406625       0.46629545
H       -1.70645790       0.94528429      -1.41423125
H        0.00721251       2.39548369       0.17839479
H        0.37667591       0.89512270       1.63567990
H        0.87248183       0.65165708      -1.91450463
H        1.92117429      -1.47723828      -0.78575254
H        2.57261420       0.03913914       0.07247768
H        0.89726790      -0.13729036       1.91521174
16
Frame=12 idx=001877 GeodesicLength=1.2906255340391874 rxn_smarts="[C:1]([C@@:2]1([H:10])[C:3]([H:11])([H:12])[C@:4]1([C:5]([O:6][H:16])([H:14])[H:15])[H:13])([H:7])([H:8])[H:9]>>[C:1]([C:2]1([H:10])[C:3]([H:11])=[C:4]1[H:13])([H:7])([H:8])[H:9].[C:5](=[O:6])([H:14])[H:15].[H:12][H:16]"
C       -1.77807229      -0.67692931       0.02283142
C       -1.07434186       0.45376429      -0.68398931
C       -0.08171239       1.32043626       0.03020580
C        0.39973408       0.47824696      -0.95779350
C        1.82021636      -0.74254836       0.02867601
O        1.59825305      -1.23609961       1.19991292
H       -2.01481806      -1.50556502      -0.64814290
H       -1.18780445      -1.06733529       0.85105638
H       -2.71522111      -0.32899856       0.46503765
H       -1.70862467       0.94503445      -1.42146094
H        0.01701929       2.38761006       0.15243386
H        0.39450337       0.89848761       1.63638235
H        0.84831769       0.62848633      -1.92965351
H        2.01174721      -1.43658343      -0.79738268
H        2.55661854       0.07563900       0.12348643
H        0.91418523      -0.19364537       1.92840002
16
Frame=13 idx=001877 GeodesicLength=1.397822867454613 rxn_smarts="[C:1]([C@@:2]1([H:10])[C:3]([H:11])([H:12])[C@:4]1([C:5]([O:6][H:16])([H:14])[H:15])[H:13])([H:7])([H:8])[H:9]>>[C:1]([C:2]1([H:10])[C:3]([H:11])=[C:4]1[H:13])([H:7])([H:8])[H:9].[C:5](=[O:6])([H:14])[H:15].[H:12][H:16]"
C       -1.79999622      -0.66459849       0.02765448
C       -1.08218132       0.45097442      -0.68831218
C       -0.08141136       1.31026388       0.02540243
C        0.39143493       0.45808396      -0.96429753
C        1.83432500      -0.72893800       0.02628714
O        1.60629091      -1.26919799       1.18025890
H       -2.04335386      -1.49971475      -0.63279022
H       -1.21694911      -1.05023514       0.86326098
H       -2.73440916      -0.30237358       0.46422811
H       -1.71055156       0.94395011      -1.42937333
H        0.02720110       2.37899093       0.12515540
H        0.41207381       0.90281094       1.63648252
H        0.82419194       0.60338583      -1.94450245
H        2.10452401      -1.38847723      -0.80595800
H        2.53791625       0.11049609       0.17583607
H        0.93089464      -0.25542098       1.94066769
16
Frame=14 idx=001877 GeodesicLength=1.5049796258901038 rxn_smarts="[C:1]([C@@:2]1([H:10])[C:3]([H:11])([H:12])[C@:4]1([C:5]([O:6][H:16])([H:14])[H:15])[H:13])([H:7])([H:8])[H:9]>>[C:1]([C:2]1([H:10])[C:3]([H:11])=[C:4]1[H:13])([H:7])([H:8])[H:9].[C:5](=[O:6])([H:14])[H:15].[H:12][H:16]"
C       -1.82225841      -0.65142724       0.03315968
C       -1.09000418       0.44771566      -0.69291207
C       -0.08105428       1.29991661       0.01977593
C        0.38303613       0.43679232      -0.97076762
C        1.84916294      -0.71439054       0.02367488
O        1.61619001      -1.30347174       1.15733367
H       -2.07301279      -1.49319959      -0.61593339
H       -1.24628062      -1.03174820       0.87615989
H       -2.75345294      -0.27410047       0.46387385
H       -1.71221764       0.94185478      -1.43806579
H        0.03771639       2.36966555       0.09631747
H        0.42931247       0.90852880       1.63593379
H        0.80017276       0.57617870      -1.95903314
H        2.19879017      -1.33221888      -0.81099630
H        2.51640847       0.14335587       0.22975837
H        0.94749153      -0.32345160       1.95172080
16
Frame=15 idx=001877 GeodesicLength=1.612050791628872 rxn_smarts="[C:1]([C@@:2]1([H:10])[C:3]([H:11])([H:12])[C@:4]1([C:5]([O:6][H:16])([H:14])[H:15])[H:13])([H:7])([H:8])[H:9]>>[C:1]([C:2]1([H:10])[C:3]([H:11])=[C:4]1[H:13])([H:7])([H:8])[H:9].[C:5](=[O:6])([H:14])[H:15].[H:12][H:16]"
C       -1.84471812      -0.63733817       0.03944409
C       -1.09774221       0.44393542      -0.69779206
C       -0.08062311       1.28949165       0.01320772
C        0.37459059       0.41436868      -0.97715573
C        1.86470815      -0.69869452       0.02093029
O        1.62821204      -1.33905285       1.13063479
H       -2.10363657      -1.48597727      -0.59734028
H       -1.27564132      -1.01164402       0.88988487
H       -2.77220140      -0.24410532       0.46397798
H       -1.71357217       0.93852408      -1.44761519
H        0.04851010       2.35968579       0.06563746
H        0.44615661       0.91621719       1.63466429
H        0.77635712       0.54666568      -1.97319282
H        2.29366219      -1.26714571      -0.81187337
H        2.49192573       0.17385080       0.28556253
H        0.96401238      -0.39878145       1.96102544
16
Frame=16 idx=001877 GeodesicLength=1.71904492945473 rxn_smarts="[C:1]([C@@:2]1([H:10])[C:3]([H:11])([H:12])[C@:4]1([C:5]([O:6][H:16])([H:14])[H:15])[H:13])([H:7])([H:8])[H:9]>>[C:1]([C:2]1([H:10])[C:3]([H:11])=[C:4]1[H:13])([H:7])([H:8])[H:9].[C:5](=[O:6])([H:14])[H:15].[H:12][H:16]"
C       -1.86718953      -0.62223975       0.04664036
C       -1.10531846       0.43958746      -0.70295798
C       -0.08010302       1.27915058       0.00554723
C        0.36616225       0.39083754      -0.98341730
C        1.88090126      -0.68162031       0.01820454
O        1.64266154      -1.37610843       1.09955195
H       -2.13498019      -1.47803220      -0.57670652
H       -1.30482404      -0.98961494       0.90463580
H       -2.79048069      -0.21230994       0.46454246
H       -1.71457840       0.93369740      -1.45812313
H        0.05949051       2.34916936       0.03275516
H        0.46252123       0.92665741       1.63259646
H        0.75285705       0.51463636      -1.98693776
H        2.38816424      -1.19260567      -0.80789205
H        2.46421077       0.20149962       0.34369614
H        0.98050550      -0.48270448       1.96786464
