18
Frame=0 idx=001251 GeodesicLength=0.0 rxn_smarts="[C:1]([C:2]([C:3]([O:4][C:5]([C:6]([H:16])([H:17])[H:18])([H:14])[H:15])([H:12])[H:13])([H:10])[H:11])([H:7])([H:8])[H:9]>>[C:1]([C:2]([C:3](=[O+:4][C-:5]([H:14])[H:15])[H:12])([H:10])[H:11])([H:7])([H:8])[H:9].[C:6]([H:13])([H:16])([H:17])[H:18]"
C        2.43239954      -0.38396871      -0.55877688
C        1.40910978      -0.94833256       0.42088271
C        0.26305695       0.00379658       0.59425195
O       -0.82384344      -0.54442346       1.20301067
C       -1.90385830       0.17711085       1.22770495
C       -1.74525711       0.72843630      -1.10521847
H        3.26974562      -1.07033187      -0.69013664
H        2.83564000       0.56755312      -0.20393253
H        1.98064940      -0.20919975      -1.53729908
H        1.89859820      -1.16146959       1.37908148
H        1.01989992      -1.89921891       0.04764572
H        0.52154818       0.99403232       0.98310030
H       -0.61670929       0.42601989      -0.46867830
H       -1.82455552       1.23428160       1.45633649
H       -2.80558170      -0.36501845       1.48149715
H       -2.40600033       1.55709448      -0.86123900
H       -2.34107608      -0.13834302      -1.38545145
H       -1.16376586       1.03198118      -1.98277914
18
Frame=1 idx=001251 GeodesicLength=0.07793684993639338 rxn_smarts="[C:1]([C:2]([C:3]([O:4][C:5]([C:6]([H:16])([H:17])[H:18])([H:14])[H:15])([H:12])[H:13])([H:10])[H:11])([H:7])([H:8])[H:9]>>[C:1]([C:2]([C:3](=[O+:4][C-:5]([H:14])[H:15])[H:12])([H:10])[H:11])([H:7])([H:8])[H:9].[C:6]([H:13])([H:16])([H:17])[H:18]"
C        2.44721250      -0.38492477      -0.54860742
C        1.41219181      -0.95248306       0.41702100
C        0.27069105       0.00449686       0.59319174
O       -0.82105255      -0.54210015       1.19295427
C       -1.90208956       0.18464542       1.21592086
C       -1.76952753       0.72664599      -1.10445058
H        3.28112260      -1.07547490      -0.68039934
H        2.85476918       0.55933949      -0.17944281
H        2.00494184      -0.19554127      -1.52874563
H        1.89283493      -1.17894906       1.37652080
H        1.01981258      -1.89710045       0.03144538
H        0.53175940       0.98943336       0.99358305
H       -0.59947300       0.43653441      -0.48465655
H       -1.81851437       1.24074056       1.45026074
H       -2.79669883      -0.35504415       1.49887334
H       -2.43556134       1.55401595      -0.86856094
H       -2.36529554      -0.14221837      -1.37991440
H       -1.20712316       1.02798414      -1.99499352
18
Frame=2 idx=001251 GeodesicLength=0.15565362135943298 rxn_smarts="[C:1]([C:2]([C:3]([O:4][C:5]([C:6]([H:16])([H:17])[H:18])([H:14])[H:15])([H:12])[H:13])([H:10])[H:11])([H:7])([H:8])[H:9]>>[C:1]([C:2]([C:3](=[O+:4][C-:5]([H:14])[H:15])[H:12])([H:10])[H:11])([H:7])([H:8])[H:9].[C:6]([H:13])([H:16])([H:17])[H:18]"
C        2.46192220      -0.38589776      -0.53839499
C        1.41522171      -0.95650677       0.41298549
C        0.27826131       0.00526221       0.59202794
O       -0.81827355      -0.53973168       1.18271177
C       -1.90036068       0.19220098       1.20415142
C       -1.79381218       0.72474520      -1.10359228
H        3.29236594      -1.08060980      -0.67072629
H        2.87362240       0.55086359      -0.15484610
H        2.02929440      -0.18184851      -1.51989848
H        1.88687672      -1.19634691       1.37357540
H        1.01981184      -1.89466727       0.01499751
H        0.54186551       0.98458225       1.00434984
H       -0.58216473       0.44735448      -0.50072125
H       -1.81245994       1.24725215       1.44387158
H       -2.78728655      -0.34451809       1.51594726
H       -2.46538065       1.55052237      -0.87577972
H       -2.38948304      -0.14620532      -1.37430930
H       -1.25002070       1.02354889      -2.00634980
18
Frame=3 idx=001251 GeodesicLength=0.23318730792746287 rxn_smarts="[C:1]([C:2]([C:3]([O:4][C:5]([C:6]([H:16])([H:17])[H:18])([H:14])[H:15])([H:12])[H:13])([H:10])[H:11])([H:7])([H:8])[H:9]>>[C:1]([C:2]([C:3](=[O+:4][C-:5]([H:14])[H:15])[H:12])([H:10])[H:11])([H:7])([H:8])[H:9].[C:6]([H:13])([H:16])([H:17])[H:18]"
C        2.47654439      -0.38689412      -0.52812527
C        1.41821351      -0.96040272       0.40878395
C        0.28577899       0.00608941       0.59076162
O       -0.81550102      -0.53732011       1.17227070
C       -1.89866521       0.19977765       1.19238599
C       -1.81818249       0.72274494      -1.10264772
H        3.30349548      -1.08573829      -0.66109469
H        2.89220373       0.54212046      -0.13013580
H        2.05372770      -0.16814030      -1.51074248
H        1.88073231      -1.21365393       1.37025271
H        1.01992247      -1.89192084      -0.00168297
H        0.55185653       0.97947811       1.01536485
H       -0.56475446       0.45842995      -0.51688791
H       -1.80637940       1.25382077       1.43715728
H       -2.77734252      -0.33346017       1.53268999
H       -2.49546111       1.54665953      -0.88285526
H       -2.41371313      -0.15029212      -1.36862602
H       -1.29247578       1.01870177      -2.01686896
18
Frame=4 idx=001251 GeodesicLength=0.3105802712899765 rxn_smarts="[C:1]([C:2]([C:3]([O:4][C:5]([C:6]([H:16])([H:17])[H:18])([H:14])[H:15])([H:12])[H:13])([H:10])[H:11])([H:7])([H:8])[H:9]>>[C:1]([C:2]([C:3](=[O+:4][C-:5]([H:14])[H:15])[H:12])([H:10])[H:11])([H:7])([H:8])[H:9].[C:6]([H:13])([H:16])([H:17])[H:18]"
C        2.49110383      -0.38791624      -0.51777625
C        1.42117634      -0.96417381       0.40441314
C        0.29325596       0.00697613       0.58938917
O       -0.81273219      -0.53486273       1.16161071
C       -1.89699330       0.20738593       1.18061274
C       -1.84271811       0.72064433      -1.10161822
H        3.31453223      -1.09086738      -0.65148153
H        2.91053927       0.53309450      -0.10527045
H        2.07828176      -0.15439881      -1.50125169
H        1.87439634      -1.23088597       1.36654849
H        1.02015838      -1.88885568      -0.01861135
H        0.56172853       0.97411751       1.02659585
H       -0.54720429       0.46973127      -0.53317525
H       -1.80025276       1.26046203       1.43009636
H       -2.76685758      -0.32187055       1.54909710
H       -2.52582737       1.54245713      -0.88975802
H       -2.43806134      -0.15448768      -1.36284137
H       -1.33452569       1.01345001      -2.02657943
18
Frame=5 idx=001251 GeodesicLength=0.3878432874478972 rxn_smarts="[C:1]([C:2]([C:3]([O:4][C:5]([C:6]([H:16])([H:17])[H:18])([H:14])[H:15])([H:12])[H:13])([H:10])[H:11])([H:7])([H:8])[H:9]>>[C:1]([C:2]([C:3](=[O+:4][C-:5]([H:14])[H:15])[H:12])([H:10])[H:11])([H:7])([H:8])[H:9].[C:6]([H:13])([H:16])([H:17])[H:18]"
C        2.50561205      -0.38897003      -0.50733607
C        1.42412282      -0.96781992       0.39987906
C        0.30070325       0.00792197       0.58791468
O       -0.80996384      -0.53236118       1.15071057
C       -1.89533974       0.21502844       1.16882263
C       -1.86748374       0.71844818      -1.10050103
H        3.32549219      -1.09599612      -0.64186929
H        2.92862483       0.52377963      -0.08024854
H        2.10297338      -0.14064404      -1.49141105
H        1.86787790      -1.24803573       1.36246641
H        1.02054226      -1.88547252      -0.03577671
H        0.57147613       0.96849502       1.03802964
H       -0.52947453       0.48123281      -0.54958873
H       -1.79406804       1.26718306       1.42267649
H       -2.75583073      -0.30976508       1.56513762
H       -2.55648893       1.53795267      -0.89645930
H       -2.46258736      -0.15878962      -1.35694461
H       -1.37618790       1.00781246      -2.03550177
18
Frame=6 idx=001251 GeodesicLength=0.4650271050767728 rxn_smarts="[C:1]([C:2]([C:3]([O:4][C:5]([C:6]([H:16])([H:17])[H:18])([H:14])[H:15])([H:12])[H:13])([H:10])[H:11])([H:7])([H:8])[H:9]>>[C:1]([C:2]([C:3](=[O+:4][C-:5]([H:14])[H:15])[H:12])([H:10])[H:11])([H:7])([H:8])[H:9].[C:6]([H:13])([H:16])([H:17])[H:18]"
C        2.52009816      -0.39005950      -0.49677926
C        1.42705971      -0.97134441       0.39517247
C        0.30813426       0.00892707       0.58633400
O       -0.80719629      -0.52980897       1.13953822
C       -1.89369347       0.22272391       1.15699772
C       -1.89256391       0.71614684      -1.09929055
H        3.33639640      -1.10114080      -0.63223408
H        2.94649380       0.51415327      -0.05501815
H        2.12784986      -0.12685234      -1.48119031
H        1.86116464      -1.26513123       1.35799338
H        1.02108193      -1.88175854      -0.05320972
H        0.58110092       0.96260032       1.04965117
H       -0.51150750       0.49294963      -0.56614314
H       -1.78780195       1.27400739       1.41486494
H       -2.74424622      -0.29713070       1.58081119
H       -2.58750526       1.53315060      -0.90293842
H       -2.48734966      -0.16322977      -1.35090714
H       -1.41751543       1.00179723      -2.04365232
18
Frame=7 idx=001251 GeodesicLength=0.5421409782560547 rxn_smarts="[C:1]([C:2]([C:3]([O:4][C:5]([C:6]([H:16])([H:17])[H:18])([H:14])[H:15])([H:12])[H:13])([H:10])[H:11])([H:7])([H:8])[H:9]>>[C:1]([C:2]([C:3](=[O+:4][C-:5]([H:14])[H:15])[H:12])([H:10])[H:11])([H:7])([H:8])[H:9].[C:6]([H:13])([H:16])([H:17])[H:18]"
C        2.53457995      -0.39119166      -0.48608731
C        1.42999534      -0.97474827       0.39028937
C        0.31556039       0.00999256       0.58464535
O       -0.80442892      -0.52720072       1.12806486
C       -1.89204607       0.23048452       1.14512596
C       -1.91802776       0.71373125      -1.09797456
H        3.34726147      -1.10630734      -0.62255510
H        2.96415489       0.50419853      -0.02955285
H        2.15294399      -0.11302109      -1.47056301
H        1.85424963      -1.28218642       1.35311825
H        1.02179084      -1.87770385      -0.07092477
H        0.59060182       0.95642160       1.06145144
H       -0.49324728       0.50489384      -0.58284343
H       -1.78143773       1.28095262       1.40663589
H       -2.73209117      -0.28396478       1.59610133
H       -2.61891776       1.52806354      -0.90917292
H       -2.51239890      -0.16782883      -1.34470720
H       -1.45854272       0.99541449      -2.05105130
18
Frame=8 idx=001251 GeodesicLength=0.6192253978791645 rxn_smarts="[C:1]([C:2]([C:3]([O:4][C:5]([C:6]([H:16])([H:17])[H:18])([H:14])[H:15])([H:12])[H:13])([H:10])[H:11])([H:7])([H:8])[H:9]>>[C:1]([C:2]([C:3](=[O+:4][C-:5]([H:14])[H:15])[H:12])([H:10])[H:11])([H:7])([H:8])[H:9].[C:6]([H:13])([H:16])([H:17])[H:18]"
C        2.54907150      -0.39237684      -0.47524356
C        1.43293946      -0.97803679       0.38522743
C        0.32299768       0.01111963       0.58285764
O       -0.80166065      -0.52453590       1.11625142
C       -1.89039042       0.23833023       1.13319061
C       -1.94394854       0.71119587      -1.09654767
H        3.35810342      -1.11150321      -0.61281690
H        2.98160636       0.49389580      -0.00383527
H        2.17828150      -0.09916499      -1.45950533
H        1.84713499      -1.29921564       1.34782989
H        1.02268561      -1.87330292      -0.08893495
H        0.59998281       0.94994250       1.07344897
H       -0.47462345       0.51711836      -0.59968795
H       -1.77495221       1.28804432       1.39795923
H       -2.71936054      -0.27025524       1.61098366
H       -2.65080041       1.52268010      -0.91514573
H       -2.53775205      -0.17262722      -1.33832976
H       -1.49931505       0.98869192      -2.05770174
18
Frame=9 idx=001251 GeodesicLength=0.6962562298393252 rxn_smarts="[C:1]([C:2]([C:3]([O:4][C:5]([C:6]([H:16])([H:17])[H:18])([H:14])[H:15])([H:12])[H:13])([H:10])[H:11])([H:7])([H:8])[H:9]>>[C:1]([C:2]([C:3](=[O+:4][C-:5]([H:14])[H:15])[H:12])([H:10])[H:11])([H:7])([H:8])[H:9].[C:6]([H:13])([H:16])([H:17])[H:18]"
C        2.56359978      -0.39362766      -0.46422754
C        1.43589940      -0.98120707       0.37998007
C        0.33045214       0.01231253       0.58095765
O       -0.79889435      -0.52180221       1.10405320
C       -1.88872247       0.24628574       1.12116360
C       -1.97037045       0.70853513      -1.09500153
H        3.36894142      -1.11675157      -0.60299407
H        2.99887396       0.48321729       0.02216387
H        2.20390979      -0.08528956      -1.44799167
H        1.83981024      -1.31622237       1.34211566
H        1.02378026      -1.86854149      -0.10725036
H        0.60923191       0.94314796       1.08561874
H       -0.45556601       0.52967658      -0.61668524
H       -1.76833951       1.29530162       1.38879124
H       -2.70605629      -0.25603397       1.62547123
H       -2.68320221       1.51699905      -0.92083268
H       -2.56344076      -0.17764124      -1.33174006
H       -1.53990686       0.98164125      -2.06359212
18
Frame=10 idx=001251 GeodesicLength=0.7732746576734922 rxn_smarts="[C:1]([C:2]([C:3]([O:4][C:5]([C:6]([H:16])([H:17])[H:18])([H:14])[H:15])([H:12])[H:13])([H:10])[H:11])([H:7])([H:8])[H:9]>>[C:1]([C:2]([C:3](=[O+:4][C-:5]([H:14])[H:15])[H:12])([H:10])[H:11])([H:7])([H:8])[H:9].[C:6]([H:13])([H:16])([H:17])[H:18]"
C        2.57818175      -0.39494656      -0.45301149
C        1.43887863      -0.98426115       0.37453041
C        0.33794085       0.01357561       0.57894508
O       -0.79612803      -0.51898595       1.09143541
C       -1.88702647       0.25436387       1.10903519
C       -1.99739676       0.70571655      -1.09330429
H        3.37978639      -1.12205957      -0.59306745
H        3.01596820       0.47213417       0.04850302
H        2.22986857      -0.07136138      -1.43597531
H        1.83225332      -1.33324444       1.33594203
H        1.02508148      -1.86339291      -0.12592180
H        0.61835796       0.93601866       1.09797527
H       -0.43599750       0.54259212      -0.63383501
H       -1.76157429       1.30275314       1.37909049
H       -2.69212982      -0.24124535       1.63953275
H       -2.71619003       1.51101155      -0.92621468
H       -2.58953781      -0.18291825      -1.32491139
H       -1.58033643       0.97424990      -2.06874824
18
Frame=11 idx=001251 GeodesicLength=0.850279085225774 rxn_smarts="[C:1]([C:2]([C:3]([O:4][C:5]([C:6]([H:16])([H:17])[H:18])([H:14])[H:15])([H:12])[H:13])([H:10])[H:11])([H:7])([H:8])[H:9]>>[C:1]([C:2]([C:3](=[O+:4][C-:5]([H:14])[H:15])[H:12])([H:10])[H:11])([H:7])([H:8])[H:9].[C:6]([H:13])([H:16])([H:17])[H:18]"
C        2.59283440      -0.39634410      -0.44157308
C        1.44188359      -0.98720172       0.36886804
C        0.34547553       0.01491180       0.57681563
O       -0.79336029      -0.51607867       1.07835055
C       -1.88529393       0.26258517       1.09678435
C       -2.02509678       0.70272344      -1.09143721
H        3.39065599      -1.12743505      -0.58300857
H        3.03288755       0.46062665       0.07520998
H        2.25619498      -0.05739091      -1.42342754
H        1.82445210      -1.35030182       1.32928999
H        1.02660359      -1.85784357      -0.14497658
H        0.62735911       0.92853149       1.11053162
H       -0.41583814       0.55592809      -0.65112964
H       -1.75463530       1.31042557       1.36881685
H       -2.67755705      -0.22587336       1.65315632
H       -2.74983255       1.50470179      -0.93127331
H       -2.61607565      -0.18849483      -1.31782001
H       -1.62065714       0.96653004      -2.07317739
18
Frame=12 idx=001251 GeodesicLength=0.9272784608901524 rxn_smarts="[C:1]([C:2]([C:3]([O:4][C:5]([C:6]([H:16])([H:17])[H:18])([H:14])[H:15])([H:12])[H:13])([H:10])[H:11])([H:7])([H:8])[H:9]>>[C:1]([C:2]([C:3](=[O+:4][C-:5]([H:14])[H:15])[H:12])([H:10])[H:11])([H:7])([H:8])[H:9].[C:6]([H:13])([H:16])([H:17])[H:18]"
C        2.60758525      -0.39782733      -0.42987566
C        1.44491527      -0.99002764       0.36296724
C        0.35306903       0.01633019       0.57455863
O       -0.79059098      -0.51305751       1.06475038
C       -1.88351169       0.27097995       1.08438747
C       -2.05355376       0.69952564      -1.08936971
H        3.40156246      -1.13290040      -0.57279641
H        3.04966043       0.44864101       0.10236284
H        2.28295021      -0.04333781      -1.41028936
H        1.81637199      -1.36743213       1.32211162
H        1.02835247      -1.85185277      -0.16447660
H        0.63623451       0.92066376       1.12328596
H       -0.39499607       0.56974876      -0.66856937
H       -1.74750218       1.31835609       1.35790956
H       -2.66229527      -0.20988864       1.66634417
H       -2.78420795       1.49804378      -0.93599199
H       -2.64310945      -0.19442023      -1.31041614
H       -1.66093428       0.95845526      -2.07689262
18
Frame=13 idx=001251 GeodesicLength=1.0042511511011354 rxn_smarts="[C:1]([C:2]([C:3]([O:4][C:5]([C:6]([H:16])([H:17])[H:18])([H:14])[H:15])([H:12])[H:13])([H:10])[H:11])([H:7])([H:8])[H:9]>>[C:1]([C:2]([C:3](=[O+:4][C-:5]([H:14])[H:15])[H:12])([H:10])[H:11])([H:7])([H:8])[H:9].[C:6]([H:13])([H:16])([H:17])[H:18]"
C        2.62244531      -0.39941177      -0.41790058
C        1.44798228      -0.99274164       0.35682046
C        0.36073520       0.01783418       0.57217345
O       -0.78781676      -0.50991155       1.05058329
C       -1.88167198       0.27957117       1.07182356
C       -2.08282849       0.69610522      -1.08708170
H        3.41252264      -1.13846135      -0.56240090
H        3.06626931       0.43616302       0.12997491
H        2.31016352      -0.02923364      -1.39653618
H        1.80800552      -1.38464864       1.31438842
H        1.03034749      -1.84540772      -0.18444274
H        0.64498001       0.91238575       1.13625602
H       -0.37337813       0.58413812      -0.68613571
H       -1.74015702       1.32657301       1.34632438
H       -2.64632699      -0.19327929       1.67906715
H       -2.81938666       1.49101347      -0.94034693
H       -2.67066111      -0.20073089      -1.30267732
H       -1.70122415       0.95004254      -2.07988958
18
Frame=14 idx=001251 GeodesicLength=1.0812128936404286 rxn_smarts="[C:1]([C:2]([C:3]([O:4][C:5]([C:6]([H:16])([H:17])[H:18])([H:14])[H:15])([H:12])[H:13])([H:10])[H:11])([H:7])([H:8])[H:9]>>[C:1]([C:2]([C:3](=[O+:4][C-:5]([H:14])[H:15])[H:12])([H:10])[H:11])([H:7])([H:8])[H:9].[C:6]([H:13])([H:16])([H:17])[H:18]"
C        2.63744824      -0.40110825      -0.40559897
C        1.45108301      -0.99533943       0.35038914
C        0.36848796       0.01943577       0.56964251
O       -0.78503760      -0.50661051       1.03578804
C       -1.87975940       0.28839842       1.05905828
C       -2.11301517       0.69241855      -1.08453618
H        3.42354775      -1.14414932      -0.55180006
H        3.08274673       0.42310904       0.15815701
H        2.33791970      -0.01501623      -1.38207896
H        1.79930146      -1.40200363       1.30604701
H        1.03259713      -1.83844936      -0.20496347
H        0.65359382       0.90366949       1.14944069
H       -0.35087529       0.59919012      -0.70383070
H       -1.73257357       1.33512587       1.33397272
H       -2.62958527      -0.17598438       1.69133415
H       -2.85547573       1.48355742      -0.94431179
H       -2.69878491      -0.20749617      -1.29453810
H       -1.74161884       0.94125261      -2.08217133
18
Frame=15 idx=001251 GeodesicLength=1.1581514402400332 rxn_smarts="[C:1]([C:2]([C:3]([O:4][C:5]([C:6]([H:16])([H:17])[H:18])([H:14])[H:15])([H:12])[H:13])([H:10])[H:11])([H:7])([H:8])[H:9]>>[C:1]([C:2]([C:3](=[O+:4][C-:5]([H:14])[H:15])[H:12])([H:10])[H:11])([H:7])([H:8])[H:9].[C:6]([H:13])([H:16])([H:17])[H:18]"
C        2.65261336      -0.40293264      -0.39293522
C        1.45422128      -0.99782060       0.34364794
C        0.37634282       0.02114362       0.56695968
O       -0.78225011      -0.50313068       1.02030206
C       -1.87776318       0.29749721       1.04606151
C       -2.14418970       0.68843206      -1.08169892
H        3.43465056      -1.14998195      -0.54096710
H        3.09908865       0.40942816       0.18696789
H        2.36627494      -0.00067900      -1.36685478
H        1.79022885      -1.41953156       1.29703259
H        1.03511835      -1.83093576      -0.22609937
H        0.66206983       0.89447980       1.16285342
H       -0.32737456       0.61501268      -0.72163746
H       -1.72472949       1.34405828       1.32077814
H       -2.61202763      -0.15795955       1.70312664
H       -2.89256773       1.47562577      -0.94785776
H       -2.72751022      -0.21477477      -1.28594880
H       -1.78219600       0.93206894      -2.08373047
18
Frame=16 idx=001251 GeodesicLength=1.2350596003546366 rxn_smarts="[C:1]([C:2]([C:3]([O:4][C:5]([C:6]([H:16])([H:17])[H:18])([H:14])[H:15])([H:12])[H:13])([H:10])[H:11])([H:7])([H:8])[H:9]>>[C:1]([C:2]([C:3](=[O+:4][C-:5]([H:14])[H:15])[H:12])([H:10])[H:11])([H:7])([H:8])[H:9].[C:6]([H:13])([H:16])([H:17])[H:18]"
C        2.66796987      -0.40490057      -0.37985665
C        1.45739544      -1.00018042       0.33655095
C        0.38431524       0.02297088       0.56410732
O       -0.77945078      -0.49943671       1.00405483
C       -1.87566840       0.30691424       1.03279794
C       -2.17644061       0.68409493      -1.07853207
H        3.44584133      -1.15598570      -0.52987907
H        3.11530643       0.39503052       0.21652076
H        2.39531597       0.01382912      -1.35076150
H        1.78073216      -1.43728945       1.28725726
H        1.03792741      -1.82279700      -0.24795306
H        0.67040207       0.88477741       1.17649891
H       -0.30275382       0.63172638      -0.73954155
H       -1.71659571       1.35342974       1.30663766
H       -2.59358508      -0.13912898       1.71444705
H       -2.93076971       1.46715076      -0.95095345
H       -2.75688613      -0.22264340      -1.27683304
H       -1.82305567       0.92243828      -2.08456230
