15
Frame=0 idx=008043 GeodesicLength=0.0 rxn_smarts="[C:1]([C@@:2]1([H:11])[C:3]([H:12])([H:13])[N:4]([H:14])[C@:5]1([C:6]#[N:7])[H:15])([H:8])([H:9])[H:10]>>[C:1]([C:2]([C:3]([N:4]([C+:5]=[C:6]=[N-:7])[H:14])([H:12])[H:13])([H:11])[H:15])([H:8])([H:9])[H:10]"
C        1.65162744      -0.46121142      -0.41453496
C        0.67174394       0.27932866       0.44694000
C       -0.42334288       1.11558426      -0.23661503
N       -1.47000502       0.84561371       0.71909398
C       -1.31007267      -0.54790171       1.01619884
C       -1.34918602      -1.44062083      -0.12497947
N       -1.49827849      -2.25940292      -0.92696588
H        1.13827489      -1.14634419      -1.09239212
H        2.20298945       0.25824971      -1.02672648
H        2.37276921      -1.02155907       0.17963837
H        1.13145985       0.83834477       1.26691772
H       -0.62311530       0.72027558      -1.24300524
H       -0.16821428       2.17506569      -0.31135012
H       -2.42053800       1.14640188       0.56838767
H        0.09388793      -0.50182410       1.17939272
15
Frame=1 idx=008043 GeodesicLength=0.06615983078542365 rxn_smarts="[C:1]([C@@:2]1([H:11])[C:3]([H:12])([H:13])[N:4]([H:14])[C@:5]1([C:6]#[N:7])[H:15])([H:8])([H:9])[H:10]>>[C:1]([C:2]([C:3]([N:4]([C+:5]=[C:6]=[N-:7])[H:14])([H:12])[H:13])([H:11])[H:15])([H:8])([H:9])[H:10]"
C        1.65807765      -0.45447741      -0.41588484
C        0.67003818       0.27422476       0.44842346
C       -0.42032765       1.11199480      -0.24057047
N       -1.47102143       0.84208608       0.71259346
C       -1.31219453      -0.54635555       1.01211759
C       -1.36730939      -1.44638298      -0.12196219
N       -1.51996406      -2.26461219      -0.92337464
H        1.15115859      -1.13765247      -1.10052647
H        2.21021276       0.27079765      -1.02033061
H        2.37953879      -1.01625187       0.17670682
H        1.12934837       0.83998260       1.26401702
H       -0.62207002       0.71616134      -1.24593470
H       -0.16570246       2.17138877      -0.31549403
H       -2.41847151       1.15542732       0.57156185
H        0.09868669      -0.51633086       1.19865775
15
Frame=2 idx=008043 GeodesicLength=0.13235591818585546 rxn_smarts="[C:1]([C@@:2]1([H:11])[C:3]([H:12])([H:13])[N:4]([H:14])[C@:5]1([C:6]#[N:7])[H:15])([H:8])([H:9])[H:10]>>[C:1]([C:2]([C:3]([N:4]([C+:5]=[C:6]=[N-:7])[H:14])([H:12])[H:13])([H:11])[H:15])([H:8])([H:9])[H:10]"
C        1.66468782      -0.44755739      -0.41719768
C        0.66834541       0.26906429       0.44974983
C       -0.41729619       1.10834022      -0.24470275
N       -1.47201001       0.83844846       0.70591787
C       -1.31404231      -0.54492630       1.00791884
C       -1.38592871      -1.45203204      -0.11890646
N       -1.54233531      -2.26998391      -0.91942455
H        1.16444618      -1.12857572      -1.10886054
H        2.21763913       0.28361001      -1.01360441
H        2.38634228      -1.01085201       0.17386973
H        1.12702205       0.84138996       1.26114278
H       -0.62097233       0.71192283      -1.24902094
H       -0.16319777       2.16765294      -0.31978966
H       -2.41613575       1.16442754       0.57501663
H        0.10343550      -0.53092887       1.21789132
15
Frame=3 idx=008043 GeodesicLength=0.19859237094672552 rxn_smarts="[C:1]([C@@:2]1([H:11])[C:3]([H:12])([H:13])[N:4]([H:14])[C@:5]1([C:6]#[N:7])[H:15])([H:8])([H:9])[H:10]>>[C:1]([C:2]([C:3]([N:4]([C+:5]=[C:6]=[N-:7])[H:14])([H:12])[H:13])([H:11])[H:15])([H:8])([H:9])[H:10]"
C        1.67146830      -0.44044300      -0.41847084
C        0.66667084       0.26384640       0.45090999
C       -0.41424882       1.10460983      -0.24901895
N       -1.47297126       0.83469145       0.69906065
C       -1.31562558      -0.54362527       1.00358670
C       -1.40505392      -1.45756554      -0.11580690
N       -1.56543480      -2.27550572      -0.91510634
H        1.17816180      -1.11909817      -1.11739336
H        2.22527111       0.29669702      -1.00653661
H        2.39319237      -1.00534897       0.17112865
H        1.12447820       0.84256814       1.25829517
H       -0.61981953       0.70754525      -1.25227011
H       -0.16070667       2.16384863      -0.32424959
H       -2.41351020       1.17340640       0.57877073
H        0.10812816      -0.54562646       1.23710080
15
Frame=4 idx=008043 GeodesicLength=0.26487405770699624 rxn_smarts="[C:1]([C@@:2]1([H:11])[C:3]([H:12])([H:13])[N:4]([H:14])[C@:5]1([C:6]#[N:7])[H:15])([H:8])([H:9])[H:10]>>[C:1]([C:2]([C:3]([N:4]([C+:5]=[C:6]=[N-:7])[H:14])([H:12])[H:13])([H:11])[H:15])([H:8])([H:9])[H:10]"
C        1.67842992      -0.43312476      -0.41970148
C        0.66501944       0.25856958       0.45189455
C       -0.41118559       1.10079262      -0.25352723
N       -1.47390599       0.83080447       0.69201318
C       -1.31695356      -0.54246457       0.99910255
C       -1.42469577      -1.46298056      -0.11265915
N       -1.58930960      -2.28116754      -0.91040692
H        1.19233121      -1.10920016      -1.12612412
H        2.23311064       0.31007010      -0.99911311
H        2.40010145      -0.99973189       0.16848562
H        1.12171324       0.84351856       1.25547328
H       -0.61860782       0.70301365      -1.25568972
H       -0.15823532       2.15996592      -0.32888696
H       -2.41057019       1.18236722       0.58284636
H        0.11275793      -0.56043261       1.25629314
15
Frame=5 idx=008043 GeodesicLength=0.3312005607402857 rxn_smarts="[C:1]([C@@:2]1([H:11])[C:3]([H:12])([H:13])[N:4]([H:14])[C@:5]1([C:6]#[N:7])[H:15])([H:8])([H:9])[H:10]>>[C:1]([C:2]([C:3]([N:4]([C+:5]=[C:6]=[N-:7])[H:14])([H:12])[H:13])([H:11])[H:15])([H:8])([H:9])[H:10]"
C        1.68558253      -0.42559316      -0.42088699
C        0.66339532       0.25323119       0.45269457
C       -0.40810634       1.09687805      -0.25823585
N       -1.47481564       0.82677736       0.68476637
C       -1.31803602      -0.54145717       0.99444659
C       -1.44486480      -1.46827310      -0.10946111
N       -1.61400543      -2.28696323      -0.90531011
H        1.20697961      -1.09886134      -1.13505184
H        2.24115963       0.32374177      -0.99131962
H        2.40708122      -0.99399017       0.16594174
H        1.11872284       0.84424133       1.25267620
H       -0.61733309       0.69831381      -1.25928746
H       -0.15578897       2.15599545      -0.33371431
H       -2.40728916       1.19131393       0.58726636
H        0.11731830      -0.57535472       1.27547545
15
Frame=6 idx=008043 GeodesicLength=0.3975807234526715 rxn_smarts="[C:1]([C@@:2]1([H:11])[C:3]([H:12])([H:13])[N:4]([H:14])[C@:5]1([C:6]#[N:7])[H:15])([H:8])([H:9])[H:10]>>[C:1]([C:2]([C:3]([N:4]([C+:5]=[C:6]=[N-:7])[H:14])([H:12])[H:13])([H:11])[H:15])([H:8])([H:9])[H:10]"
C        1.69293707      -0.41783699      -0.42202260
C        0.66180317       0.24783038       0.45329984
C       -0.40501140       1.09285503      -0.26315527
N       -1.47570162       0.82259826       0.67730857
C       -1.31888157      -0.54061751       0.98959637
C       -1.46556976      -1.47344042      -0.10621040
N       -1.63957804      -2.29288429      -0.89979912
H        1.22213437      -1.08805946      -1.14417540
H        2.24941986       0.33772583      -0.98313846
H        2.41414385      -0.98811196       0.16350017
H        1.11550151       0.84473950       1.24990159
H       -0.61599029       0.69342997      -1.26307314
H       -0.15337462       2.15192726      -0.33874705
H       -2.40363387       1.20024896       0.59205979
H        0.12180136      -0.59040456       1.29465512
15
Frame=7 idx=008043 GeodesicLength=0.464016250871613 rxn_smarts="[C:1]([C@@:2]1([H:11])[C:3]([H:12])([H:13])[N:4]([H:14])[C@:5]1([C:6]#[N:7])[H:15])([H:8])([H:9])[H:10]>>[C:1]([C:2]([C:3]([N:4]([C+:5]=[C:6]=[N-:7])[H:14])([H:12])[H:13])([H:11])[H:15])([H:8])([H:9])[H:10]"
C        1.70050364      -0.40984477      -0.42310529
C        0.66024733       0.24236367       0.45370003
C       -0.40189995       1.08871312      -0.26829504
N       -1.47656527       0.81825548       0.66962788
C       -1.31949977      -0.53996002       0.98452614
C       -1.48681954      -1.47847760      -0.10290662
N       -1.66607929      -2.29892696      -0.89384743
H        1.23782236      -1.07676912      -1.15349333
H        2.25789139       0.35203712      -0.97455304
H        2.42130112      -0.98208555       0.16116143
H        1.11204336       0.84501121       1.24714843
H       -0.61457334       0.68834889      -1.26705629
H       -0.15099677       2.14775212      -0.34399746
H       -2.39957174       1.20917453       0.59725175
H        0.12619644      -0.60559212       1.31383884
15
Frame=8 idx=008043 GeodesicLength=0.5305132457779709 rxn_smarts="[C:1]([C@@:2]1([H:11])[C:3]([H:12])([H:13])[N:4]([H:14])[C@:5]1([C:6]#[N:7])[H:15])([H:8])([H:9])[H:10]>>[C:1]([C:2]([C:3]([N:4]([C+:5]=[C:6]=[N-:7])[H:14])([H:12])[H:13])([H:11])[H:15])([H:8])([H:9])[H:10]"
C        1.70829305      -0.40160363      -0.42413182
C        0.65873213       0.23682851       0.45388527
C       -0.39877079       1.08444185      -0.27366672
N       -1.47740881       0.81373533       0.66170893
C       -1.31989818      -0.53950009       0.97920877
C       -1.50862476      -1.48337954      -0.09954998
N       -1.69357077      -2.30509039      -0.88742831
H        1.25407163      -1.06496076      -1.16300549
H        2.26657493       0.36669138      -0.96554161
H        2.42856370      -0.97589923       0.15892727
H        1.10834190       0.84505761       1.24441396
H       -0.61307412       0.68305650      -1.27124840
H       -0.14866065       2.14346088      -0.34947964
H       -2.39506193       1.21808810       0.60287260
H        0.13049267      -0.62092652       1.33303516
15
Frame=9 idx=008043 GeodesicLength=0.597073946079362 rxn_smarts="[C:1]([C@@:2]1([H:11])[C:3]([H:12])([H:13])[N:4]([H:14])[C@:5]1([C:6]#[N:7])[H:15])([H:8])([H:9])[H:10]>>[C:1]([C:2]([C:3]([N:4]([C+:5]=[C:6]=[N-:7])[H:14])([H:12])[H:13])([H:11])[H:15])([H:8])([H:9])[H:10]"
C        1.71631417      -0.39310076      -0.42509798
C        0.65726458       0.23122169       0.45384376
C       -0.39562193       1.08003313      -0.27927745
N       -1.47823137       0.80902385       0.65354258
C       -1.32008603      -0.53925499       0.97360829
C       -1.53099262      -1.48814030      -0.09613763
N       -1.72210863      -2.31137612      -0.88050409
H        1.27090773      -1.05260662      -1.17270552
H        2.27546482       0.38170524      -0.95608976
H        2.43594469      -0.96953990       0.15679573
H        1.10439261       0.84487331       1.24169791
H       -0.61148410       0.67754401      -1.27565827
H       -0.14636987       2.13904688      -0.35520042
H       -2.39007211       1.22699228       0.60893551
H        0.13467807      -0.63642169       1.35224734
15
Frame=10 idx=008043 GeodesicLength=0.6637015391223243 rxn_smarts="[C:1]([C@@:2]1([H:11])[C:3]([H:12])([H:13])[N:4]([H:14])[C@:5]1([C:6]#[N:7])[H:15])([H:8])([H:9])[H:10]>>[C:1]([C:2]([C:3]([N:4]([C+:5]=[C:6]=[N-:7])[H:14])([H:12])[H:13])([H:11])[H:15])([H:8])([H:9])[H:10]"
C        1.72457827      -0.38432092      -0.42599781
C        0.65584654       0.22554069       0.45356424
C       -0.39245217       1.07547516      -0.28514464
N       -1.47903868       0.80410680       0.64510331
C       -1.32006800      -0.53924473       0.96769634
C       -1.55392981      -1.49275528      -0.09267978
N       -1.75177490      -2.31778025      -0.87304130
H        1.28836316      -1.03967223      -1.18259020
H        2.28456289       0.39709658      -0.94616904
H        2.44345529      -0.96299180       0.15477239
H        1.10018401       0.84446225       1.23899423
H       -0.60979261       0.67179513      -1.28030323
H       -0.14413011       2.13449966      -0.36117982
H       -2.38454291       1.23587498       0.61549080
H        0.13873903      -0.65208606       1.37148453
15
Frame=11 idx=008043 GeodesicLength=0.7303979344410862 rxn_smarts="[C:1]([C@@:2]1([H:11])[C:3]([H:12])([H:13])[N:4]([H:14])[C@:5]1([C:6]#[N:7])[H:15])([H:8])([H:9])[H:10]>>[C:1]([C:2]([C:3]([N:4]([C+:5]=[C:6]=[N-:7])[H:14])([H:12])[H:13])([H:11])[H:15])([H:8])([H:9])[H:10]"
C        1.73309548      -0.37524728      -0.42682503
C        0.65448204       0.21978303       0.45303373
C       -0.38926002       1.07075812      -0.29128315
N       -1.47983467       0.79896918       0.63636993
C       -1.31985046      -0.53949153       0.96143427
C       -1.57744076      -1.49722022      -0.08918274
N       -1.78264372      -2.32430317      -0.86499799
H        1.30646712      -1.02612532      -1.19265296
H        2.29386571       0.41288479      -0.93575534
H        2.45110667      -0.95623883       0.15286034
H        1.09570547       0.84382309       1.23629905
H       -0.60798863       0.66579770      -1.28519932
H       -0.14194651       2.12981065      -0.36743308
H       -2.37841506       1.24473064       0.62257961
H        0.14265732      -0.66793086       1.39075266
15
Frame=12 idx=008043 GeodesicLength=0.7971639354878519 rxn_smarts="[C:1]([C@@:2]1([H:11])[C:3]([H:12])([H:13])[N:4]([H:14])[C@:5]1([C:6]#[N:7])[H:15])([H:8])([H:9])[H:10]>>[C:1]([C:2]([C:3]([N:4]([C+:5]=[C:6]=[N-:7])[H:14])([H:12])[H:13])([H:11])[H:15])([H:8])([H:9])[H:10]"
C        1.74187647      -0.36586166      -0.42757345
C        0.65317477       0.21394457       0.45223933
C       -0.38604301       1.06587158      -0.29770862
N       -1.48062435       0.79359385       0.62731748
C       -1.31943983      -0.54001788       0.95478127
C       -1.60152785      -1.50153104      -0.08565861
N       -1.81480304      -2.33094775      -0.85632349
H        1.32525028      -1.01192720      -1.20288545
H        2.30336866       0.42909107      -0.92482170
H        2.45891130      -0.94926248       0.15106250
H        1.09094473       0.84295314       1.23360819
H       -0.60605830       0.65953962      -1.29036414
H       -0.13982335       2.12497105      -0.37397513
H       -2.37162166       1.25354859       0.63024417
H        0.14641517      -0.68396545       1.41005764
15
Frame=13 idx=008043 GeodesicLength=0.863999009472118 rxn_smarts="[C:1]([C@@:2]1([H:11])[C:3]([H:12])([H:13])[N:4]([H:14])[C@:5]1([C:6]#[N:7])[H:15])([H:8])([H:9])[H:10]>>[C:1]([C:2]([C:3]([N:4]([C+:5]=[C:6]=[N-:7])[H:14])([H:12])[H:13])([H:11])[H:15])([H:8])([H:9])[H:10]"
C        1.75093024      -0.35614529      -0.42823526
C        0.65192837       0.20802262       0.45116728
C       -0.38279838       1.06080694      -0.30443747
N       -1.48141263       0.78796373       0.61791937
C       -1.31884194      -0.54084857       0.94769017
C       -1.62619298      -1.50568216      -0.08211825
N       -1.84833669      -2.33771830      -0.84696243
H        1.34474226      -0.99703923      -1.21327742
H        2.31306430       0.44573514      -0.91334230
H        2.46687967      -0.94204519       0.14938204
H        1.08588870       0.84184984       1.23091717
H       -0.60398652       0.65301172      -1.29581660
H       -0.13776478       2.11997388      -0.38082024
H       -2.36409061       1.26231523       0.63852992
H        0.14999099      -0.70020037       1.42940403
15
Frame=14 idx=008043 GeodesicLength=0.9309105975780598 rxn_smarts="[C:1]([C@@:2]1([H:11])[C:3]([H:12])([H:13])[N:4]([H:14])[C@:5]1([C:6]#[N:7])[H:15])([H:8])([H:9])[H:10]>>[C:1]([C:2]([C:3]([N:4]([C+:5]=[C:6]=[N-:7])[H:14])([H:12])[H:13])([H:11])[H:15])([H:8])([H:9])[H:10]"
C        1.76026708      -0.34607683      -0.42880200
C        0.65074775       0.20201479       0.44980278
C       -0.37952233       1.05555477      -0.31148819
N       -1.48220549       0.78205723       0.60814415
C       -1.31806043      -0.54201102       0.94010818
C       -1.65143516      -1.50966938      -0.07858071
N       -1.88335759      -2.34461763      -0.83684435
H        1.36497510      -0.98141609      -1.22381586
H        2.32294516       0.46284273      -0.90128356
H        2.47502473      -0.93456439       0.14782388
H        1.08052321       0.84051188       1.22821962
H       -0.60175383       0.64620460      -1.30157912
H       -0.13577596       2.11481177      -0.38798337
H       -2.35573576       1.27100607       0.64748312
H        0.15336351      -0.71664851       1.44879545
15
Frame=15 idx=008043 GeodesicLength=0.9979020694607705 rxn_smarts="[C:1]([C@@:2]1([H:11])[C:3]([H:12])([H:13])[N:4]([H:14])[C@:5]1([C:6]#[N:7])[H:15])([H:8])([H:9])[H:10]>>[C:1]([C:2]([C:3]([N:4]([C+:5]=[C:6]=[N-:7])[H:14])([H:12])[H:13])([H:11])[H:15])([H:8])([H:9])[H:10]"
C        1.76989603      -0.33563414      -0.42926509
C        0.64963795       0.19591860       0.44813005
C       -0.37620991       1.05010783      -0.31887909
N       -1.48300826       0.77585376       0.59795943
C       -1.31709858      -0.54353434       0.93197664
C       -1.67725349      -1.51348667      -0.07506554
N       -1.91997310      -2.35165236      -0.82589047
H        1.38597961      -0.96500886      -1.23448582
H        2.33300051       0.48043670      -0.88861449
H        2.48335705      -0.92679922       0.14639161
H        1.07483334       0.83893467       1.22551005
H       -0.59933936       0.63911318      -1.30767456
H       -0.13386008       2.10947945      -0.39547716
H       -2.34646820       1.27959186       0.65714882
H        0.15650649      -0.73332046       1.46823563
15
Frame=16 idx=008043 GeodesicLength=1.0649805549810594 rxn_smarts="[C:1]([C@@:2]1([H:11])[C:3]([H:12])([H:13])[N:4]([H:14])[C@:5]1([C:6]#[N:7])[H:15])([H:8])([H:9])[H:10]>>[C:1]([C:2]([C:3]([N:4]([C+:5]=[C:6]=[N-:7])[H:14])([H:12])[H:13])([H:11])[H:15])([H:8])([H:9])[H:10]"
C        1.77982728      -0.32479183      -0.42961371
C        0.64860426       0.18973200       0.44613243
C       -0.37285573       1.04445814      -0.32663144
N       -1.48382793       0.76932990       0.58732715
C       -1.31595903      -0.54544990       0.92323136
C       -1.70364532      -1.51712898      -0.07159764
N       -1.95830695      -2.35882718      -0.81401210
H        1.40778775      -0.94776563      -1.24526923
H        2.34321835       0.49854317      -0.87530034
H        2.49188868      -0.91872461       0.14509128
H        1.06880149       0.83711460       1.22278202
H       -0.59671910       0.63173191      -1.31412938
H       -0.13202163       2.10397131      -0.40331681
H       -2.33618326       1.28803578       0.66757990
H        0.15939113      -0.75022868       1.48772653
