15
Frame=0 idx=009046 GeodesicLength=0.0 rxn_smarts="[N:1]([C@@:2]([C:3]#[N:4])([C:5]1([H:11])[C:6]([H:12])([H:13])[C:7]1([H:14])[H:15])[H:10])([H:8])[H:9]>>[N:1]([C:2](=[C:3]=[N:4][C:6]([C:5](=[C:7]([H:14])[H:15])[H:11])([H:12])[H:13])[H:10])([H:8])[H:9]"
N        2.05209158      -0.69488087      -0.24635050
C        0.98933488      -0.07085363       0.46090523
C        0.95792030       1.40284850       0.70735914
N        0.03000652       2.13761447       0.55865166
C       -0.41963987      -0.13480697      -0.41807776
C       -1.25469677       1.03271604      -0.00702910
C       -1.33780622      -1.18519624      -0.22718653
H        2.83674859      -0.92635461       0.34215345
H        2.37312531      -0.14045573      -1.02685977
H        0.83863311      -0.57440992       1.41808046
H       -0.09141403      -0.04900236      -1.45516834
H       -1.80723615       0.92731110       0.92130225
H       -1.82222816       1.53236372      -0.78494847
H       -1.57230650      -1.91145055      -0.99504011
H       -1.77253263      -1.34544298       0.75220840
15
Frame=1 idx=009046 GeodesicLength=0.09929342157937332 rxn_smarts="[N:1]([C@@:2]([C:3]#[N:4])([C:5]1([H:11])[C:6]([H:12])([H:13])[C:7]1([H:14])[H:15])[H:10])([H:8])[H:9]>>[N:1]([C:2](=[C:3]=[N:4][C:6]([C:5](=[C:7]([H:14])[H:15])[H:11])([H:12])[H:13])[H:10])([H:8])[H:9]"
N        2.07311119      -0.69065568      -0.23901356
C        1.00340447      -0.07337697       0.46560537
C        0.96404218       1.39543286       0.70466359
N        0.04203341       2.13785585       0.55721578
C       -0.42633080      -0.14286110      -0.42541433
C       -1.26482633       1.02017652      -0.00966607
C       -1.36176561      -1.17588161      -0.23082113
H        2.86147779      -0.90655512       0.35083455
H        2.38787647      -0.13691298      -1.02264216
H        0.85249178      -0.57688212       1.42267362
H       -0.09699592      -0.05607283      -1.46175114
H       -1.81406196       0.92554959       0.92178637
H       -1.83077133       1.52461388      -0.78592249
H       -1.61064488      -1.89451304      -1.00129727
H       -1.77904046      -1.34991724       0.75374888
15
Frame=2 idx=009046 GeodesicLength=0.1985328024954708 rxn_smarts="[N:1]([C@@:2]([C:3]#[N:4])([C:5]1([H:11])[C:6]([H:12])([H:13])[C:7]1([H:14])[H:15])[H:10])([H:8])[H:9]>>[N:1]([C:2](=[C:3]=[N:4][C:6]([C:5](=[C:7]([H:14])[H:15])[H:11])([H:12])[H:13])[H:10])([H:8])[H:9]"
N        2.09434017      -0.68641931      -0.23148772
C        1.01771823      -0.07594057       0.47045712
C        0.97031542       1.38796222       0.70173707
N        0.05450270       2.13825736       0.55561372
C       -0.43347294      -0.15106640      -0.43265627
C       -1.27516746       1.00762553      -0.01218266
C       -1.38578406      -1.16661059      -0.23447044
H        2.88630296      -0.88636130       0.35953371
H        2.40254633      -0.13370411      -1.01852489
H        0.86658058      -0.57920863       1.42750581
H       -0.10296666      -0.06322256      -1.46821766
H       -1.82085287       0.92387753       0.92240656
H       -1.83941094       1.51702927      -0.78671089
H       -1.64854253      -1.87750163      -1.00750625
H       -1.78610891      -1.35471682       0.75450277
15
Frame=3 idx=009046 GeodesicLength=0.29772932860480295 rxn_smarts="[N:1]([C@@:2]([C:3]#[N:4])([C:5]1([H:11])[C:6]([H:12])([H:13])[C:7]1([H:14])[H:15])[H:10])([H:8])[H:9]>>[N:1]([C:2](=[C:3]=[N:4][C:6]([C:5](=[C:7]([H:14])[H:15])[H:11])([H:12])[H:13])[H:10])([H:8])[H:9]"
N        2.11579135      -0.68217262      -0.22376327
C        1.03229199      -0.07854042       0.47546349
C        0.97673708       1.38043433       0.69856759
N        0.06742852       2.13882176       0.55383025
C       -0.44107813      -0.15941438      -0.43981114
C       -1.28573493       0.99506462      -0.01457092
C       -1.40985434      -1.15739679      -0.23814003
H        2.91122579      -0.86576302       0.36825256
H        2.41715311      -0.13085056      -1.01449872
H        0.88090904      -0.58137695       1.43258261
H       -0.10932931      -0.07043796      -1.47457081
H       -1.82760859       0.92227461       0.92316942
H       -1.84816132       1.50961259      -0.78729987
H       -1.68601360      -1.86041874      -1.01369127
H       -1.79375666      -1.35983648       0.75448011
15
Frame=4 idx=009046 GeodesicLength=0.3968939230155529 rxn_smarts="[N:1]([C@@:2]([C:3]#[N:4])([C:5]1([H:11])[C:6]([H:12])([H:13])[C:7]1([H:14])[H:15])[H:10])([H:8])[H:9]>>[N:1]([C:2](=[C:3]=[N:4][C:6]([C:5](=[C:7]([H:14])[H:15])[H:11])([H:12])[H:13])[H:10])([H:8])[H:9]"
N        2.13748076      -0.67791701      -0.21582613
C        1.04714229      -0.08117291       0.48062938
C        0.98330401       1.37284513       0.69514297
N        0.08082486       2.13954973       0.55184909
C       -0.44915691      -0.16789713      -0.44688863
C       -1.29654290       0.98249293      -0.01682351
C       -1.43397184      -1.14825519      -0.24183665
H        2.93625717      -0.84473749       0.37699219
H        2.43171498      -0.12837753      -1.01055283
H        0.89548659      -0.58337539       1.43791147
H       -0.11608564      -0.07770561      -1.48081460
H       -1.83432802       0.92071767       0.92407996
H       -1.85703492       1.50236484      -0.78767549
H       -1.72309260      -1.84326085      -1.01988348
H       -1.80199785      -1.36527121       0.75369627
15
Frame=5 idx=009046 GeodesicLength=0.4960348601477622 rxn_smarts="[N:1]([C@@:2]([C:3]#[N:4])([C:5]1([H:11])[C:6]([H:12])([H:13])[C:7]1([H:14])[H:15])[H:10])([H:8])[H:9]>>[N:1]([C:2](=[C:3]=[N:4][C:6]([C:5](=[C:7]([H:14])[H:15])[H:11])([H:12])[H:13])[H:10])([H:8])[H:9]"
N        2.15942070      -0.67365131      -0.20766693
C        1.06228540      -0.08383565       0.48595619
C        0.99001346       1.36519025       0.69145076
N        0.09470871       2.14044345       0.54965427
C       -0.45772253      -0.17650489      -0.45389854
C       -1.30760806       0.96991117      -0.01893263
C       -1.45813323      -1.13919739      -0.24556782
H        2.96139725      -0.82327449       0.38575643
H        2.44625508      -0.12630726      -1.00667590
H        0.91032234      -0.58519377       1.44349488
H       -0.12324022      -0.08500928      -1.48695485
H       -1.84101122       0.91918571       0.92514723
H       -1.86604916       1.49528978      -0.78782386
H       -1.75978785      -1.82603124      -1.02610226
H       -1.81085068      -1.37101510       0.75216303
15
Frame=6 idx=009046 GeodesicLength=0.5951601568794223 rxn_smarts="[N:1]([C@@:2]([C:3]#[N:4])([C:5]1([H:11])[C:6]([H:12])([H:13])[C:7]1([H:14])[H:15])[H:10])([H:8])[H:9]>>[N:1]([C:2](=[C:3]=[N:4][C:6]([C:5](=[C:7]([H:14])[H:15])[H:11])([H:12])[H:13])[H:10])([H:8])[H:9]"
N        2.18163176      -0.66937838      -0.19926973
C        1.07773822      -0.08652621       0.49145150
C        0.99686135       1.35746153       0.68747840
N        0.10909751       2.14150022       0.54722565
C       -0.46678675      -0.18522806      -0.46085292
C       -1.31894391       0.95731913      -0.02089059
C       -1.48233932      -1.13023620      -0.24933914
H        2.98666539      -0.80134202       0.39454572
H        2.46079004      -0.12466772      -1.00285606
H        0.92542433      -0.58682104       1.44934223
H       -0.13079647      -0.09233390      -1.49299825
H       -1.84765791       0.91765342       0.92637753
H       -1.87521673       1.48838906      -0.78772813
H       -1.79613648      -1.80872690      -1.03237528
H       -1.82033104      -1.37706292       0.74988906
15
Frame=7 idx=009046 GeodesicLength=0.6942730958302418 rxn_smarts="[N:1]([C@@:2]([C:3]#[N:4])([C:5]1([H:11])[C:6]([H:12])([H:13])[C:7]1([H:14])[H:15])[H:10])([H:8])[H:9]>>[N:1]([C:2](=[C:3]=[N:4][C:6]([C:5](=[C:7]([H:14])[H:15])[H:11])([H:12])[H:13])[H:10])([H:8])[H:9]"
N        2.20413167      -0.66509640      -0.19062238
C        1.09351648      -0.08924101       0.49711940
C        1.00384318       1.34965305       0.68321438
N        0.12400781       2.14271924       0.54454693
C       -0.47636067      -0.19405278      -0.46776752
C       -1.33056592       0.94471719      -0.02269177
C       -1.50660055      -1.12137952      -0.25316267
H        3.01205837      -0.77893208       0.40335716
H        2.47534576      -0.12348022      -0.99907790
H        0.94079935      -0.58824707       1.45545829
H       -0.13875820      -0.09965886      -1.49895482
H       -1.85427046       0.91609312       0.92777699
H       -1.88455216       1.48166840      -0.78737282
H       -1.83214819      -1.79135580      -1.03871563
H       -1.83044646      -1.38340727       0.74689236
15
Frame=8 idx=009046 GeodesicLength=0.7933792316768695 rxn_smarts="[N:1]([C@@:2]([C:3]#[N:4])([C:5]1([H:11])[C:6]([H:12])([H:13])[C:7]1([H:14])[H:15])[H:10])([H:8])[H:9]>>[N:1]([C:2](=[C:3]=[N:4][C:6]([C:5](=[C:7]([H:14])[H:15])[H:11])([H:12])[H:13])[H:10])([H:8])[H:9]"
N        2.22694031      -0.66080071      -0.18171091
C        1.10964067      -0.09197648       0.50296437
C        1.01095490       1.34175561       0.67864343
N        0.13946108       2.14409884       0.54160074
C       -0.48645790      -0.20296913      -0.47465510
C       -1.34248928       0.93210565      -0.02432891
C       -1.53091407      -1.11263761      -0.25704272
H        3.03757881      -0.75602529       0.41218935
H        2.48995040      -0.12277046      -0.99532577
H        0.95645600      -0.58946055       1.46184890
H       -0.14713183      -0.10696810      -1.50483245
H       -1.86084807       0.91448293       0.92935727
H       -1.89407630       1.47512788      -0.78674110
H       -1.86784495      -1.77392064      -1.04514083
H       -1.84121977      -1.39004195       0.74317373
15
Frame=9 idx=009046 GeodesicLength=0.8924834930343212 rxn_smarts="[N:1]([C@@:2]([C:3]#[N:4])([C:5]1([H:11])[C:6]([H:12])([H:13])[C:7]1([H:14])[H:15])[H:10])([H:8])[H:9]>>[N:1]([C:2](=[C:3]=[N:4][C:6]([C:5](=[C:7]([H:14])[H:15])[H:11])([H:12])[H:13])[H:10])([H:8])[H:9]"
N        2.25007167      -0.65648893      -0.17252522
C        1.12612727      -0.09472755       0.50898882
C        1.01819157       1.33376289       0.67375160
N        0.15547840       2.14563892       0.53836750
C       -0.49709276      -0.21195771      -0.48153686
C       -1.35473334       0.91948459      -0.02579704
C       -1.55530044      -1.10401585      -0.26099729
H        3.06322310      -0.73262505       0.42105222
H        2.50463323      -0.12255994      -0.99158283
H        0.97240040      -0.59044982       1.46851785
H       -0.15592616      -0.11423183      -1.51064714
H       -1.86739384       0.91279218       0.93112631
H       -1.90380780       1.46877778      -0.78581419
H       -1.90323060      -1.75643757      -1.05166183
H       -1.85264069      -1.39696211       0.73875811
15
Frame=10 idx=009046 GeodesicLength=0.9915874864766705 rxn_smarts="[N:1]([C@@:2]([C:3]#[N:4])([C:5]1([H:11])[C:6]([H:12])([H:13])[C:7]1([H:14])[H:15])[H:10])([H:8])[H:9]>>[N:1]([C:2](=[C:3]=[N:4][C:6]([C:5](=[C:7]([H:14])[H:15])[H:11])([H:12])[H:13])[H:10])([H:8])[H:9]"
N        2.27356128      -0.65216316      -0.16303827
C        1.14299516      -0.09749623       0.51520868
C        1.02554749       1.32565651       0.66852441
N        0.17208271       2.14732712       0.53482069
C       -0.50827799      -0.22101173      -0.48842772
C       -1.36730960       0.90685100      -0.02708870
C       -1.57976832      -1.09552340      -0.26503106
H        3.08902993      -0.70866646       0.42993079
H        2.51941424      -0.12288292      -0.98782761
H        0.98864083      -0.59120592       1.47548108
H       -0.16514460      -0.12143737      -1.51640810
H       -1.87390898       0.91099164       0.93309206
H       -1.91375681       1.46262052      -0.78457350
H       -1.93837314      -1.73889854      -1.05831010
H       -1.86473220      -1.40416106       0.73364733
15
Frame=11 idx=009046 GeodesicLength=1.090693177808565 rxn_smarts="[N:1]([C@@:2]([C:3]#[N:4])([C:5]1([H:11])[C:6]([H:12])([H:13])[C:7]1([H:14])[H:15])[H:10])([H:8])[H:9]>>[N:1]([C:2](=[C:3]=[N:4][C:6]([C:5](=[C:7]([H:14])[H:15])[H:11])([H:12])[H:13])[H:10])([H:8])[H:9]"
N        2.29743156      -0.64781560      -0.15323398
C        1.16026713      -0.10027756       0.52163118
C        1.03301643       1.31742394       0.66294469
N        0.18929894       2.14915707       0.53093587
C       -0.52002899      -0.23011712      -0.49534693
C       -1.38023488       0.89420339      -0.02819691
C       -1.60432942      -1.08716535      -0.26915379
H        3.11499448      -0.68413435       0.43882349
H        2.53432783      -0.12376716      -0.98403812
H        1.00518760      -0.59171411       1.48274704
H       -0.17479736      -0.12856135      -1.52212902
H       -1.88039414       0.90905090       0.93526702
H       -1.92394367       1.45666023      -0.78299811
H       -1.97329233      -1.72130861      -1.06509737
H       -1.87750316      -1.41163433       0.72784496
15
Frame=12 idx=009046 GeodesicLength=1.1898017189134344 rxn_smarts="[N:1]([C@@:2]([C:3]#[N:4])([C:5]1([H:11])[C:6]([H:12])([H:13])[C:7]1([H:14])[H:15])[H:10])([H:8])[H:9]>>[N:1]([C:2](=[C:3]=[N:4][C:6]([C:5](=[C:7]([H:14])[H:15])[H:11])([H:12])[H:13])[H:10])([H:8])[H:9]"
N        2.32171657      -0.64344217      -0.14308588
C        1.17796332      -0.10307011       0.52826991
C        1.04059144       1.30904696       0.65699543
N        0.20715264       2.15111681       0.52668752
C       -0.53235980      -0.23926141      -0.50231735
C       -1.39352418       0.88153865      -0.02911670
C       -1.62900593      -1.07894613      -0.27337787
H        3.14113149      -0.65898671       0.44771735
H        2.54940377      -0.12524697      -0.98018808
H        1.02204869      -0.59196219       1.49032972
H       -0.18489118      -0.13558144      -1.52782684
H       -1.88685160       0.90693592       0.93766022
H       -1.93438343       1.45090305      -0.78106658
H       -2.00803361      -1.70366551      -1.07203868
H       -1.89095819      -1.41937876       0.72135783
15
Frame=13 idx=009046 GeodesicLength=1.2889096873462833 rxn_smarts="[N:1]([C@@:2]([C:3]#[N:4])([C:5]1([H:11])[C:6]([H:12])([H:13])[C:7]1([H:14])[H:15])[H:10])([H:8])[H:9]>>[N:1]([C:2](=[C:3]=[N:4][C:6]([C:5](=[C:7]([H:14])[H:15])[H:11])([H:12])[H:13])[H:10])([H:8])[H:9]"
N        2.34643988      -0.63903013      -0.13257779
C        1.19610744      -0.10586568       0.53513278
C        1.04826445       1.30051108       0.65065638
N        0.22567152       2.15319810       0.52205126
C       -0.54528845      -0.24842687      -0.50936121
C       -1.40719559       0.86885689      -0.02984277
C       -1.65381556      -1.07086716      -0.27771733
H        3.16742682      -0.63322586       0.45661036
H        2.56468181      -0.12734706      -0.97625367
H        1.03923494      -0.59193202       1.49823935
H       -0.19544001      -0.14246862      -1.53351912
H       -1.89328496       0.90461319       0.94028443
H       -1.94509970       1.44535496      -0.77875598
H       -2.04260351      -1.68598124      -1.07913674
H       -1.90509908      -1.42738958       0.71419006
15
Frame=14 idx=009046 GeodesicLength=1.3880185032622558 rxn_smarts="[N:1]([C@@:2]([C:3]#[N:4])([C:5]1([H:11])[C:6]([H:12])([H:13])[C:7]1([H:14])[H:15])[H:10])([H:8])[H:9]>>[N:1]([C:2](=[C:3]=[N:4][C:6]([C:5](=[C:7]([H:14])[H:15])[H:11])([H:12])[H:13])[H:10])([H:8])[H:9]"
N        2.37164317      -0.63457470      -0.12167766
C        1.21472216      -0.10866540       0.54223770
C        1.05602849       1.29178942       0.64390546
N        0.24488862       2.15538080       0.51699436
C       -0.55883124      -0.25760402      -0.51650407
C       -1.42126375       0.85615137      -0.03036849
C       -1.67878546      -1.06293261      -0.28218380
H        3.19390832      -0.60677756       0.46549129
H        2.58019253      -0.13011392      -0.97220357
H        1.05675587      -0.59161004       1.50649441
H       -0.20645443      -0.14920225      -1.53922578
H       -1.89969428       0.90204367       0.94315106
H       -1.95610614       1.44002255      -0.77603996
H       -2.07707072      -1.66823915      -1.08641070
H       -1.91993312      -1.43566817       0.70633975
15
Frame=15 idx=009046 GeodesicLength=1.4871262154086322 rxn_smarts="[N:1]([C@@:2]([C:3]#[N:4])([C:5]1([H:11])[C:6]([H:12])([H:13])[C:7]1([H:14])[H:15])[H:10])([H:8])[H:9]>>[N:1]([C:2](=[C:3]=[N:4][C:6]([C:5](=[C:7]([H:14])[H:15])[H:11])([H:12])[H:13])[H:10])([H:8])[H:9]"
N        2.39735853      -0.63006114      -0.11036162
C        1.23383366      -0.11146284       0.54959758
C        1.06387503       1.28285922       0.63671761
N        0.26483819       2.15764847       0.51148546
C       -0.57300849      -0.26677797      -0.52377314
C       -1.43574654       0.84341940      -0.03068793
C       -1.70394280      -1.05514087      -0.28678977
H        3.22057015      -0.57961774       0.47435410
H        2.59597806      -0.13358264      -0.96800771
H        1.07462363      -0.59097611       1.51511010
H       -0.21795073      -0.15575464      -1.54496698
H       -1.90608160       0.89918875       0.94627606
H       -1.96742481       1.43491371      -0.77289031
H       -2.11145909      -1.65044248      -1.09386866
H       -1.93546318      -1.44421312       0.69780523
15
Frame=16 idx=009046 GeodesicLength=1.5862296819141635 rxn_smarts="[N:1]([C@@:2]([C:3]#[N:4])([C:5]1([H:11])[C:6]([H:12])([H:13])[C:7]1([H:14])[H:15])[H:10])([H:8])[H:9]>>[N:1]([C:2](=[C:3]=[N:4][C:6]([C:5](=[C:7]([H:14])[H:15])[H:11])([H:12])[H:13])[H:10])([H:8])[H:9]"
N        2.42362820      -0.62547635      -0.09859366
C        1.25346875      -0.11425312       0.55723198
C        1.07179520       1.27369128       0.62906605
N        0.28555626       2.15997801       0.50548995
C       -0.58783974      -0.27593621      -0.53119774
C       -1.45065962       0.83065452      -0.03079414
C       -1.72931811      -1.04749280      -0.29155017
H        3.24742017      -0.55168699       0.48318100
H        2.61207632      -0.13780691      -0.96362915
H        1.09285196      -0.59000751       1.52410793
H       -0.22994478      -0.16209888      -1.55076684
H       -1.91244788       0.89600397       0.94967427
H       -1.97907302       1.43003663      -0.76927623
H       -2.14582151      -1.63257694      -1.10152066
H       -1.95169222      -1.45302869       0.68857741
