13
Frame=0 idx=000098 GeodesicLength=0.0 rxn_smarts="[C:1]1([H:7])([H:8])[C@:2]2([H:9])[C@:3]3([H:10])[C:4]([H:11])([H:12])[C@@:5]1([H:13])[N:6]23>>[C:1]1([H:7])([H:8])[C:2][C@@:3]2([H:10])[C:4]([H:11])([H:12])[C@:5]1([H:13])[N:6]2[H:9]"
C        0.40155620       1.24776197       0.28820927
C        1.39094140       0.07539158       0.08528133
C        0.49674682      -1.12791405       0.08934328
C       -0.91693626      -0.75152048       0.50683518
C       -0.67959566       0.45082372      -0.40938072
N        0.30929411      -0.42462478      -1.20176850
H        0.72567107       2.13145089      -0.26140275
H        0.20565409       1.52635362       1.32589323
H        1.41952107       0.07719687      -1.24048125
H        0.91488511      -2.12719131       0.10845225
H       -1.11546055      -0.55489481       1.56086242
H       -1.65397723      -1.44277584       0.10003632
H       -1.49830023       0.91994267      -0.95188006
13
Frame=1 idx=000098 GeodesicLength=0.044350569428977596 rxn_smarts="[C:1]1([H:7])([H:8])[C@:2]2([H:9])[C@:3]3([H:10])[C:4]([H:11])([H:12])[C@@:5]1([H:13])[N:6]23>>[C:1]1([H:7])([H:8])[C:2][C@@:3]2([H:10])[C:4]([H:11])([H:12])[C@:5]1([H:13])[N:6]2[H:9]"
C        0.39972680       1.24742405       0.29003283
C        1.38664450       0.07577033       0.09237517
C        0.49579390      -1.12848832       0.08733441
C       -0.91740309      -0.75130802       0.50772871
C       -0.68098239       0.44999563      -0.41039910
N        0.30709096      -0.42302243      -1.20314167
H        0.72643192       2.12835370      -0.26295397
H        0.20448993       1.53215359       1.32618619
H        1.42994634       0.07502077      -1.24460979
H        0.91444004      -2.12756937       0.10445426
H       -1.11278848      -0.55546053       1.56248978
H       -1.65359875      -1.44380245       0.10150782
H       -1.49979168       0.92093305      -0.95100463
13
Frame=2 idx=000098 GeodesicLength=0.08878206188145724 rxn_smarts="[C:1]1([H:7])([H:8])[C@:2]2([H:9])[C@:3]3([H:10])[C:4]([H:11])([H:12])[C@@:5]1([H:13])[N:6]23>>[C:1]1([H:7])([H:8])[C:2][C@@:3]2([H:10])[C:4]([H:11])([H:12])[C@:5]1([H:13])[N:6]2[H:9]"
C        0.39790906       1.24710048       0.29182328
C        1.38231250       0.07609510       0.09946268
C        0.49481877      -1.12904007       0.08528804
C       -0.91788466      -0.75111370       0.50864685
C       -0.68240246       0.44911721      -0.41140847
N        0.30483012      -0.42139006      -1.20455377
H        0.72718406       2.12521851      -0.26454079
H        0.20337930       1.53802306       1.32641360
H        1.44059817       0.07291405      -1.24863302
H        0.91397430      -2.12797091       0.10044716
H       -1.11015289      -0.55602498       1.56409534
H       -1.65320471      -1.44487956       0.10298167
H       -1.50136156       0.92195090      -0.95002257
13
Frame=3 idx=000098 GeodesicLength=0.1328263220744381 rxn_smarts="[C:1]1([H:7])([H:8])[C@:2]2([H:9])[C@:3]3([H:10])[C:4]([H:11])([H:12])[C@@:5]1([H:13])[N:6]23>>[C:1]1([H:7])([H:8])[C:2][C@@:3]2([H:10])[C:4]([H:11])([H:12])[C@:5]1([H:13])[N:6]2[H:9]"
C        0.39593978       1.24677749       0.29374502
C        1.37790762       0.07644872       0.10655053
C        0.49387889      -1.12947510       0.08324007
C       -0.91839869      -0.75090200       0.50944234
C       -0.68386491       0.44836425      -0.41240947
N        0.30255957      -0.41971745      -1.20593173
H        0.72808871       2.12202486      -0.26603956
H        0.20222930       1.54388444       1.32657749
H        1.45118926       0.07044360      -1.25279605
H        0.91367811      -2.12818080       0.09646307
H       -1.10747091      -0.55669107       1.56577233
H       -1.65283434      -1.44593547       0.10443778
H       -1.50290239       0.92295855      -0.94905183
13
Frame=4 idx=000098 GeodesicLength=0.17691956047461788 rxn_smarts="[C:1]1([H:7])([H:8])[C@:2]2([H:9])[C@:3]3([H:10])[C:4]([H:11])([H:12])[C@@:5]1([H:13])[N:6]23>>[C:1]1([H:7])([H:8])[C:2][C@@:3]2([H:10])[C:4]([H:11])([H:12])[C@:5]1([H:13])[N:6]2[H:9]"
C        0.39406264       1.24647780       0.29560058
C        1.37349537       0.07681888       0.11364097
C        0.49293787      -1.12997089       0.08121938
C       -0.91889280      -0.75070777       0.51034658
C       -0.68531738       0.44755961      -0.41336907
N        0.30030302      -0.41804135      -1.20731688
H        0.72892500       2.11878799      -0.26753447
H        0.20106912       1.54975651       1.32681543
H        1.46187844       0.06805081      -1.25703228
H        0.91330352      -2.12842056       0.09247001
H       -1.10483009      -0.55730202       1.56737218
H       -1.65242813      -1.44698861       0.10588196
H       -1.50450659       0.92397960      -0.94809440
13
Frame=5 idx=000098 GeodesicLength=0.2216363436042418 rxn_smarts="[C:1]1([H:7])([H:8])[C@:2]2([H:9])[C@:3]3([H:10])[C:4]([H:11])([H:12])[C@@:5]1([H:13])[N:6]23>>[C:1]1([H:7])([H:8])[C:2][C@@:3]2([H:10])[C:4]([H:11])([H:12])[C@:5]1([H:13])[N:6]2[H:9]"
C        0.39210670       1.24619706       0.29747683
C        1.36893385       0.07714907       0.12076768
C        0.49199029      -1.13034869       0.07916937
C       -0.91941554      -0.75054674       0.51123373
C       -0.68686131       0.44677809      -0.41427093
N        0.29790968      -0.41631469      -1.20871036
H        0.72978172       2.11549272      -0.26902443
H        0.20003746       1.55573765       1.32691276
H        1.47296791       0.06548583      -1.26127035
H        0.91298086      -2.12854531       0.08843779
H       -1.10225103      -0.55799682       1.56896663
H       -1.65200604      -1.44811280       0.10730364
H       -1.50617453       0.92502463      -0.94699235
13
Frame=6 idx=000098 GeodesicLength=0.2659298872240793 rxn_smarts="[C:1]1([H:7])([H:8])[C@:2]2([H:9])[C@:3]3([H:10])[C:4]([H:11])([H:12])[C@@:5]1([H:13])[N:6]23>>[C:1]1([H:7])([H:8])[C:2][C@@:3]2([H:10])[C:4]([H:11])([H:12])[C@:5]1([H:13])[N:6]2[H:9]"
C        0.39015124       1.24591638       0.29934963
C        1.36438215       0.07748112       0.12787905
C        0.49104053      -1.13073036       0.07711770
C       -0.91993778      -0.75038358       0.51212088
C       -0.68840469       0.44599477      -0.41517664
N        0.29551814      -0.41458810      -1.21010515
H        0.73062545       2.11220399      -0.27051411
H        0.19901025       1.56171331       1.32700803
H        1.48405631       0.06292217      -1.26547602
H        0.91265166      -2.12867618       0.08439968
H       -1.09966551      -0.55868711       1.57056169
H       -1.65158473      -1.44923437       0.10872851
H       -1.50784304       0.92606795      -0.94589326
13
Frame=7 idx=000098 GeodesicLength=0.3098222214425868 rxn_smarts="[C:1]1([H:7])([H:8])[C@:2]2([H:9])[C@:3]3([H:10])[C:4]([H:11])([H:12])[C@@:5]1([H:13])[N:6]23>>[C:1]1([H:7])([H:8])[C:2][C@@:3]2([H:10])[C:4]([H:11])([H:12])[C@:5]1([H:13])[N:6]2[H:9]"
C        0.38819727       1.24563440       0.30122051
C        1.35983445       0.07781269       0.13498114
C        0.49009038      -1.13111440       0.07506584
C       -0.92045953      -0.75021952       0.51300761
C       -0.68994644       0.44521019      -0.41608453
N        0.29312770      -0.41286413      -1.21150164
H        0.73146597       2.10891829      -0.27200333
H        0.19798580       1.56768454       1.32710323
H        1.49513478       0.06036629      -1.26966518
H        0.91232110      -2.12880976       0.08036325
H       -1.09707774      -0.55937469       1.57215611
H       -1.65116375      -1.45035431       0.11015412
H       -1.50950999       0.92711042      -0.94479713
13
Frame=8 idx=000098 GeodesicLength=0.35387340672045137 rxn_smarts="[C:1]1([H:7])([H:8])[C@:2]2([H:9])[C@:3]3([H:10])[C:4]([H:11])([H:12])[C@@:5]1([H:13])[N:6]23>>[C:1]1([H:7])([H:8])[C:2][C@@:3]2([H:10])[C:4]([H:11])([H:12])[C@:5]1([H:13])[N:6]2[H:9]"
C        0.38625039       1.24532781       0.30311556
C        1.35522322       0.07807527       0.14217563
C        0.48914068      -1.13148031       0.07298462
C       -0.92101347      -0.75007536       0.51390703
C       -0.69151946       0.44440934      -0.41697038
N        0.29065357      -0.41115284      -1.21291890
H        0.73238771       2.10555289      -0.27355669
H        0.19698723       1.57376238       1.32706767
H        1.50634111       0.05795587      -1.27377993
H        0.91200399      -2.12892426       0.07627030
H       -1.09449913      -0.56010453       1.57375285
H       -1.65074570      -1.45150782       0.11159344
H       -1.51121012       0.92816156      -0.94364120
13
Frame=9 idx=000098 GeodesicLength=0.39848260872794555 rxn_smarts="[C:1]1([H:7])([H:8])[C@:2]2([H:9])[C@:3]3([H:10])[C:4]([H:11])([H:12])[C@@:5]1([H:13])[N:6]23>>[C:1]1([H:7])([H:8])[C:2][C@@:3]2([H:10])[C:4]([H:11])([H:12])[C@:5]1([H:13])[N:6]2[H:9]"
C        0.38420884       1.24511433       0.30500745
C        1.35050609       0.07845305       0.14932419
C        0.48820598      -1.13172629       0.07095148
C       -0.92154212      -0.74994519       0.51479078
C       -0.69315157       0.44368717      -0.41778175
N        0.28816917      -0.40933637      -1.21428572
H        0.73323404       2.10219827      -0.27492585
H        0.19602632       1.57975795       1.32717286
H        1.51784999       0.05495224      -1.27837918
H        0.91176778      -2.12886292       0.07229742
H       -1.09203160      -0.56085450       1.57530951
H       -1.65028039      -1.45268200       0.11295070
H       -1.51296252       0.92924426      -0.94243188
13
Frame=10 idx=000098 GeodesicLength=0.44200839840606215 rxn_smarts="[C:1]1([H:7])([H:8])[C@:2]2([H:9])[C@:3]3([H:10])[C:4]([H:11])([H:12])[C@@:5]1([H:13])[N:6]23>>[C:1]1([H:7])([H:8])[C:2][C@@:3]2([H:10])[C:4]([H:11])([H:12])[C@:5]1([H:13])[N:6]2[H:9]"
C        0.38222055       1.24485018       0.30689568
C        1.34586095       0.07877813       0.15645841
C        0.48726246      -1.13204233       0.06889462
C       -0.92208070      -0.74980410       0.51567973
C       -0.69474734       0.44292165      -0.41863875
N        0.28569704      -0.40758280      -1.21568392
H        0.73410052       2.09885191      -0.27638272
H        0.19506036       1.58577478       1.32720972
H        1.52916203       0.05227028      -1.28267985
H        0.91148490      -2.12890355       0.06827679
H       -1.08950067      -0.56158551       1.57688333
H       -1.64984089      -1.45383868       0.11435013
H       -1.51467919       0.93031004      -0.94126316
13
Frame=11 idx=000098 GeodesicLength=0.4866454849998604 rxn_smarts="[C:1]1([H:7])([H:8])[C@:2]2([H:9])[C@:3]3([H:10])[C:4]([H:11])([H:12])[C@@:5]1([H:13])[N:6]23>>[C:1]1([H:7])([H:8])[C:2][C@@:3]2([H:10])[C:4]([H:11])([H:12])[C@:5]1([H:13])[N:6]2[H:9]"
C        0.38011614       1.24464862       0.30884787
C        1.34104564       0.07907787       0.16363933
C        0.48632416      -1.13219705       0.06681160
C       -0.92265175      -0.74970036       0.51657858
C       -0.69647539       0.44219843      -0.41937485
N        0.28304967      -0.40567668      -1.21706805
H        0.73495006       2.09539132      -0.27779213
H        0.19422381       1.59187644       1.32712812
H        1.54107807       0.04914855      -1.28717955
H        0.91127193      -2.12868693       0.06422902
H       -1.08706959      -0.56241389       1.57841730
H       -1.64935040      -1.45507349       0.11570645
H       -1.51651237       0.93140715      -0.93994368
13
Frame=12 idx=000098 GeodesicLength=0.5317779003246645 rxn_smarts="[C:1]1([H:7])([H:8])[C@:2]2([H:9])[C@:3]3([H:10])[C:4]([H:11])([H:12])[C@@:5]1([H:13])[N:6]23>>[C:1]1([H:7])([H:8])[C:2][C@@:3]2([H:10])[C:4]([H:11])([H:12])[C@:5]1([H:13])[N:6]2[H:9]"
C        0.37807603       1.24440594       0.31080472
C        1.33616296       0.07936359       0.17097905
C        0.48538054      -1.13237853       0.06475512
C       -0.92323209      -0.74962518       0.51747616
C       -0.69822388       0.44146159      -0.42007470
N        0.28034957      -0.40386962      -1.21842347
H        0.73588843       2.09186352      -0.27922277
H        0.19333265       1.59805275       1.32701116
H        1.55302696       0.04625354      -1.29191046
H        0.91112179      -2.12854826       0.06018288
H       -1.08470573      -0.56319523       1.57999734
H       -1.64885706      -1.45632311       0.11701412
H       -1.51832016       0.93253899      -0.93858917
13
Frame=13 idx=000098 GeodesicLength=0.5760013263289808 rxn_smarts="[C:1]1([H:7])([H:8])[C@:2]2([H:9])[C@:3]3([H:10])[C:4]([H:11])([H:12])[C@@:5]1([H:13])[N:6]23>>[C:1]1([H:7])([H:8])[C:2][C@@:3]2([H:10])[C:4]([H:11])([H:12])[C@:5]1([H:13])[N:6]2[H:9]"
C        0.37600404       1.24420744       0.31267514
C        1.33127400       0.07967090       0.17817752
C        0.48446318      -1.13250968       0.06268368
C       -0.92382821      -0.74954125       0.51838357
C       -0.69993265       0.44077793      -0.42082188
N        0.27773334      -0.40207963      -1.21982803
H        0.73686995       2.08842164      -0.28058330
H        0.19245014       1.60415527       1.32695566
H        1.56500975       0.04324929      -1.29656790
H        0.91093730      -2.12837431       0.05622938
H       -1.08231792      -0.56406224       1.58152451
H       -1.64841214      -1.45758849       0.11838198
H       -1.52025080       0.93367314      -0.93721033
13
Frame=14 idx=000098 GeodesicLength=0.6206163071334134 rxn_smarts="[C:1]1([H:7])([H:8])[C@:2]2([H:9])[C@:3]3([H:10])[C:4]([H:11])([H:12])[C@@:5]1([H:13])[N:6]23>>[C:1]1([H:7])([H:8])[C:2][C@@:3]2([H:10])[C:4]([H:11])([H:12])[C@:5]1([H:13])[N:6]2[H:9]"
C        0.37388800       1.24400464       0.31466534
C        1.32626627       0.07997536       0.18553591
C        0.48357242      -1.13259469       0.06065019
C       -0.92442475      -0.74949269       0.51928337
C       -0.70168614       0.44006077      -0.42153441
N        0.27497071      -0.40019718      -1.22120633
H        0.73788833       2.08481855      -0.28195456
H        0.19160786       1.61040836       1.32676655
H        1.57708919       0.04010022      -1.30136174
H        0.91085146      -2.12810564       0.05216971
H       -1.08001952      -0.56493185       1.58302871
H       -1.64788620      -1.45887243       0.11969301
H       -1.52211764       0.93482658      -0.93573576
13
Frame=15 idx=000098 GeodesicLength=0.6647875063127581 rxn_smarts="[C:1]1([H:7])([H:8])[C@:2]2([H:9])[C@:3]3([H:10])[C:4]([H:11])([H:12])[C@@:5]1([H:13])[N:6]23>>[C:1]1([H:7])([H:8])[C:2][C@@:3]2([H:10])[C:4]([H:11])([H:12])[C@:5]1([H:13])[N:6]2[H:9]"
C        0.37178384       1.24380048       0.31659304
C        1.32127894       0.08027965       0.19282500
C        0.48264400      -1.13266707       0.05855220
C       -0.92502232      -0.74942498       0.52019228
C       -0.70347795       0.43937024      -0.42221164
N        0.27221534      -0.39832887      -1.22260923
H        0.73885757       2.08127611      -0.28327984
H        0.19080377       1.61660485       1.32664807
H        1.58930515       0.03692779      -1.30612281
H        0.91071511      -2.12780444       0.04816352
H       -1.07768007      -0.56580434       1.58455378
H       -1.64738515      -1.46015078       0.12102170
H       -1.52403823       0.93592137      -0.93432607
13
Frame=16 idx=000098 GeodesicLength=0.7092381512771087 rxn_smarts="[C:1]1([H:7])([H:8])[C@:2]2([H:9])[C@:3]3([H:10])[C:4]([H:11])([H:12])[C@@:5]1([H:13])[N:6]23>>[C:1]1([H:7])([H:8])[C:2][C@@:3]2([H:10])[C:4]([H:11])([H:12])[C@:5]1([H:13])[N:6]2[H:9]"
C        0.36963203       1.24362854       0.31855977
C        1.31620964       0.08057399       0.20015150
C        0.48172772      -1.13267335       0.05647087
C       -0.92564075      -0.74938659       0.52110275
C       -0.70532373       0.43869401      -0.42283897
N        0.26937490      -0.39641137      -1.22398958
H        0.73982872       2.07766509      -0.28460890
H        0.19003968       1.62285780       1.32643144
H        1.60180574       0.03359702      -1.31098463
H        0.91062905      -2.12742664       0.04412333
H       -1.07540646      -0.56671824       1.58606305
H       -1.64686167      -1.46147580       0.12231973
H       -1.52601489       0.93707553      -0.93280038
