12
Frame=0 idx=010597 GeodesicLength=0.0 rxn_smarts="[O:1]=[C:2]([C@@:3]1([H:9])[C:4]([H:10])([H:11])[C@:5]1([C:6]#[N:7])[H:12])[H:8]>>[O:1]=[C:2]1[C@@:3]2([H:9])[C:4]([H:10])([H:11])[C@@:5]2([H:12])[C-:6]=[N+:7]1[H:8]"
O       -1.47658212      -1.33684739       1.66430082
C       -0.90463103      -0.87870656       0.74326892
C       -0.57304244       0.51976125       0.37246921
C        0.88130829       0.89849852       0.43878125
C        0.23660441       0.66454821      -0.88298470
C        0.56012652      -0.65500864      -1.51498690
N        0.22359579      -1.69224204      -0.97148674
H       -0.36882651      -2.31625641      -0.43908797
H       -1.34290678       1.24111554       0.60435307
H        1.56797839       0.13937698       0.79718962
H        1.12461750       1.91159634       0.72951111
H        0.07175802       1.50416422      -1.54132772
12
Frame=1 idx=010597 GeodesicLength=0.09377825953709842 rxn_smarts="[O:1]=[C:2]([C@@:3]1([H:9])[C:4]([H:10])([H:11])[C@:5]1([C:6]#[N:7])[H:12])[H:8]>>[O:1]=[C:2]1[C@@:3]2([H:9])[C:4]([H:10])([H:11])[C@@:5]2([H:12])[C-:6]=[N+:7]1[H:8]"
O       -1.49553528      -1.33587230       1.64417091
C       -0.90102725      -0.88561985       0.73157959
C       -0.57119937       0.51743819       0.37387910
C        0.88329820       0.89556148       0.43813939
C        0.23582785       0.66730869      -0.88378503
C        0.55525886      -0.64807592      -1.52197524
N        0.20982334      -1.68854595      -0.99002313
H       -0.34522720      -2.31486040      -0.38618786
H       -1.33920274       1.23916438       0.61084297
H        1.57172867       0.13597139       0.79184685
H        1.12713762       1.90816411       0.73007889
H        0.06911730       1.50936619      -1.53856645
12
Frame=2 idx=010597 GeodesicLength=0.18752055575149612 rxn_smarts="[O:1]=[C:2]([C@@:3]1([H:9])[C:4]([H:10])([H:11])[C@:5]1([C:6]#[N:7])[H:12])[H:8]>>[O:1]=[C:2]1[C@@:3]2([H:9])[C:4]([H:10])([H:11])[C@@:5]2([H:12])[C-:6]=[N+:7]1[H:8]"
O       -1.51558721      -1.33481731       1.62310695
C       -0.89864390      -0.89201500       0.71982769
C       -0.56961285       0.51528802       0.37535948
C        0.88524707       0.89191713       0.43746459
C        0.23478117       0.66983286      -0.88456652
C        0.54951442      -0.64155171      -1.52886701
N        0.19167312      -1.68461843      -1.00972395
H       -0.31401783      -2.31148086      -0.33134849
H       -1.33529443       1.23776691       0.61751195
H        1.57498589       0.13141822       0.78629026
H        1.13025954       1.90383658       0.73067807
H        0.06669502       1.51442360      -1.53573303
12
Frame=3 idx=010597 GeodesicLength=0.2813406979198423 rxn_smarts="[O:1]=[C:2]([C@@:3]1([H:9])[C:4]([H:10])([H:11])[C@:5]1([C:6]#[N:7])[H:12])[H:8]>>[O:1]=[C:2]1[C@@:3]2([H:9])[C:4]([H:10])([H:11])[C@@:5]2([H:12])[C-:6]=[N+:7]1[H:8]"
O       -1.53598042      -1.33421626       1.60155761
C       -0.89653966      -0.89816877       0.70873211
C       -0.56807272       0.51310759       0.37709242
C        0.88719001       0.88807931       0.43680749
C        0.23369124       0.67172438      -0.88520087
C        0.54368027      -0.63604932      -1.53495780
N        0.17093781      -1.68093133      -1.02902784
H       -0.27955670      -2.30466562      -0.27802668
H       -1.33135279       1.23643807       0.62424833
H        1.57813338       0.12670406       0.78093780
H        1.13352347       1.89939750       0.73091833
H        0.06434610       1.51858039      -1.53308090
12
Frame=4 idx=010597 GeodesicLength=0.375369092788567 rxn_smarts="[O:1]=[C:2]([C@@:3]1([H:9])[C:4]([H:10])([H:11])[C@:5]1([C:6]#[N:7])[H:12])[H:8]>>[O:1]=[C:2]1[C@@:3]2([H:9])[C:4]([H:10])([H:11])[C@@:5]2([H:12])[C-:6]=[N+:7]1[H:8]"
O       -1.55583183      -1.33438083       1.58015106
C       -0.89386061      -0.90436927       0.69884985
C       -0.56641989       0.51077494       0.37917718
C        0.88918794       0.88455175       0.43617563
C        0.23275952       0.67293309      -0.88565703
C        0.53841806      -0.63170055      -1.53993607
N        0.15035530      -1.67782808      -1.04647963
H       -0.24700244      -2.29469305      -0.22902098
H       -1.32761301       1.23483676       0.63095864
H        1.58160607       0.12265609       0.77608849
H        1.13650295       1.89557074       0.73052419
H        0.06189793       1.52164841      -1.53083133
12
Frame=5 idx=010597 GeodesicLength=0.4694080554938007 rxn_smarts="[O:1]=[C:2]([C@@:3]1([H:9])[C:4]([H:10])([H:11])[C@:5]1([C:6]#[N:7])[H:12])[H:8]>>[O:1]=[C:2]1[C@@:3]2([H:9])[C:4]([H:10])([H:11])[C@@:5]2([H:12])[C-:6]=[N+:7]1[H:8]"
O       -1.57539873      -1.33495637       1.55803703
C       -0.89010483      -0.91049517       0.69011971
C       -0.56440654       0.50819989       0.38163063
C        0.89125517       0.88142996       0.43560664
C        0.23182861       0.67341661      -0.88582391
C        0.53329593      -0.62828430      -1.54387625
N        0.13048781      -1.67501472      -1.06202022
H       -0.21703155      -2.28235627      -0.18389705
H       -1.32365862       1.23267191       0.63769457
H        1.58542876       0.11967301       0.77164091
H        1.13922533       1.89232994       0.72960180
H        0.05907867       1.52338551      -1.52871384
12
Frame=6 idx=010597 GeodesicLength=0.5635179097686859 rxn_smarts="[O:1]=[C:2]([C@@:3]1([H:9])[C:4]([H:10])([H:11])[C@:5]1([C:6]#[N:7])[H:12])[H:8]>>[O:1]=[C:2]1[C@@:3]2([H:9])[C:4]([H:10])([H:11])[C@@:5]2([H:12])[C-:6]=[N+:7]1[H:8]"
O       -1.59356426      -1.33601638       1.53643495
C       -0.88593404      -0.91662341       0.68213835
C       -0.56232985       0.50554786       0.38424216
C        0.89333553       0.87869595       0.43508298
C        0.23108460       0.67354398      -0.88588905
C        0.52870738      -0.62550007      -1.54711912
N        0.11210927      -1.67259432      -1.07588348
H       -0.19075016      -2.26891693      -0.14242873
H       -1.31995607       1.23027957       0.64430885
H        1.58947449       0.11738306       0.76768750
H        1.14158873       1.88970730       0.72831266
H        0.05623438       1.52449339      -1.52688709
12
Frame=7 idx=010597 GeodesicLength=0.6576940796289764 rxn_smarts="[O:1]=[C:2]([C@@:3]1([H:9])[C:4]([H:10])([H:11])[C@:5]1([C:6]#[N:7])[H:12])[H:8]>>[O:1]=[C:2]1[C@@:3]2([H:9])[C:4]([H:10])([H:11])[C@@:5]2([H:12])[C-:6]=[N+:7]1[H:8]"
O       -1.61085750      -1.33740542       1.51485686
C       -0.88145527      -0.92268926       0.67470905
C       -0.56016643       0.50284956       0.38699406
C        0.89542918       0.87623021       0.43460181
C        0.23043182       0.67340212      -0.88586702
C        0.52434485      -0.62317849      -1.54987469
N        0.09455422      -1.67038575      -1.08864920
H       -0.16670805      -2.25477268      -0.10327943
H       -1.31631917       1.22773304       0.65089131
H        1.59364699       0.11559646       0.76406116
H        1.14374779       1.88750017       0.72678678
H        0.05335157       1.52512004      -1.52523068
12
Frame=8 idx=010597 GeodesicLength=0.7518547722232695 rxn_smarts="[O:1]=[C:2]([C@@:3]1([H:9])[C:4]([H:10])([H:11])[C@:5]1([C:6]#[N:7])[H:12])[H:8]>>[O:1]=[C:2]1[C@@:3]2([H:9])[C:4]([H:10])([H:11])[C@@:5]2([H:12])[C-:6]=[N+:7]1[H:8]"
O       -1.62710428      -1.33902155       1.49338874
C       -0.87686595      -0.92864861       0.66757119
C       -0.55796539       0.50012406       0.38979044
C        0.89749713       0.87394792       0.43417694
C        0.22986318       0.67305059      -0.88577327
C        0.52017392      -0.62119840      -1.55222689
N        0.07754566      -1.66827264      -1.10065674
H       -0.14444404      -2.24014228      -0.06583747
H       -1.31274525       1.22506544       0.65737165
H        1.59782315       0.11416457       0.76074731
H        1.14572070       1.88556526       0.72513435
H        0.05050116       1.52536565      -1.52368624
12
Frame=9 idx=010597 GeodesicLength=0.8460450003867802 rxn_smarts="[O:1]=[C:2]([C@@:3]1([H:9])[C:4]([H:10])([H:11])[C@:5]1([C:6]#[N:7])[H:12])[H:8]>>[O:1]=[C:2]1[C@@:3]2([H:9])[C:4]([H:10])([H:11])[C@@:5]2([H:12])[C-:6]=[N+:7]1[H:8]"
O       -1.64233789      -1.34083706       1.47208481
C       -0.87228056      -0.93449524       0.66059666
C       -0.55576566       0.49739588       0.39259274
C        0.89952349       0.87178854       0.43380730
C        0.22938244       0.67254957      -0.88563658
C        0.51620157      -0.61948848      -1.55425962
N        0.06083262      -1.66617558      -1.11219956
H       -0.12351377      -2.22519280      -0.02960227
H       -1.30925807       1.22233629       0.66374151
H        1.60194992       0.11295253       0.75770935
H        1.14752834       1.88381842       0.72341090
H        0.04773757       1.52534792      -1.52224520
12
Frame=10 idx=010597 GeodesicLength=0.9402506436923342 rxn_smarts="[O:1]=[C:2]([C@@:3]1([H:9])[C:4]([H:10])([H:11])[C@:5]1([C:6]#[N:7])[H:12])[H:8]>>[O:1]=[C:2]1[C@@:3]2([H:9])[C:4]([H:10])([H:11])[C@@:5]2([H:12])[C-:6]=[N+:7]1[H:8]"
O       -1.65650821      -1.34283068       1.45104067
C       -0.86778532      -0.94023195       0.65365661
C       -0.55359330       0.49466536       0.39535343
C        0.90149480       0.86971698       0.43350383
C        0.22900046       0.67192922      -0.88547558
C        0.51244843      -0.61799843      -1.55601891
N        0.04421325      -1.66402056      -1.12350352
H       -0.10367156      -2.20999740       0.00576193
H       -1.30587120       1.21954772       0.66996243
H        1.60598060       0.11189430       0.75494818
H        1.14918154       1.88220503       0.72167309
H        0.04511052       1.52512041      -1.52090215
12
Frame=11 idx=010597 GeodesicLength=1.0344630586531678 rxn_smarts="[O:1]=[C:2]([C@@:3]1([H:9])[C:4]([H:10])([H:11])[C@:5]1([C:6]#[N:7])[H:12])[H:8]>>[O:1]=[C:2]1[C@@:3]2([H:9])[C:4]([H:10])([H:11])[C@@:5]2([H:12])[C-:6]=[N+:7]1[H:8]"
O       -1.66961471      -1.34499122       1.43032013
C       -0.86342111      -0.94586795       0.64666399
C       -0.55146449       0.49193078       0.39804170
C        0.90340083       0.86770416       0.43327191
C        0.22872751       0.67120972      -0.88530307
C        0.50893923      -0.61669936      -1.55753462
N        0.02750706      -1.66173949      -1.13476086
H       -0.08470322      -2.19458986       0.04053109
H       -1.30259748       1.21670157       0.67600909
H        1.60988726       0.11093582       0.75245524
H        1.15068205       1.88068305       0.71995764
H        0.04265707       1.52472279      -1.51965225
12
Frame=12 idx=010597 GeodesicLength=1.1286773838790942 rxn_smarts="[O:1]=[C:2]([C@@:3]1([H:9])[C:4]([H:10])([H:11])[C@:5]1([C:6]#[N:7])[H:12])[H:8]>>[O:1]=[C:2]1[C@@:3]2([H:9])[C:4]([H:10])([H:11])[C@@:5]2([H:12])[C-:6]=[N+:7]1[H:8]"
O       -1.68166535      -1.34731521       1.40997940
C       -0.85920485      -0.95141949       0.63955119
C       -0.54938925       0.48918476       0.40063306
C        0.90523482       0.86572932       0.43311669
C        0.22857561       0.67040359      -0.88512953
C        0.50570070      -0.61557470      -1.55882689
N        0.01055487      -1.65926514      -1.14613887
H       -0.06644846      -2.17897822       0.07493288
H       -1.29944893       1.21378935       0.68185768
H        1.61365397       0.11004122       0.75022445
H        1.15202784       1.87922336       0.71829414
H        0.04040904       1.52418117      -1.51849421
12
Frame=13 idx=010597 GeodesicLength=1.2228918583711177 rxn_smarts="[O:1]=[C:2]([C@@:3]1([H:9])[C:4]([H:10])([H:11])[C@:5]1([C:6]#[N:7])[H:12])[H:8]>>[O:1]=[C:2]1[C@@:3]2([H:9])[C:4]([H:10])([H:11])[C@@:5]2([H:12])[C-:6]=[N+:7]1[H:8]"
O       -1.69267796      -1.34980562       1.39006295
C       -0.85513430      -0.95690830       0.63226726
C       -0.54737304       0.48641565       0.40310858
C        0.90699342       0.86377723       0.43304293
C        0.22855779       0.66951776      -0.88496391
C        0.50275901      -0.61461724      -1.55990886
N       -0.00679062      -1.65652683      -1.15778907
H       -0.04878104      -2.16315244       0.10916660
H       -1.29643775       1.21079528       0.68748595
H        1.61727554       0.10918717       0.74825082
H        1.15321471       1.87780528       0.71670651
H        0.03839424       1.52351205      -1.51742977
12
Frame=14 idx=010597 GeodesicLength=1.3171157180143693 rxn_smarts="[O:1]=[C:2]([C@@:3]1([H:9])[C:4]([H:10])([H:11])[C@:5]1([C:6]#[N:7])[H:12])[H:8]>>[O:1]=[C:2]1[C@@:3]2([H:9])[C:4]([H:10])([H:11])[C@@:5]2([H:12])[C-:6]=[N+:7]1[H:8]"
O       -1.70269279      -1.35247505       1.37060163
C       -0.85119411      -0.96236375       0.62477930
C       -0.54541892       0.48360680       0.40545675
C        0.90868131       0.86183918       0.43305636
C        0.22868857       0.66855524      -0.88481802
C        0.50013906      -0.61382737      -1.56079485
N       -0.02467229      -1.65344904      -1.16985682
H       -0.03159489      -2.14708790       0.14341953
H       -1.29358023       1.20769508       0.69287784
H        1.62076435       0.10836407       0.74653178
H        1.15424352       1.87641798       0.71521646
H        0.03663643       1.52272476      -1.51646996
12
Frame=15 idx=010597 GeodesicLength=1.41129455492678 rxn_smarts="[O:1]=[C:2]([C@@:3]1([H:9])[C:4]([H:10])([H:11])[C@:5]1([C:6]#[N:7])[H:12])[H:8]>>[O:1]=[C:2]1[C@@:3]2([H:9])[C:4]([H:10])([H:11])[C@@:5]2([H:12])[C-:6]=[N+:7]1[H:8]"
O       -1.71166320      -1.35531554       1.35161268
C       -0.84735495      -0.96781271       0.61702193
C       -0.54352146       0.48074921       0.40765053
C        0.91027968       0.85990207       0.43315462
C        0.22898064       0.66751518      -0.88467656
C        0.49785391      -0.61322442      -1.56145747
N       -0.04321947      -1.64996040      -1.18246009
H       -0.01482342      -2.13076655       0.17785332
H       -1.29087118       1.20448507       0.69799322
H        1.62409292       0.10754694       0.74504834
H        1.15508215       1.87505089       0.71383641
H        0.03516439       1.52183026      -1.51557695
12
Frame=16 idx=010597 GeodesicLength=1.5055157326913908 rxn_smarts="[O:1]=[C:2]([C@@:3]1([H:9])[C:4]([H:10])([H:11])[C@:5]1([C:6]#[N:7])[H:12])[H:8]>>[O:1]=[C:2]1[C@@:3]2([H:9])[C:4]([H:10])([H:11])[C@@:5]2([H:12])[C-:6]=[N+:7]1[H:8]"
O       -1.71976900      -1.35835965       1.33299097
C       -0.84355352      -0.97328674       0.60902975
C       -0.54166133       0.47780071       0.40971401
C        0.91180867       0.85794964       0.43333612
C        0.22943719       0.66638808      -0.88456443
C        0.49589775      -0.61279359      -1.56192332
N       -0.06255414      -1.64593441      -1.19571240
H        0.00166365      -2.11408202       0.21271261
H       -1.28829516       1.20109257       0.70287154
H        1.62731120       0.10675230       0.74378403
H        1.15574717       1.87366916       0.71255814
H        0.03396752       1.52080395      -1.51479700
