15
Frame=0 idx=001346 GeodesicLength=0.0 rxn_smarts="[C:1]1([H:7])([H:8])[C:2]([H:9])([H:10])[C:3]1([N:4]1[C:5]([H:12])([H:13])[C:6]1([H:14])[H:15])[H:11]>>[C:1]1([H:7])([H:8])[C:2]([H:10])=[C:3]1[N:4]1[C:5]([H:12])([H:13])[C:6]1([H:14])[H:15].[H:9][H:11]"
C       -1.76287328       1.01027217      -0.07432234
C       -1.91426304      -0.46704979      -0.28286053
C       -0.63078842       0.06412009      -0.01453748
N        0.61293876       0.08231908      -0.58853930
C        1.57888234      -0.95855037      -0.35864752
C        1.81188995       0.42952553       0.13049898
H       -1.67220723       1.68636663      -0.92243371
H       -2.15434619       1.48269870       0.82497713
H       -1.03426314      -0.70052408       1.01274626
H       -2.18871527      -1.02166031      -1.16524619
H       -0.27610078      -0.25499729       1.47451330
H        1.32318623      -1.70503406       0.38875012
H        2.09966047      -1.32851797      -1.23289706
H        2.50009342       1.08257081      -0.39059592
H        1.70690622       0.59846082       1.19859426
15
Frame=1 idx=001346 GeodesicLength=0.11619720293096764 rxn_smarts="[C:1]1([H:7])([H:8])[C:2]([H:9])([H:10])[C:3]1([N:4]1[C:5]([H:12])([H:13])[C:6]1([H:14])[H:15])[H:11]>>[C:1]1([H:7])([H:8])[C:2]([H:10])=[C:3]1[N:4]1[C:5]([H:12])([H:13])[C:6]1([H:14])[H:15].[H:9][H:11]"
C       -1.75742183       1.01504258      -0.08145808
C       -1.91166710      -0.46419527      -0.28118529
C       -0.62894466       0.06357006      -0.00899780
N        0.61220696       0.08368256      -0.59443122
C        1.57958920      -0.95583123      -0.36163060
C        1.80965052       0.43198823       0.12786476
H       -1.67059919       1.68584730      -0.93410152
H       -2.14975440       1.49535099       0.81309392
H       -1.04527960      -0.72814589       1.04376390
H       -2.19142356      -1.01359014      -1.16547614
H       -0.27031548      -0.27661340       1.49313267
H        1.31754620      -1.70731177       0.37832537
H        2.10678474      -1.32424407      -1.23274147
H        2.50052243       1.08481281      -0.39003521
H        1.69910579       0.60963723       1.19387671
15
Frame=2 idx=001346 GeodesicLength=0.23202310891203037 rxn_smarts="[C:1]1([H:7])([H:8])[C:2]([H:9])([H:10])[C:3]1([N:4]1[C:5]([H:12])([H:13])[C:6]1([H:14])[H:15])[H:11]>>[C:1]1([H:7])([H:8])[C:2]([H:10])=[C:3]1[N:4]1[C:5]([H:12])([H:13])[C:6]1([H:14])[H:15].[H:9][H:11]"
C       -1.75207058       1.02004224      -0.08903034
C       -1.90876180      -0.46126537      -0.27889025
C       -0.62686845       0.06384550      -0.00388884
N        0.61171624       0.08563376      -0.60053151
C        1.58013666      -0.95295080      -0.36486191
C        1.80755184       0.43439714       0.12555608
H       -1.66976702       1.68512999      -0.94659521
H       -2.14485457       1.50844901       0.80079570
H       -1.05656761      -0.75649273       1.07552376
H       -2.19400182      -1.00616259      -1.16461611
H       -0.26435365      -0.29868836       1.51141765
H        1.31128661      -1.70964872       0.36716111
H        2.11387767      -1.31966592      -1.23277109
H        2.50145965       1.08696462      -0.38869862
H        1.69121682       0.62041223       1.18942956
15
Frame=3 idx=001346 GeodesicLength=0.34767649194060185 rxn_smarts="[C:1]1([H:7])([H:8])[C:2]([H:9])([H:10])[C:3]1([N:4]1[C:5]([H:12])([H:13])[C:6]1([H:14])[H:15])[H:11]>>[C:1]1([H:7])([H:8])[C:2]([H:10])=[C:3]1[N:4]1[C:5]([H:12])([H:13])[C:6]1([H:14])[H:15].[H:9][H:11]"
C       -1.74684626       1.02529484      -0.09708298
C       -1.90551221      -0.45824382      -0.27589381
C       -0.62451935       0.06505078       0.00072981
N        0.61151811       0.08823836      -0.60687184
C        1.58052659      -0.94988295      -0.36836455
C        1.80562744       0.43675160       0.12359306
H       -1.66979150       1.68416554      -0.95998455
H       -2.13963438       1.52205817       0.78800864
H       -1.06820074      -0.78567693       1.10814736
H       -2.19646431      -0.99941062      -1.16251886
H       -0.25825831      -0.32133651       1.52928130
H        1.30435280      -1.71200640       0.35518048
H        2.12096133      -1.31476039      -1.23298508
H        2.50297957       1.08900234      -0.38651950
H        1.68326121       0.63075598       1.18528054
15
Frame=4 idx=001346 GeodesicLength=0.46330631270725553 rxn_smarts="[C:1]1([H:7])([H:8])[C:2]([H:9])([H:10])[C:3]1([N:4]1[C:5]([H:12])([H:13])[C:6]1([H:14])[H:15])[H:11]>>[C:1]1([H:7])([H:8])[C:2]([H:10])=[C:3]1[N:4]1[C:5]([H:12])([H:13])[C:6]1([H:14])[H:15].[H:9][H:11]"
C       -1.74177804       1.03082256      -0.10567771
C       -1.90187657      -0.45510653      -0.27209036
C       -0.62185264       0.06730574       0.00481487
N        0.61166706       0.09157948      -0.61347364
C        1.58075588      -0.94658593      -0.37217105
C        1.80391676       0.43904310       0.12200119
H       -1.67074985       1.68286262      -0.97434690
H       -2.13409878       1.53625246       0.77460685
H       -1.08025549      -0.81580772       1.14178884
H       -2.19880597      -0.99336561      -1.15900189
H       -0.25208131      -0.34468905       1.54663062
H        1.29667126      -1.71433088       0.34226407
H        2.12804627      -1.30947992      -1.23339315
H        2.50516746       1.09088798      -0.38341360
H        1.67527397       0.64061169       1.18146186
15
Frame=5 idx=001346 GeodesicLength=0.579047824690634 rxn_smarts="[C:1]1([H:7])([H:8])[C:2]([H:9])([H:10])[C:3]1([N:4]1[C:5]([H:12])([H:13])[C:6]1([H:14])[H:15])[H:11]>>[C:1]1([H:7])([H:8])[C:2]([H:10])=[C:3]1[N:4]1[C:5]([H:12])([H:13])[C:6]1([H:14])[H:15].[H:9][H:11]"
C       -1.73689724       1.03665413      -0.11486819
C       -1.89779807      -0.45181937      -0.26736202
C       -0.61882031       0.07073491       0.00830489
N        0.61222398       0.09574456      -0.62036798
C        1.58082680      -0.94303465      -0.37631897
C        1.80245974       0.44126782       0.12080880
H       -1.67275278       1.68115064      -0.98978981
H       -2.12825472       1.55113033       0.76050832
H       -1.09283126      -0.84700212       1.17661315
H       -2.20099426      -0.98808183      -1.15389127
H       -0.24588555      -0.36888101       1.56335254
H        1.28817696      -1.71659538       0.32830809
H        2.13515161      -1.30380244      -1.23401879
H        2.50810433       1.09260264      -0.37929756
H        1.66729076       0.64993178       1.17801880
15
Frame=6 idx=001346 GeodesicLength=0.6949770590944434 rxn_smarts="[C:1]1([H:7])([H:8])[C:2]([H:9])([H:10])[C:3]1([N:4]1[C:5]([H:12])([H:13])[C:6]1([H:14])[H:15])[H:11]>>[C:1]1([H:7])([H:8])[C:2]([H:10])=[C:3]1[N:4]1[C:5]([H:12])([H:13])[C:6]1([H:14])[H:15].[H:9][H:11]"
C       -1.73223662       1.04281661      -0.12473941
C       -1.89321755      -0.44833421      -0.26157268
C       -0.61537306       0.07548364       0.01116405
N        0.61324997       0.10084324      -0.62756749
C        1.58072918      -0.93917494      -0.38085911
C        1.80129826       0.44341057       0.12004874
H       -1.67587760       1.67889966      -1.00641204
H       -2.12213722       1.56678062       0.74553610
H       -1.10599599      -0.87939326       1.21281696
H       -2.20298676      -0.98359286      -1.14693573
H       -0.23974989      -0.39406757       1.57932387
H        1.27878148      -1.71871814       0.31315213
H        2.14227890      -1.29766487      -1.23488777
H        2.51188238       1.09408355      -0.37406084
H        1.65935453       0.65862796       1.17499321
15
Frame=7 idx=001346 GeodesicLength=0.8111496738798141 rxn_smarts="[C:1]1([H:7])([H:8])[C:2]([H:9])([H:10])[C:3]1([N:4]1[C:5]([H:12])([H:13])[C:6]1([H:14])[H:15])[H:11]>>[C:1]1([H:7])([H:8])[C:2]([H:10])=[C:3]1[N:4]1[C:5]([H:12])([H:13])[C:6]1([H:14])[H:15].[H:9][H:11]"
C       -1.72782632       1.04934431      -0.13536884
C       -1.88807402      -0.44459051      -0.25457777
C       -0.61146554       0.08169082       0.01334910
N        0.61480319       0.10697671      -0.63508948
C        1.58045442      -0.93497147      -0.38583727
C        1.80046889       0.44546825       0.11975545
H       -1.68021081       1.67600270      -1.02432341
H       -2.11576341       1.58332220       0.72953984
H       -1.11980027      -0.91317723       1.25056783
H       -2.20474378      -0.97993939      -1.13791463
H       -0.23376351      -0.42038469       1.59442659
H        1.26841134      -1.72064983       0.29667913
H        2.14942654      -1.29103632      -1.23603756
H        2.51657448       1.09530759      -0.36761120
H        1.65150880       0.66663688       1.17244222
15
Frame=8 idx=001346 GeodesicLength=0.9275672634679871 rxn_smarts="[C:1]1([H:7])([H:8])[C:2]([H:9])([H:10])[C:3]1([N:4]1[C:5]([H:12])([H:13])[C:6]1([H:14])[H:15])[H:11]>>[C:1]1([H:7])([H:8])[C:2]([H:10])=[C:3]1[N:4]1[C:5]([H:12])([H:13])[C:6]1([H:14])[H:15].[H:9][H:11]"
C       -1.72369911       1.05626162      -0.14685472
C       -1.88228369      -0.44049734      -0.24619259
C       -0.60704163       0.08952803       0.01482260
N        0.61695570       0.11428579      -0.64293980
C        1.57998823      -0.93036515      -0.39132324
C        1.80001190       0.44741656       0.11997637
H       -1.68584495       1.67226024      -1.04365608
H       -2.10918565       1.60088026       0.71228469
H       -1.13429779      -0.94851005       1.29009703
H       -2.20618270      -0.97714603      -1.12649874
H       -0.22804239      -0.44802064       1.60849613
H        1.25696323      -1.72229417       0.27868167
H        2.15659325      -1.28384081      -1.23751980
H        2.52227066       1.09619693      -0.35980620
H        1.64379493       0.67384477       1.17043268
15
Frame=9 idx=001346 GeodesicLength=1.044056204116729 rxn_smarts="[C:1]1([H:7])([H:8])[C:2]([H:9])([H:10])[C:3]1([N:4]1[C:5]([H:12])([H:13])[C:6]1([H:14])[H:15])[H:11]>>[C:1]1([H:7])([H:8])[C:2]([H:10])=[C:3]1[N:4]1[C:5]([H:12])([H:13])[C:6]1([H:14])[H:15].[H:9][H:11]"
C       -1.71989280       1.06360141      -0.15931449
C       -1.87571086      -0.43597929      -0.23618710
C       -0.60205694       0.09917295       0.01553010
N        0.61978585       0.12293154      -0.65111447
C        1.57930942      -0.92529997      -0.39740785
C        1.79996989       0.44920515       0.12077776
H       -1.69293070       1.66750231      -1.06463361
H       -2.10244638       1.61964772       0.69363279
H       -1.14955869      -0.98536350       1.33173706
H       -2.20713314      -0.97539097      -1.11237055
H       -0.22274952      -0.47725972       1.62127167
H        1.24431315      -1.72356424       0.25888837
H        2.16376601      -1.27598938      -1.23941663
H        2.52907862       1.09669492      -0.35045346
H        1.63625610       0.68009109       1.16906039
15
Frame=10 idx=001346 GeodesicLength=1.1606901686875275 rxn_smarts="[C:1]1([H:7])([H:8])[C:2]([H:9])([H:10])[C:3]1([N:4]1[C:5]([H:12])([H:13])[C:6]1([H:14])[H:15])[H:11]>>[C:1]1([H:7])([H:8])[C:2]([H:10])=[C:3]1[N:4]1[C:5]([H:12])([H:13])[C:6]1([H:14])[H:15].[H:9][H:11]"
C       -1.71642846       1.07140336      -0.17285725
C       -1.86832377      -0.43086907      -0.22440729
C       -0.59647568       0.11078191       0.01547273
N        0.62333892       0.13302294      -0.65959459
C        1.57838896      -0.91971993      -0.40412428
C        1.80035654       0.45083916       0.12219093
H       -1.70147228       1.66152534      -1.08732304
H       -2.09560695       1.63973520       0.67324992
H       -1.16543251      -1.02422762       1.37558490
H       -2.20758742      -0.97455635      -1.09521321
H       -0.21800508      -0.50817669       1.63266540
H        1.23038898      -1.72435286       0.23721028
H        2.17090797      -1.26745572      -1.24175155
H        2.53702518       1.09672913      -0.33948002
H        1.62892560       0.68532120       1.16837706
15
Frame=11 idx=001346 GeodesicLength=1.277362583715093 rxn_smarts="[C:1]1([H:7])([H:8])[C:2]([H:9])([H:10])[C:3]1([N:4]1[C:5]([H:12])([H:13])[C:6]1([H:14])[H:15])[H:11]>>[C:1]1([H:7])([H:8])[C:2]([H:10])=[C:3]1[N:4]1[C:5]([H:12])([H:13])[C:6]1([H:14])[H:15].[H:9][H:11]"
C       -1.71333022       1.07969997      -0.18759879
C       -1.86005551      -0.42500329      -0.21066794
C       -0.59028043       0.12451294       0.01465988
N        0.62765389       0.14468463      -0.66833974
C        1.57718181      -0.91357208      -0.41151805
C        1.80118957       0.45229760       0.12426505
H       -1.71151173       1.65414387      -1.11189243
H       -2.08874118       1.66131104       0.65086282
H       -1.18175924      -1.06543087       1.42180597
H       -2.20745313      -0.97464215      -1.07470360
H       -0.21394770      -0.54093352       1.64251455
H        1.21509436      -1.72453844       0.21348828
H        2.17795764      -1.25818446      -1.24456550
H        2.54615842       1.09621966      -0.32676304
H        1.62184346       0.68943509       1.16845255
15
Frame=12 idx=001346 GeodesicLength=1.3940416580205213 rxn_smarts="[C:1]1([H:7])([H:8])[C:2]([H:9])([H:10])[C:3]1([N:4]1[C:5]([H:12])([H:13])[C:6]1([H:14])[H:15])[H:11]>>[C:1]1([H:7])([H:8])[C:2]([H:10])=[C:3]1[N:4]1[C:5]([H:12])([H:13])[C:6]1([H:14])[H:15].[H:9][H:11]"
C       -1.71061531       1.08852826      -0.20368087
C       -1.85083596      -0.41815834      -0.19476765
C       -0.58345443       0.14052953       0.01309544
N        0.63277380       0.15804998      -0.67730552
C        1.57564124      -0.90679255      -0.41962655
C        1.80246672       0.45355368       0.12704797
H       -1.72306281       1.64510477      -1.13845410
H       -2.08192785       1.68453488       0.62612812
H       -1.19829399      -1.10940658       1.47054307
H       -2.20664155      -0.97556640      -1.05049573
H       -0.21073636      -0.57566515       1.65066758
H        1.19831998      -1.72398624       0.18757924
H        2.18485152      -1.24814525      -1.24789443
H        2.55649588       1.09507207      -0.31219242
H        1.61501911       0.69234735       1.16935584
15
Frame=13 idx=001346 GeodesicLength=1.5106224868858593 rxn_smarts="[C:1]1([H:7])([H:8])[C:2]([H:9])([H:10])[C:3]1([N:4]1[C:5]([H:12])([H:13])[C:6]1([H:14])[H:15])[H:11]>>[C:1]1([H:7])([H:8])[C:2]([H:10])=[C:3]1[N:4]1[C:5]([H:12])([H:13])[C:6]1([H:14])[H:15].[H:9][H:11]"
C       -1.70829383       1.09792461      -0.22122460
C       -1.84060562      -0.41010653      -0.17654133
C       -0.57600844       0.15896757       0.01080524
N        0.63871902       0.17322462      -0.68642547
C        1.57370318      -0.89933663      -0.42846372
C        1.80417534       0.45458261       0.13057655
H       -1.73611955       1.63421587      -1.16714897
H       -2.07523201       1.70959991       0.59877597
H       -1.21472887      -1.15659719       1.52188673
H       -2.20504868      -0.97729302      -1.02229410
H       -0.20853475      -0.61250287       1.65695342
H        1.17997431      -1.72254962       0.15939453
H        2.19149968      -1.23732387      -1.25174415
H        2.56803981       1.09319955      -0.29568545
H        1.60846041       0.69399499       1.17113535
15
Frame=14 idx=001346 GeodesicLength=1.6271111062594656 rxn_smarts="[C:1]1([H:7])([H:8])[C:2]([H:9])([H:10])[C:3]1([N:4]1[C:5]([H:12])([H:13])[C:6]1([H:14])[H:15])[H:11]>>[C:1]1([H:7])([H:8])[C:2]([H:10])=[C:3]1[N:4]1[C:5]([H:12])([H:13])[C:6]1([H:14])[H:15].[H:9][H:11]"
C       -1.70636805       1.10790802      -0.24038389
C       -1.82933957      -0.40052071      -0.15580400
C       -0.56795213       0.17996518       0.00783492
N        0.64550150       0.19030766      -0.69562464
C        1.57129634      -0.89115252      -0.43803322
C        1.80628632       0.45537040       0.13489943
H       -1.75062659       1.62117641      -1.19805879
H       -2.06874206       1.73666187       0.56835885
H       -1.23063067      -1.20761868       1.57581472
H       -2.20263284      -0.97960213      -0.98971907
H       -0.20746687      -0.65153035       1.66127950
H        1.15996164      -1.72006593       0.12885969
H        2.19780161      -1.22571950      -1.25611652
H        2.58075822       1.09048251      -0.27715996
H        1.60215316       0.69433778       1.17385299
15
Frame=15 idx=001346 GeodesicLength=1.7434743748300296 rxn_smarts="[C:1]1([H:7])([H:8])[C:2]([H:9])([H:10])[C:3]1([N:4]1[C:5]([H:12])([H:13])[C:6]1([H:14])[H:15])[H:11]>>[C:1]1([H:7])([H:8])[C:2]([H:10])=[C:3]1[N:4]1[C:5]([H:12])([H:13])[C:6]1([H:14])[H:15].[H:9][H:11]"
C       -1.70483193       1.11848823      -0.26128586
C       -1.81701898      -0.38905293      -0.13241606
C       -0.55932331       0.20363992       0.00424753
N        0.65311102       0.20937759      -0.70480738
C        1.56832739      -0.88221398      -0.44830663
C        1.80875735       0.45589726       0.14005542
H       -1.76649867       1.60572913      -1.23126144
H       -2.06255246       1.76586971       0.53448537
H       -1.24547128      -1.26307601       1.63225020
H       -2.19932476      -0.98228331      -0.95246771
H       -0.20765658      -0.69280627       1.66354290
H        1.13818271      -1.71638697       0.09596971
H        2.20361912      -1.21336862      -1.26098695
H        2.59460188       1.08682366      -0.25657264
H        1.59607850       0.69336259       1.17755352
15
Frame=16 idx=001346 GeodesicLength=1.8597591469731962 rxn_smarts="[C:1]1([H:7])([H:8])[C:2]([H:9])([H:10])[C:3]1([N:4]1[C:5]([H:12])([H:13])[C:6]1([H:14])[H:15])[H:11]>>[C:1]1([H:7])([H:8])[C:2]([H:10])=[C:3]1[N:4]1[C:5]([H:12])([H:13])[C:6]1([H:14])[H:15].[H:9][H:11]"
C       -1.70367862       1.12965291      -0.28409003
C       -1.80362791      -0.37528018      -0.10623313
C       -0.55016103       0.23011339       0.00009092
N        0.66153918       0.23052838      -0.71388574
C        1.56469174      -0.87249010      -0.45926723
C        1.81153337       0.45614148       0.14610932
H       -1.78364361       1.58751843      -1.26679500
H       -2.05677062       1.79733654       0.49664738
H       -1.25862987      -1.32355370       1.69110073
H       -2.19505508      -0.98501881      -0.91017230
H       -0.20921353      -0.73641127       1.66367558
H        1.11450970      -1.71137914       0.06069221
H        2.20880022      -1.20031598      -1.26636134
H        2.60951591       1.08211062      -0.23383129
H        1.59019015       0.69104741       1.18231992
