13
Frame=0 idx=008566 GeodesicLength=0.0 rxn_smarts="[N:1](=[C:2](/[O:3][C:4]([C:5]([C:6]#[N:7])([H:12])[H:13])([H:10])[H:11])[H:9])\[H:8]>>[N:1]1([H:8])[C@:2]2([H:9])[O:3][C:4]([H:10])([H:11])[C:5]([H:12])([H:13])[C:6]1=[N:7]2"
N       -1.05916482       0.87638611       0.60751481
C       -1.11848996       0.30663192      -0.67659196
O       -0.69880592      -0.96434894      -0.77807571
C        0.27989827      -1.28966073       0.21828908
C        1.21122376      -0.05870960       0.44603665
C        0.33630469       1.03892472      -0.07264171
N        0.27761533       1.52501795      -1.23179874
H       -1.50562839       1.78541826       0.56754229
H       -1.86106399       0.56114296      -1.42161627
H        0.80914950      -2.16137901      -0.15832142
H       -0.23544456      -1.53508803       1.14584470
H        1.44633099       0.02894079       1.50604371
H        2.11807513      -0.11327637      -0.15222539
13
Frame=1 idx=008566 GeodesicLength=0.13427422808596895 rxn_smarts="[N:1](=[C:2](/[O:3][C:4]([C:5]([C:6]#[N:7])([H:12])[H:13])([H:10])[H:11])[H:9])\[H:8]>>[N:1]1([H:8])[C@:2]2([H:9])[O:3][C:4]([H:10])([H:11])[C:5]([H:12])([H:13])[C:6]1=[N:7]2"
N       -1.05921138       0.89556139       0.60275454
C       -1.13691798       0.30767992      -0.66867718
O       -0.73512554      -0.97195065      -0.74913363
C        0.28360198      -1.28576341       0.20639009
C        1.21080255      -0.05788142       0.45876704
C        0.36462169       1.04448567      -0.08782527
N        0.30700230       1.50091450      -1.25650104
H       -1.50796709       1.80331825       0.55821951
H       -1.89406606       0.54779825      -1.40469709
H        0.81557861      -2.13547753      -0.21550703
H       -0.20266462      -1.56883689       1.13866067
H        1.41639127       0.04175605       1.52385670
H        2.13795427      -0.12160414      -0.10630732
13
Frame=2 idx=008566 GeodesicLength=0.2684178964378846 rxn_smarts="[N:1](=[C:2](/[O:3][C:4]([C:5]([C:6]#[N:7])([H:12])[H:13])([H:10])[H:11])[H:9])\[H:8]>>[N:1]1([H:8])[C@:2]2([H:9])[O:3][C:4]([H:10])([H:11])[C:5]([H:12])([H:13])[C:6]1=[N:7]2"
N       -1.05915945       0.91559924       0.59723832
C       -1.15519544       0.30873138      -0.66052325
O       -0.77125524      -0.97913203      -0.71735959
C        0.28727366      -1.28150810       0.19417317
C        1.21019724      -0.05702842       0.47192675
C        0.39417910       1.04948108      -0.10347655
N        0.33710149       1.47497562      -1.28132925
H       -1.51043792       1.82191291       0.54769781
H       -1.92781881       0.53336210      -1.38629259
H        0.82031420      -2.10647358      -0.27460127
H       -0.16735894      -1.60432041       1.12929683
H        1.38512257       0.05472851       1.54132957
H        2.15703754      -0.13032828      -0.05807996
13
Frame=3 idx=008566 GeodesicLength=0.402399097556082 rxn_smarts="[N:1](=[C:2](/[O:3][C:4]([C:5]([C:6]#[N:7])([H:12])[H:13])([H:10])[H:11])[H:9])\[H:8]>>[N:1]1([H:8])[C@:2]2([H:9])[O:3][C:4]([H:10])([H:11])[C:5]([H:12])([H:13])[C:6]1=[N:7]2"
N       -1.05906973       0.93642460       0.59083689
C       -1.17320438       0.30971405      -0.65220998
O       -0.80675822      -0.98575586      -0.68270426
C        0.29087840      -1.27689278       0.18176125
C        1.20942026      -0.05616348       0.48542342
C        0.42509387       1.05386051      -0.11941970
N        0.36796643       1.44741495      -1.30588419
H       -1.51323538       1.84103590       0.53584172
H       -1.96220859       0.51768162      -1.36631575
H        0.82289152      -2.07419051      -0.33516271
H       -0.12948602      -1.64139274       1.11742331
H        1.35270117       0.06788555       1.55821525
H        2.17501068      -0.13962181      -0.00780525
13
Frame=4 idx=008566 GeodesicLength=0.5362286515060832 rxn_smarts="[N:1](=[C:2](/[O:3][C:4]([C:5]([C:6]#[N:7])([H:12])[H:13])([H:10])[H:11])[H:9])\[H:8]>>[N:1]1([H:8])[C@:2]2([H:9])[O:3][C:4]([H:10])([H:11])[C:5]([H:12])([H:13])[C:6]1=[N:7]2"
N       -1.05901829       0.95791352       0.58342301
C       -1.19083335       0.31054012      -0.64383628
O       -0.84110717      -0.99167665      -0.64527549
C        0.29438107      -1.27191535       0.16929222
C        1.20852052      -0.05530274       0.49912586
C        0.45748612       1.05762052      -0.13543457
N        0.39966100       1.41861654      -1.32975073
H       -1.51661139       1.86046318       0.52255067
H       -1.99712123       0.50060104      -1.34464998
H        0.82282832      -2.03866283      -0.39651714
H       -0.08912871      -1.67976032       1.10268583
H        1.31937406       0.08122958       1.57425079
H        2.19156904      -0.14966662       0.04413583
13
Frame=5 idx=008566 GeodesicLength=0.669821192890832 rxn_smarts="[N:1](=[C:2](/[O:3][C:4]([C:5]([C:6]#[N:7])([H:12])[H:13])([H:10])[H:11])[H:9])\[H:8]>>[N:1]1([H:8])[C@:2]2([H:9])[O:3][C:4]([H:10])([H:11])[C:5]([H:12])([H:13])[C:6]1=[N:7]2"
N       -1.05903299       0.97994892       0.57485608
C       -1.20812284       0.31119264      -0.63554866
O       -0.87390682      -0.99671334      -0.60568981
C        0.29766909      -1.26659619       0.15684743
C        1.20756002      -0.05453469       0.51290225
C        0.49142672       1.06079143      -0.15133172
N        0.43212902       1.38919728      -1.35262694
H       -1.52090756       1.87991395       0.50789996
H       -2.03258008       0.48209276      -1.32115779
H        0.82031146      -2.00020530      -0.45751634
H       -0.04668390      -1.71883570       1.08493242
H        1.28552176       0.09456535       1.58926725
H        2.20661614      -0.16081711       0.09716585
13
Frame=6 idx=008566 GeodesicLength=0.8032976312658896 rxn_smarts="[N:1](=[C:2](/[O:3][C:4]([C:5]([C:6]#[N:7])([H:12])[H:13])([H:10])[H:11])[H:9])\[H:8]>>[N:1]1([H:8])[C@:2]2([H:9])[O:3][C:4]([H:10])([H:11])[C:5]([H:12])([H:13])[C:6]1=[N:7]2"
N       -1.05921376       1.00231106       0.56505711
C       -1.22496063       0.31151762      -0.62742377
O       -0.90451840      -1.00080996      -0.56414976
C        0.30076564      -1.26092726       0.14460303
C        1.20662308      -0.05384953       0.52657568
C        0.52705987       1.06338913      -0.16688456
N        0.46552685       1.35960187      -1.37411601
H       -1.52633366       1.89910071       0.49188050
H       -2.06842273       0.46197817      -1.29570082
H        0.81466163      -1.95910945      -0.51752475
H       -0.00252538      -1.75814523       1.06379657
H        1.25144515       0.10804159       1.60297056
H        2.21989234      -0.17309872       0.15091623
13
Frame=7 idx=008566 GeodesicLength=0.9366837279394626 rxn_smarts="[N:1](=[C:2](/[O:3][C:4]([C:5]([C:6]#[N:7])([H:12])[H:13])([H:10])[H:11])[H:9])\[H:8]>>[N:1]1([H:8])[C@:2]2([H:9])[O:3][C:4]([H:10])([H:11])[C:5]([H:12])([H:13])[C:6]1=[N:7]2"
N       -1.05960643       1.02479038       0.55396163
C       -1.24137918       0.31140914      -0.61954328
O       -0.93252611      -1.00388996      -0.52121837
C        0.30365519      -1.25491434       0.13263244
C        1.20581724      -0.05328278       0.54000570
C        0.56448190       1.06545519      -0.18193422
N        0.49989694       1.33036321      -1.39400946
H       -1.53311969       1.91771443       0.47464322
H       -2.10459771       0.44023789      -1.26813522
H        0.80583300      -1.91592980      -0.57567244
H        0.04268898      -1.79703056       1.03912362
H        1.21750635       0.12168149       1.61517965
H        2.23134952      -0.18660430       0.20496672
13
Frame=8 idx=008566 GeodesicLength=1.0700554838013328 rxn_smarts="[N:1](=[C:2](/[O:3][C:4]([C:5]([C:6]#[N:7])([H:12])[H:13])([H:10])[H:11])[H:9])\[H:8]>>[N:1]1([H:8])[C@:2]2([H:9])[O:3][C:4]([H:10])([H:11])[C:5]([H:12])([H:13])[C:6]1=[N:7]2"
N       -1.06023867       1.04717485       0.54149710
C       -1.25746273       0.31081247      -0.61201000
O       -0.95770747      -1.00596487      -0.47752057
C        0.30633992      -1.24855298       0.12096946
C        1.20521149      -0.05284007       0.55307526
C        0.60380698       1.06702059      -0.19636391
N        0.53533535       1.30193907      -1.41220039
H       -1.54141072       1.93547983       0.45636023
H       -2.14112553       0.41690657      -1.23821167
H        0.79398790      -1.87128077      -0.63123177
H        0.08829478      -1.83484561       1.01084985
H        1.18400112       0.13553378       1.62576526
H        2.24096758      -0.20138285       0.25902117
13
Frame=9 idx=008566 GeodesicLength=1.2034472896193296 rxn_smarts="[N:1](=[C:2](/[O:3][C:4]([C:5]([C:6]#[N:7])([H:12])[H:13])([H:10])[H:11])[H:9])\[H:8]>>[N:1]1([H:8])[C@:2]2([H:9])[O:3][C:4]([H:10])([H:11])[C:5]([H:12])([H:13])[C:6]1=[N:7]2"
N       -1.06107316       1.06937255       0.52753056
C       -1.27349853       0.30965087      -0.60484319
O       -0.97997406      -1.00699040      -0.43376308
C        0.30873040      -1.24185079       0.10953208
C        1.20482986      -0.05256992       0.56571488
C        0.64513496       1.06801699      -0.21020081
N        0.57183058       1.27460547      -1.42872785
H       -1.55138557       1.95215000       0.43734280
H       -2.17796047       0.39220642      -1.20572521
H        0.77972281      -1.82563061      -0.68364918
H        0.13372606      -1.87095126       0.97924754
H        1.15111015       0.14957243       1.63468915
H        2.24880698      -0.21758175       0.31285230
13
Frame=10 idx=008566 GeodesicLength=1.3368644733188852 rxn_smarts="[N:1](=[C:2](/[O:3][C:4]([C:5]([C:6]#[N:7])([H:12])[H:13])([H:10])[H:11])[H:9])\[H:8]>>[N:1]1([H:8])[C@:2]2([H:9])[O:3][C:4]([H:10])([H:11])[C:5]([H:12])([H:13])[C:6]1=[N:7]2"
N       -1.06212506       1.09118231       0.51205948
C       -1.28953925       0.30790910      -0.59809323
O       -0.99946226      -1.00716483      -0.39026697
C        0.31094856      -1.23480582       0.09835047
C        1.20472904      -0.05241936       0.57787432
C        0.68856317       1.06845081      -0.22336897
N        0.60954473       1.24849521      -1.44361450
H       -1.56296194       1.96756838       0.41776914
H       -2.21514300       0.36623012      -1.17055343
H        0.76316808      -1.77950811      -0.73282954
H        0.17841003      -1.90500135       0.94430587
H        1.11900194       0.16403995       1.64187511
H        2.25486595      -0.23497640       0.36649225
13
Frame=11 idx=008566 GeodesicLength=1.4703317901646782 rxn_smarts="[N:1](=[C:2](/[O:3][C:4]([C:5]([C:6]#[N:7])([H:12])[H:13])([H:10])[H:11])[H:9])\[H:8]>>[N:1]1([H:8])[C@:2]2([H:9])[O:3][C:4]([H:10])([H:11])[C:5]([H:12])([H:13])[C:6]1=[N:7]2"
N       -1.06338712       1.11248975       0.49496540
C       -1.30575022       0.30549157      -0.59176439
O       -1.01616772      -1.00654041      -0.34738087
C        0.31299018      -1.22737876       0.08735082
C        1.20491945      -0.05239991       0.58951465
C        0.73424601       1.06825679      -0.23585903
N        0.64857865       1.22373820      -1.45692275
H       -1.57617137       1.98157176       0.39780180
H       -2.25255245       0.33907875      -1.13239430
H        0.74461945      -1.73322010      -0.77870710
H        0.22185837      -1.93664283       0.90618890
H        1.08774437       0.17909224       1.64726855
H        2.25907241      -0.25353707       0.41993830
13
Frame=12 idx=008566 GeodesicLength=1.603848985442997 rxn_smarts="[N:1](=[C:2](/[O:3][C:4]([C:5]([C:6]#[N:7])([H:12])[H:13])([H:10])[H:11])[H:9])\[H:8]>>[N:1]1([H:8])[C@:2]2([H:9])[O:3][C:4]([H:10])([H:11])[C:5]([H:12])([H:13])[C:6]1=[N:7]2"
N       -1.06482783       1.13322534       0.47612732
C       -1.32235859       0.30234448      -0.58582296
O       -1.03033740      -1.00523509      -0.30533512
C        0.31489014      -1.21956080       0.07645444
C        1.20538829      -0.05248295       0.60064005
C        0.78232135       1.06732246      -0.24769214
N        0.68900564       1.20028700      -1.46877453
H       -1.59098815       1.99405663       0.37765105
H       -2.29012964       0.31098158      -1.09110602
H        0.72448961      -1.68697718      -0.82142105
H        0.26379407      -1.96567955       0.86511001
H        1.05736141       0.19490095       1.65084210
H        2.26139110      -0.27318286       0.47332685
13
Frame=13 idx=008566 GeodesicLength=1.7374353261922943 rxn_smarts="[N:1](=[C:2](/[O:3][C:4]([C:5]([C:6]#[N:7])([H:12])[H:13])([H:10])[H:11])[H:9])\[H:8]>>[N:1]1([H:8])[C@:2]2([H:9])[O:3][C:4]([H:10])([H:11])[C:5]([H:12])([H:13])[C:6]1=[N:7]2"
N       -1.06640116       1.15340512       0.45532798
C       -1.33966889       0.29844285      -0.58022916
O       -1.04225282      -1.00330079      -0.26441039
C        0.31663287      -1.21135848       0.06552104
C        1.20608278      -0.05264546       0.61128493
C        0.83295365       1.06540725      -0.25899607
N        0.73089261       1.17799155      -1.47931580
H       -1.60743936       2.00489929       0.35768950
H       -2.32779623       0.28221218      -1.04654064
H        0.70332431      -1.64082683      -0.86115491
H        0.30411280      -1.99194423       0.82144218
H        1.02778457       0.21161142       1.65258013
H        2.26177490      -0.29389386       0.52680120
13
Frame=14 idx=008566 GeodesicLength=1.870997581621122 rxn_smarts="[N:1](=[C:2](/[O:3][C:4]([C:5]([C:6]#[N:7])([H:12])[H:13])([H:10])[H:11])[H:9])\[H:8]>>[N:1]1([H:8])[C@:2]2([H:9])[O:3][C:4]([H:10])([H:11])[C:5]([H:12])([H:13])[C:6]1=[N:7]2"
N       -1.06811689       1.17290940       0.43240664
C       -1.35775893       0.29364351      -0.57492425
O       -1.05196812      -1.00087317      -0.22459378
C        0.31826898      -1.20269803       0.05452030
C        1.20700375      -0.05285672       0.62143392
C        0.88632089       1.06243818      -0.26968819
N        0.77437719       1.15686028      -1.48858911
H       -1.62543798       2.01402022       0.33794295
H       -2.36539375       0.25282205      -0.99845893
H        0.68108479      -1.59479967      -0.89817574
H        0.34255095      -2.01541578       0.77517105
H        0.99903645       0.22948490       1.65239891
H        2.26003264      -0.31553519       0.58055623
13
Frame=15 idx=008566 GeodesicLength=2.004458359655193 rxn_smarts="[N:1](=[C:2](/[O:3][C:4]([C:5]([C:6]#[N:7])([H:12])[H:13])([H:10])[H:11])[H:9])\[H:8]>>[N:1]1([H:8])[C@:2]2([H:9])[O:3][C:4]([H:10])([H:11])[C:5]([H:12])([H:13])[C:6]1=[N:7]2"
N       -1.06996172       1.19170494       0.40711608
C       -1.37683734       0.28786888      -0.56982699
O       -1.05969420      -0.99803563      -0.18593648
C        0.31981144      -1.19355413       0.04334654
C        1.20810182      -0.05308517       0.63111058
C        0.94260447       1.05818446      -0.27979602
N        0.81955488       1.13675691      -1.49668280
H       -1.64495885       2.02132091       0.31866544
H       -2.40279021       0.22300827      -0.94673157
H        0.65803158      -1.54879989      -0.93277005
H        0.37905773      -2.03606366       0.72650206
H        0.97107546       0.24870869       1.65021883
H        2.25600494      -0.33801459       0.63478438
13
Frame=16 idx=008566 GeodesicLength=2.1377927807520267 rxn_smarts="[N:1](=[C:2](/[O:3][C:4]([C:5]([C:6]#[N:7])([H:12])[H:13])([H:10])[H:11])[H:9])\[H:8]>>[N:1]1([H:8])[C@:2]2([H:9])[O:3][C:4]([H:10])([H:11])[C:5]([H:12])([H:13])[C:6]1=[N:7]2"
N       -1.07193480       1.20974879       0.37910488
C       -1.39711912       0.28100357      -0.56485415
O       -1.06559990      -0.99487736      -0.14846973
C        0.32127098      -1.18389433       0.03188120
C        1.20931038      -0.05328465       0.64034217
C        1.00203420       1.05236498      -0.28934508
N        0.86657253       1.11754707      -1.50366785
H       -1.66594866       2.02670478       0.30013859
H       -2.43983972       0.19294794      -0.89110775
H        0.63435448      -1.50265349      -0.96522272
H        0.41365037      -2.05389147       0.67554975
H        0.94381182       0.26951997       1.64591782
H        2.24943742      -0.36123580       0.68973287
