10
Frame=0 idx=004099 GeodesicLength=0.0 rxn_smarts="[C:1]([c:2]1[c:3]([H:10])[n:4][n:5][o:6]1)([H:7])([H:8])[H:9]>>[C:1]([C:2]#[C:3][H:10])([H:7])([H:8])[H:9].[N-:4]=[N+:5]=[O:6]"
C       -1.52163919      -0.23064998      -0.01796414
C       -0.18427638       0.36227005      -0.00663479
C        0.75223115       1.16015876      -0.00478509
N        2.45388911       0.12391979       0.03086701
N        2.01328558      -0.94416723       0.04033650
O        0.92087294      -1.46210948       0.03371723
H       -1.68190726      -0.83721080       0.87307389
H       -1.65192652      -0.87060615      -0.89031220
H       -2.27480758       0.55805760      -0.04628316
H        1.17427816       2.14033744      -0.01201525
10
Frame=1 idx=004099 GeodesicLength=0.030552929941164306 rxn_smarts="[C:1]([c:2]1[c:3]([H:10])[n:4][n:5][o:6]1)([H:7])([H:8])[H:9]>>[C:1]([C:2]#[C:3][H:10])([H:7])([H:8])[H:9].[N-:4]=[N+:5]=[O:6]"
C       -1.52296133      -0.22946116      -0.01845040
C       -0.17936075       0.34980762      -0.00631867
C        0.75303328       1.15676018      -0.00481192
N        2.45744134       0.12473350       0.03073217
N        2.02429220      -0.94819942       0.03871569
O        0.92351591      -1.45938914       0.03836944
H       -1.68766133      -0.83670538       0.87138992
H       -1.65919112      -0.86665177      -0.89199198
H       -2.26919635       0.56571400      -0.04461496
H        1.16008816       2.14339158      -0.01301928
10
Frame=2 idx=004099 GeodesicLength=0.061103856599626444 rxn_smarts="[C:1]([c:2]1[c:3]([H:10])[n:4][n:5][o:6]1)([H:7])([H:8])[H:9]>>[C:1]([C:2]#[C:3][H:10])([H:7])([H:8])[H:9].[N-:4]=[N+:5]=[O:6]"
C       -1.52418122      -0.22822396      -0.01884618
C       -0.17446563       0.33737550      -0.00787757
C        0.75384052       1.15328568      -0.00835786
N        2.46090114       0.12551191       0.03278343
N        2.03521951      -0.95221382       0.03706527
O        0.92620984      -1.45677783       0.04186297
H       -1.69241179      -0.83531059       0.87051813
H       -1.66728542      -0.86335242      -0.89286772
H       -2.26347639       0.57331137      -0.04277213
H        1.14564943       2.14639416      -0.01150834
10
Frame=3 idx=004099 GeodesicLength=0.0915949340108138 rxn_smarts="[C:1]([c:2]1[c:3]([H:10])[n:4][n:5][o:6]1)([H:7])([H:8])[H:9]>>[C:1]([C:2]#[C:3][H:10])([H:7])([H:8])[H:9].[N-:4]=[N+:5]=[O:6]"
C       -1.52526982      -0.22689760      -0.01919640
C       -0.16957637       0.32500707      -0.00981506
C        0.75463217       1.14981916      -0.01223244
N        2.46429966       0.12627224       0.03375221
N        2.04608463      -0.95613946       0.03905014
O        0.92897023      -1.45427764       0.04340960
H       -1.69655319      -0.83438429       0.86938619
H       -1.67575621      -0.85928916      -0.89403712
H       -2.25760316       0.58092858      -0.03991800
H        1.13077207       2.14896112      -0.01039911
10
Frame=4 idx=004099 GeodesicLength=0.12206427351181842 rxn_smarts="[C:1]([c:2]1[c:3]([H:10])[n:4][n:5][o:6]1)([H:7])([H:8])[H:9]>>[C:1]([C:2]#[C:3][H:10])([H:7])([H:8])[H:9].[N-:4]=[N+:5]=[O:6]"
C       -1.52625767      -0.22552987      -0.01952370
C       -0.16474665       0.31271426      -0.01148012
C        0.75537266       1.14634766      -0.01551029
N        2.46761994       0.12699260       0.03563427
N        2.05687522      -0.96006728       0.03972974
O        0.93173785      -1.45185515       0.04542907
H       -1.70075250      -0.83348984       0.86818575
H       -1.68395954      -0.85500517      -0.89527221
H       -2.25162997       0.58846588      -0.03707451
H        1.11574065       2.15142690      -0.01011800
10
Frame=5 idx=004099 GeodesicLength=0.1525838042040935 rxn_smarts="[C:1]([c:2]1[c:3]([H:10])[n:4][n:5][o:6]1)([H:7])([H:8])[H:9]>>[C:1]([C:2]#[C:3][H:10])([H:7])([H:8])[H:9].[N-:4]=[N+:5]=[O:6]"
C       -1.52712654      -0.22410370      -0.02028813
C       -0.15990610       0.30043259      -0.01640548
C        0.75617080       1.14275852      -0.02556809
N        2.47094787       0.12763502       0.03346748
N        2.06760538      -0.96396431       0.04041259
O        0.93450084      -1.44940352       0.05010656
H       -1.70432207      -0.82928202       0.86887010
H       -1.69263601      -0.85373940      -0.89456380
H       -2.24548390       0.59594643      -0.03717076
H        1.10024973       2.15372039       0.00113953
10
Frame=6 idx=004099 GeodesicLength=0.1829720720117622 rxn_smarts="[C:1]([c:2]1[c:3]([H:10])[n:4][n:5][o:6]1)([H:7])([H:8])[H:9]>>[C:1]([C:2]#[C:3][H:10])([H:7])([H:8])[H:9].[N-:4]=[N+:5]=[O:6]"
C       -1.52787068      -0.22260245      -0.02096109
C       -0.15514608       0.28831427      -0.01765203
C        0.75682841       1.13934174      -0.02798484
N        2.47420492       0.12825011       0.03092562
N        2.07827012      -0.96781653       0.04039840
O        0.93729303      -1.44697867       0.05538069
H       -1.70908694      -0.82750057       0.86764217
H       -1.69978861      -0.84982914      -0.89579665
H       -2.23924140       0.60339638      -0.03595221
H        1.08453723       2.15542486       0.00399995
10
Frame=7 idx=004099 GeodesicLength=0.21335136274732083 rxn_smarts="[C:1]([c:2]1[c:3]([H:10])[n:4][n:5][o:6]1)([H:7])([H:8])[H:9]>>[C:1]([C:2]#[C:3][H:10])([H:7])([H:8])[H:9].[N-:4]=[N+:5]=[O:6]"
C       -1.52852614      -0.22106459      -0.02145343
C       -0.15043169       0.27624087      -0.01967445
C        0.75746920       1.13587992      -0.03152824
N        2.47736139       0.12885485       0.03081119
N        2.08886998      -0.97164439       0.04110753
O        0.94010179      -1.44469462       0.05872328
H       -1.71308808      -0.82589492       0.86658227
H       -1.70753283      -0.84556950      -0.89688939
H       -2.23291484       0.61078757      -0.03377314
H        1.06869122       2.15710482       0.00609438
10
Frame=8 idx=004099 GeodesicLength=0.2437159967665243 rxn_smarts="[C:1]([c:2]1[c:3]([H:10])[n:4][n:5][o:6]1)([H:7])([H:8])[H:9]>>[C:1]([C:2]#[C:3][H:10])([H:7])([H:8])[H:9].[N-:4]=[N+:5]=[O:6]"
C       -1.52907787      -0.21946816      -0.02168392
C       -0.14574909       0.26421802      -0.02210285
C        0.75809607       1.13239128      -0.03525867
N        2.48039260       0.12949585       0.03426855
N        2.09942614      -0.97543649       0.04195764
O        0.94294161      -1.44257583       0.05984209
H       -1.71637727      -0.82484063       0.86548245
H       -1.71579451      -0.84052866      -0.89803303
H       -2.22647411       0.61815109      -0.03022631
H        1.05261645       2.15859351       0.00575403
10
Frame=9 idx=004099 GeodesicLength=0.27404328651400905 rxn_smarts="[C:1]([c:2]1[c:3]([H:10])[n:4][n:5][o:6]1)([H:7])([H:8])[H:9]>>[C:1]([C:2]#[C:3][H:10])([H:7])([H:8])[H:9].[N-:4]=[N+:5]=[O:6]"
C       -1.52952769      -0.21783181      -0.02225120
C       -0.14112208       0.25228938      -0.02434316
C        0.75866741       1.12894313      -0.03862432
N        2.48343206       0.13004080       0.03355735
N        2.10990153      -0.97919838       0.04264682
O        0.94575983      -1.44038386       0.06366675
H       -1.72019899      -0.82295619       0.86443930
H       -1.72329732      -0.83612204      -0.89910083
H       -2.21994034       0.62542683      -0.02823397
H        1.03632559       2.15979215       0.00824326
10
Frame=10 idx=004099 GeodesicLength=0.3043641856743975 rxn_smarts="[C:1]([c:2]1[c:3]([H:10])[n:4][n:5][o:6]1)([H:7])([H:8])[H:9]>>[C:1]([C:2]#[C:3][H:10])([H:7])([H:8])[H:9].[N-:4]=[N+:5]=[O:6]"
C       -1.52988243      -0.21614978      -0.02281785
C       -0.13653965       0.24042321      -0.02653933
C        0.75919732       1.12550705      -0.04153579
N        2.48642780       0.13055327       0.03251683
N        2.12032855      -0.98292003       0.04398391
O        0.94858561      -1.43825758       0.06726112
H       -1.72390228      -0.82126168       0.86322790
H       -1.73073173      -0.83132032      -0.90034141
H       -2.21330522       0.63265338      -0.02594467
H        1.01982204       2.16077249       0.01018928
10
Frame=11 idx=004099 GeodesicLength=0.3346690934525797 rxn_smarts="[C:1]([c:2]1[c:3]([H:10])[n:4][n:5][o:6]1)([H:7])([H:8])[H:9]>>[C:1]([C:2]#[C:3][H:10])([H:7])([H:8])[H:9].[N-:4]=[N+:5]=[O:6]"
C       -1.53015035      -0.21444025      -0.02364036
C       -0.13202353       0.22865430      -0.02809655
C        0.75965377       1.12213244      -0.04320402
N        2.48943091       0.13095350       0.02804732
N        2.13068324      -0.98661654       0.04523865
O        0.95139673      -1.43605402       0.07306341
H       -1.72817407      -0.81929407       0.86176919
H       -1.73738488      -0.82663194      -0.90183491
H       -2.20660781       0.63978611      -0.02461880
H        1.00317601       2.16151047       0.01327606
10
Frame=12 idx=004099 GeodesicLength=0.3649726576683318 rxn_smarts="[C:1]([c:2]1[c:3]([H:10])[n:4][n:5][o:6]1)([H:7])([H:8])[H:9]>>[C:1]([C:2]#[C:3][H:10])([H:7])([H:8])[H:9].[N-:4]=[N+:5]=[O:6]"
C       -1.53031953      -0.21268063      -0.02424732
C       -0.12753752       0.21693802      -0.03000390
C        0.76010680       1.11874849      -0.04498038
N        2.49232784       0.13136776       0.02633279
N        2.14099730      -0.99028384       0.04669742
O        0.95422002      -1.43399924       0.07707132
H       -1.73186010      -0.81778272       0.86027576
H       -1.74443758      -0.82127356      -0.90336797
H       -2.19980015       0.64688152      -0.02215751
H        0.98630292       2.16208421       0.01437978
10
Frame=13 idx=004099 GeodesicLength=0.39519924912202076 rxn_smarts="[C:1]([c:2]1[c:3]([H:10])[n:4][n:5][o:6]1)([H:7])([H:8])[H:9]>>[C:1]([C:2]#[C:3][H:10])([H:7])([H:8])[H:9].[N-:4]=[N+:5]=[O:6]"
C       -1.53040373      -0.21089670      -0.02505634
C       -0.12313474       0.20536630      -0.03139695
C        0.76048528       1.11543695      -0.04582382
N        2.49517474       0.13169614       0.02220632
N        2.15120831      -0.99391599       0.04756894
O        0.95700349      -1.43183209       0.08296514
H       -1.73598685      -0.81589954       0.85867282
H       -1.75076486      -0.81616034      -0.90500000
H       -2.19298573       0.65384557      -0.02064975
H        0.96940409       2.16235970       0.01651365
10
Frame=14 idx=004099 GeodesicLength=0.42541319652444626 rxn_smarts="[C:1]([c:2]1[c:3]([H:10])[n:4][n:5][o:6]1)([H:7])([H:8])[H:9]>>[C:1]([C:2]#[C:3][H:10])([H:7])([H:8])[H:9].[N-:4]=[N+:5]=[O:6]"
C       -1.53040564      -0.20909014      -0.02570148
C       -0.11879131       0.19388930      -0.03233753
C        0.76083830       1.11215294      -0.04550504
N        2.49793164       0.13198558       0.01964739
N        2.16134671      -0.99755927       0.04831458
O        0.95976321      -1.42978289       0.08795403
H       -1.73999146      -0.81472939       0.85672351
H       -1.75699789      -0.81020746      -0.90697525
H       -2.18612511       0.66070762      -0.01820378
H        0.95243155       2.16263370       0.01608356
10
Frame=15 idx=004099 GeodesicLength=0.45559546618666136 rxn_smarts="[C:1]([c:2]1[c:3]([H:10])[n:4][n:5][o:6]1)([H:7])([H:8])[H:9]>>[C:1]([C:2]#[C:3][H:10])([H:7])([H:8])[H:9].[N-:4]=[N+:5]=[O:6]"
C       -1.53032684      -0.20727385      -0.02652345
C       -0.11452503       0.18256004      -0.03243271
C        0.76113460       1.10895403      -0.04375604
N        2.50063077       0.13213643       0.01472281
N        2.17137407      -1.00121091       0.04846477
O        0.96248974      -1.42762385       0.09483657
H       -1.74454204      -0.81349160       0.85446461
H       -1.76240602      -0.80423683      -0.90926341
H       -2.17926834       0.66742981      -0.01645835
H        0.93543909       2.16275672       0.01594520
10
Frame=16 idx=004099 GeodesicLength=0.4857533819316994 rxn_smarts="[C:1]([c:2]1[c:3]([H:10])[n:4][n:5][o:6]1)([H:7])([H:8])[H:9]>>[C:1]([C:2]#[C:3][H:10])([H:7])([H:8])[H:9].[N-:4]=[N+:5]=[O:6]"
C       -1.53016326      -0.20545040      -0.02749508
C       -0.11033136       0.17138240      -0.03165626
C        0.76138427       1.10583936      -0.04049794
N        2.50323406       0.13213469       0.00767817
N        2.18128024      -1.00487728       0.04810725
O        0.96519483      -1.42534933       0.10340498
H       -1.74958932      -0.81230754       0.85184200
H       -1.76701949      -0.79813379      -0.91191944
H       -2.17241619       0.67401293      -0.01522269
H        0.91842622       2.16274895       0.01575901
