18
Frame=0 idx=011570 GeodesicLength=0.0 rxn_smarts="[C:1]([C:2]([C@@:3]([C:4]([H:14])([H:15])[H:16])([N:5]([C:6](=[O:7])[H:18])[H:17])[H:13])([H:11])[H:12])([H:8])([H:9])[H:10]>>[C:1](/[C:2](=[C:3](\[C:4]([H:14])([H:15])[H:16])[H:13])[H:12])([H:8])([H:9])[H:10].[N:5](=[C:6](/[O:7][H:11])[H:18])\[H:17]"
C       -1.89520947      -0.38098781      -0.24844254
C       -0.78796273       0.53267106      -0.72749379
C        0.20162631       0.99432527       0.14636788
C        0.15105096       0.78333473       1.62577479
N        1.91114273      -0.20023988      -0.17344856
C        1.62204707      -1.18948900      -0.96098300
O        0.84064691      -1.03780933      -1.95729990
H       -1.49404501      -1.28863150       0.21156963
H       -2.55513069       0.09411943       0.48421164
H       -2.51269615      -0.70174822      -1.08790642
H        0.01950781      -0.22580488      -1.50791646
H       -1.04727043       1.23547830      -1.51777729
H        0.76923932       1.85652908      -0.17681679
H       -0.61934120       1.44854963       2.03033611
H       -0.13209895      -0.23626393       1.88533798
H        1.09551833       1.02925419       2.10823819
H        2.43125283      -0.50706572       0.64021337
H        2.00172228      -2.20622145      -0.77396481
18
Frame=1 idx=011570 GeodesicLength=0.10713950749334626 rxn_smarts="[C:1]([C:2]([C@@:3]([C:4]([H:14])([H:15])[H:16])([N:5]([C:6](=[O:7])[H:18])[H:17])[H:13])([H:11])[H:12])([H:8])([H:9])[H:10]>>[C:1](/[C:2](=[C:3](\[C:4]([H:14])([H:15])[H:16])[H:13])[H:12])([H:8])([H:9])[H:10].[N:5](=[C:6](/[O:7][H:11])[H:18])\[H:17]"
C       -1.88790883      -0.40587930      -0.25384575
C       -0.79971427       0.53855981      -0.71534868
C        0.20697288       0.98422038       0.14931332
C        0.14853190       0.82266923       1.63450269
N        1.89715752      -0.24182279      -0.14230631
C        1.62968321      -1.19750666      -0.97847111
O        0.87094865      -1.00553670      -1.98528907
H       -1.46420109      -1.31036756       0.19202305
H       -2.55769805       0.04111486       0.48719770
H       -2.49983703      -0.72633351      -1.09760762
H        0.01454922      -0.19487570      -1.52890967
H       -1.09156394       1.26501737      -1.47246867
H        0.78593005       1.83339411      -0.19054515
H       -0.59923905       1.52383612       2.01982785
H       -0.16244334      -0.17948590       1.92793863
H        1.10215567       1.05289570       2.10713322
H        2.39720610      -0.58045881       0.67107168
H        2.00947038      -2.21944066      -0.82421610
18
Frame=2 idx=011570 GeodesicLength=0.21269512946491945 rxn_smarts="[C:1]([C:2]([C@@:3]([C:4]([H:14])([H:15])[H:16])([N:5]([C:6](=[O:7])[H:18])[H:17])[H:13])([H:11])[H:12])([H:8])([H:9])[H:10]>>[C:1](/[C:2](=[C:3](\[C:4]([H:14])([H:15])[H:16])[H:13])[H:12])([H:8])([H:9])[H:10].[N:5](=[C:6](/[O:7][H:11])[H:18])\[H:17]"
C       -1.88134569      -0.42973811      -0.25976305
C       -0.81189633       0.54393990      -0.70293716
C        0.21136871       0.97382682       0.15248109
C        0.14731261       0.86060731       1.64186177
N        1.88163030      -0.28278387      -0.11272965
C        1.63880839      -1.20432685      -0.99450906
O        0.90172305      -0.97466806      -2.00956815
H       -1.43619783      -1.33097582       0.17168138
H       -2.55997206      -0.01112186       0.48948107
H       -2.48804665      -0.74871645      -1.10803032
H        0.00872943      -0.16461989      -1.54828746
H       -1.13537982       1.29257175      -1.42506997
H        0.80088744       1.80991907      -0.20380784
H       -0.57583852       1.59682143       2.00790230
H       -0.19237616      -0.12218599       1.96729955
H        1.10992753       1.07301993       2.10502772
H        2.36095993      -0.65179662       0.69969436
H        2.01970569      -2.22977269      -0.87072657
18
Frame=3 idx=011570 GeodesicLength=0.3169433543862596 rxn_smarts="[C:1]([C:2]([C@@:3]([C:4]([H:14])([H:15])[H:16])([N:5]([C:6](=[O:7])[H:18])[H:17])[H:13])([H:11])[H:12])([H:8])([H:9])[H:10]>>[C:1](/[C:2](=[C:3](\[C:4]([H:14])([H:15])[H:16])[H:13])[H:12])([H:8])([H:9])[H:10].[N:5](=[C:6](/[O:7][H:11])[H:18])\[H:17]"
C       -1.87562605      -0.45255012      -0.26620263
C       -0.82454608       0.54884197      -0.69027774
C        0.21482592       0.96316869       0.15580855
C        0.14737519       0.89717897       1.64791938
N        1.86474821      -0.32299673      -0.08469331
C        1.64948096      -1.21001609      -1.00897284
O        0.93288460      -0.94536519      -2.03034556
H       -1.41008554      -1.35059357       0.15028307
H       -2.56195803      -0.06263505       0.49118855
H       -2.47759148      -0.76874352      -1.11910849
H        0.00202184      -0.13504883      -1.56619771
H       -1.17878322       1.31816258      -1.37557074
H        0.81405539       1.78621698      -0.21668624
H       -0.54916362       1.66742244       1.99459983
H       -0.22171140      -0.06436809       2.00353647
H        1.11865125       1.08977951       2.10207107
H        2.32280502      -0.72100157       0.72609982
H        2.03261702      -2.23745237      -0.91345149
18
Frame=4 idx=011570 GeodesicLength=0.42010538840487277 rxn_smarts="[C:1]([C:2]([C@@:3]([C:4]([H:14])([H:15])[H:16])([N:5]([C:6](=[O:7])[H:18])[H:17])[H:13])([H:11])[H:12])([H:8])([H:9])[H:10]>>[C:1](/[C:2](=[C:3](\[C:4]([H:14])([H:15])[H:16])[H:13])[H:12])([H:8])([H:9])[H:10].[N:5](=[C:6](/[O:7][H:11])[H:18])\[H:17]"
C       -1.87079113      -0.47434967      -0.27318945
C       -0.83768951       0.55331305      -0.67737951
C        0.21736655       0.95227943       0.15924747
C        0.14869799       0.93242729       1.65274396
N        1.84670248      -0.36234124      -0.05817319
C        1.66174435      -1.21461336      -1.02178447
O        0.96439653      -0.91766150      -2.04788656
H       -1.38579299      -1.36936001       0.12752599
H       -2.56359111      -0.11357950       0.49244537
H       -2.46866853      -0.78633366      -1.13077114
H       -0.00557592      -0.10608349      -1.58280518
H       -1.22184826       1.34177563      -1.32393455
H        0.82539937       1.76240824      -0.22924724
H       -0.51927857       1.73556804       1.97995072
H       -0.25026095      -0.00599774       2.03677609
H        1.12815242       1.10337276       2.09839351
H        2.28302219      -0.78803709       0.75031930
H        2.04801510      -2.24278717      -0.95223111
18
Frame=5 idx=011570 GeodesicLength=0.5223164089618685 rxn_smarts="[C:1]([C:2]([C@@:3]([C:4]([H:14])([H:15])[H:16])([N:5]([C:6](=[O:7])[H:18])[H:17])[H:13])([H:11])[H:12])([H:8])([H:9])[H:10]>>[C:1](/[C:2](=[C:3](\[C:4]([H:14])([H:15])[H:16])[H:13])[H:12])([H:8])([H:9])[H:10].[N:5](=[C:6](/[O:7][H:11])[H:18])\[H:17]"
C       -1.86684803      -0.49517256      -0.28071303
C       -0.85135038       0.55740287      -0.66423937
C        0.21906090       0.94110672       0.16279356
C        0.15114472       0.96643793       1.65642285
N        1.82759427      -0.40092311      -0.03306771
C        1.67549537      -1.21826279      -1.03300037
O        0.99604656      -0.89179510      -2.06226575
H       -1.36325734      -1.38739615       0.10312140
H       -2.56475995      -0.16412841       0.49340821
H       -2.46142014      -0.80133661      -1.14290481
H       -0.01406667      -0.07760564      -1.59828835
H       -1.26466850       1.36341457      -1.27024956
H        0.83501882       1.73845249      -0.24151606
H       -0.48618880       1.80150314       1.96393904
H       -0.27812118       0.05301363       2.06731315
H        1.13815387       1.11394595       2.09416771
H        2.24195810      -0.85285018       0.77248954
H        2.06620838      -2.24580677      -0.98741044
18
Frame=6 idx=011570 GeodesicLength=0.6238138852256196 rxn_smarts="[C:1]([C:2]([C@@:3]([C:4]([H:14])([H:15])[H:16])([N:5]([C:6](=[O:7])[H:18])[H:17])[H:13])([H:11])[H:12])([H:8])([H:9])[H:10]>>[C:1](/[C:2](=[C:3](\[C:4]([H:14])([H:15])[H:16])[H:13])[H:12])([H:8])([H:9])[H:10].[N:5](=[C:6](/[O:7][H:11])[H:18])\[H:17]"
C       -1.86377112      -0.51510261      -0.28881893
C       -0.86554531       0.56115408      -0.65084261
C        0.21989763       0.92975296       0.16638722
C        0.15474475       0.99928934       1.65899176
N        1.80764848      -0.43853011      -0.00935990
C        1.69081787      -1.22089188      -1.04249799
O        1.02800500      -0.86752696      -2.07390777
H       -1.34227995      -1.40478167       0.07677395
H       -2.56535861      -0.21452616       0.49410183
H       -2.45596457      -0.81383487      -1.15544228
H       -0.02344259      -0.04943085      -1.61278622
H       -1.30728408       1.38304444      -1.21429853
H        0.84283320       1.71453912      -0.25359947
H       -0.45006850       1.86492051       1.94655974
H       -0.30492728       0.11271605       2.09518047
H        1.14854236       1.12182187       2.08946218
H        2.19979522      -0.91554087       0.79261050
H        2.08635749      -2.24707241      -1.01851396
18
Frame=7 idx=011570 GeodesicLength=0.7247090625812382 rxn_smarts="[C:1]([C:2]([C@@:3]([C:4]([H:14])([H:15])[H:16])([N:5]([C:6](=[O:7])[H:18])[H:17])[H:13])([H:11])[H:12])([H:8])([H:9])[H:10]>>[C:1](/[C:2](=[C:3](\[C:4]([H:14])([H:15])[H:16])[H:13])[H:12])([H:8])([H:9])[H:10].[N:5](=[C:6](/[O:7][H:11])[H:18])\[H:17]"
C       -1.86162074      -0.53413210      -0.29750256
C       -0.88030595       0.56460741      -0.63716568
C        0.21989670       0.91821621       0.17000833
C        0.15945926       1.03105313       1.66049614
N        1.78692753      -0.47523156       0.01303954
C        1.70764001      -1.22256834      -1.05017487
O        1.06018709      -0.84500321      -2.08293925
H       -1.32284404      -1.42151650       0.04828002
H       -2.56533394      -0.26483172       0.49458698
H       -2.45252061      -0.82376512      -1.16828191
H       -0.03375391      -0.02147936      -1.62639319
H       -1.34969405       1.40061540      -1.15605637
H        0.84889195       1.69066609      -0.26556052
H       -0.41103671       1.92577828       1.92777343
H       -0.33058772       0.17321491       2.12054328
H        1.15916702       1.12719840       2.08435248
H        2.15667272      -0.97623288       0.81077999
H        2.10885539      -2.24658904      -1.04578584
18
Frame=8 idx=011570 GeodesicLength=0.8251013685932328 rxn_smarts="[C:1]([C:2]([C@@:3]([C:4]([H:14])([H:15])[H:16])([N:5]([C:6](=[O:7])[H:18])[H:17])[H:13])([H:11])[H:12])([H:8])([H:9])[H:10]>>[C:1](/[C:2](=[C:3](\[C:4]([H:14])([H:15])[H:16])[H:13])[H:12])([H:8])([H:9])[H:10].[N:5](=[C:6](/[O:7][H:11])[H:18])\[H:17]"
C       -1.86036237      -0.55230713      -0.30678405
C       -0.89565669       0.56781134      -0.62317858
C        0.21907654       0.90653634       0.17363726
C        0.16525971       1.06180110       1.66096634
N        1.76553770      -0.51099321       0.03418225
C        1.72590127      -1.22332411      -1.05595384
O        1.09260194      -0.82418281      -2.08956302
H       -1.30480779      -1.43759319       0.01736856
H       -2.56454900      -0.31525317       0.49487472
H       -2.45116795      -0.83113200      -1.18132587
H       -0.04502471       0.00644538      -1.63921557
H       -1.39192169       1.41603026      -1.09544822
H        0.85320921       1.66689487      -0.27745752
H       -0.36924140       1.98399459       1.90757519
H       -0.35492125       0.23457192       2.14352204
H        1.16989871       1.13029498       2.07888288
H        2.11273702      -1.03500191       0.82704201
H        2.13343075      -2.24459327      -1.06912460
18
Frame=9 idx=011570 GeodesicLength=0.9251113844156851 rxn_smarts="[C:1]([C:2]([C@@:3]([C:4]([H:14])([H:15])[H:16])([N:5]([C:6](=[O:7])[H:18])[H:17])[H:13])([H:11])[H:12])([H:8])([H:9])[H:10]>>[C:1](/[C:2](=[C:3](\[C:4]([H:14])([H:15])[H:16])[H:13])[H:12])([H:8])([H:9])[H:10].[N:5](=[C:6](/[O:7][H:11])[H:18])\[H:17]"
C       -1.85992684      -0.56971395      -0.31667144
C       -0.91162269       0.57080620      -0.60882357
C        0.21749542       0.89467586       0.17728811
C        0.17201692       1.09163036       1.66045021
N        1.74349260      -0.54599777       0.05419742
C        1.74538930      -1.22327932      -1.05986222
O        1.12519441      -0.80509782      -2.09388718
H       -1.28801510      -1.45299431      -0.01622162
H       -2.56281850      -0.36605602       0.49499561
H       -2.45191320      -0.83595177      -1.19440054
H       -0.05729857       0.03460027      -1.65139554
H       -1.43405013       1.42922595      -1.03248125
H        0.85590562       1.64314496      -0.28931934
H       -0.32461492       2.03985173       1.88589374
H       -0.37801248       0.29690429       2.16428255
H        1.18050088       1.13129056       2.07319118
H        2.06815976      -1.09196088       0.84156105
H        2.16011753      -2.24107835      -1.08879718
18
Frame=10 idx=011570 GeodesicLength=1.024807136407254 rxn_smarts="[C:1]([C:2]([C@@:3]([C:4]([H:14])([H:15])[H:16])([N:5]([C:6](=[O:7])[H:18])[H:17])[H:13])([H:11])[H:12])([H:8])([H:9])[H:10]>>[C:1](/[C:2](=[C:3](\[C:4]([H:14])([H:15])[H:16])[H:13])[H:12])([H:8])([H:9])[H:10].[N:5](=[C:6](/[O:7][H:11])[H:18])\[H:17]"
C       -1.86035930      -0.58632035      -0.32719007
C       -0.92823848       0.57362378      -0.59406323
C        0.21511949       0.88271274       0.18091949
C        0.17981403       1.12056897       1.65892078
N        1.72084833      -0.58016724       0.07309417
C        1.76613613      -1.22239529      -1.06168169
O        1.15806017      -0.78770503      -2.09610124
H       -1.27244109      -1.46756310      -0.05265097
H       -2.56009770      -0.41731246       0.49482205
H       -2.45493754      -0.83824031      -1.20740626
H       -0.07065187       0.06311087      -1.66294303
H       -1.47600187       1.44003278      -0.96693954
H        0.85692300       1.61951511      -0.30123170
H       -0.27744783       2.09294732       1.86267825
H       -0.39949686       0.36025572       2.18282483
H        1.19098889       1.13040189       2.06720942
H        2.02294830      -1.14724996       0.85428386
H        2.18883418      -2.23621543      -1.10454511
18
Frame=11 idx=011570 GeodesicLength=1.1242131685628254 rxn_smarts="[C:1]([C:2]([C@@:3]([C:4]([H:14])([H:15])[H:16])([N:5]([C:6](=[O:7])[H:18])[H:17])[H:13])([H:11])[H:12])([H:8])([H:9])[H:10]>>[C:1](/[C:2](=[C:3](\[C:4]([H:14])([H:15])[H:16])[H:13])[H:12])([H:8])([H:9])[H:10].[N:5](=[C:6](/[O:7][H:11])[H:18])\[H:17]"
C       -1.86163793      -0.60214325      -0.33834329
C       -0.94553162       0.57628577      -0.57883671
C        0.21197223       0.87066122       0.18452065
C        0.18865191       1.14867526       1.65638040
N        1.69760002      -0.61358512       0.09094563
C        1.78802057      -1.22071842      -1.06134286
O        1.19120667      -0.77200266      -2.09629484
H       -1.25802327      -1.48115937      -0.09209423
H       -2.55628660      -0.46915957       0.49425147
H       -2.46030133      -0.83804268      -1.22023803
H       -0.08516620       0.09216137      -1.67390662
H       -1.51775525       1.44831397      -0.89872509
H        0.85630812       1.59598912      -0.31324932
H       -0.22791824       2.14323138       1.83787312
H       -0.41919072       0.42467851       2.19923054
H        1.20130008       1.12783930       2.06093666
H        1.97715359      -1.20101369       0.86527088
H        2.21959798      -2.23001115      -1.11637835
18
Frame=12 idx=011570 GeodesicLength=1.2234038856017044 rxn_smarts="[C:1]([C:2]([C@@:3]([C:4]([H:14])([H:15])[H:16])([N:5]([C:6](=[O:7])[H:18])[H:17])[H:13])([H:11])[H:12])([H:8])([H:9])[H:10]>>[C:1](/[C:2](=[C:3](\[C:4]([H:14])([H:15])[H:16])[H:13])[H:12])([H:8])([H:9])[H:10].[N:5](=[C:6](/[O:7][H:11])[H:18])\[H:17]"
C       -1.86372958      -0.61721054      -0.35016379
C       -0.96354149       0.57882334      -0.56306517
C        0.20806561       0.85854639       0.18808206
C        0.19853884       1.17598905       1.65282054
N        1.67372380      -0.64631365       0.10780704
C        1.81091269      -1.21830652      -1.05873636
O        1.22472245      -0.75788692      -2.09459414
H       -1.24467340      -1.49359546      -0.13470208
H       -2.55127949      -0.52175343       0.49311302
H       -2.46801928      -0.83543674      -1.23276503
H       -0.10095352       0.12198897      -1.68432857
H       -1.55929397       1.45385400      -0.82772586
H        0.85408565       1.57256524      -0.32542191
H       -0.17616581       2.19064347       1.81141818
H       -0.43688518       0.49019894       2.21355379
H        1.21139035       1.12381037       2.05435960
H        1.93083612      -1.25335146       0.87456164
H        2.25226620      -2.22256506      -1.12421293
18
Frame=13 idx=011570 GeodesicLength=1.3225035954296094 rxn_smarts="[C:1]([C:2]([C@@:3]([C:4]([H:14])([H:15])[H:16])([N:5]([C:6](=[O:7])[H:18])[H:17])[H:13])([H:11])[H:12])([H:8])([H:9])[H:10]>>[C:1](/[C:2](=[C:3](\[C:4]([H:14])([H:15])[H:16])[H:13])[H:12])([H:8])([H:9])[H:10].[N:5](=[C:6](/[O:7][H:11])[H:18])\[H:17]"
C       -1.86645873      -0.63164813      -0.36272700
C       -0.98227720       0.58125331      -0.54664227
C        0.20344097       0.84639666       0.19162059
C        0.20939157       1.20261005       1.64824338
N        1.64928403      -0.67838093       0.12376443
C        1.83451936      -1.21536917      -1.05385983
O        1.25888580      -0.74498480      -2.09108391
H       -1.23215493      -1.50472813      -0.18080524
H       -2.54477459      -0.57549717       0.49119650
H       -2.47792824      -0.83056860      -1.24485268
H       -0.11809803       0.15303107      -1.69428273
H       -1.60063681       1.45643741      -0.75380140
H        0.85031786       1.54924157      -0.33776192
H       -0.12233791       2.23523528       1.78327137
H       -0.45244924       0.55677225       2.22582620
H        1.22112465       1.11865329       2.04751417
H        1.88449627      -1.30401262       0.88236284
H        2.28565519      -2.21444135      -1.12798250
18
Frame=14 idx=011570 GeodesicLength=1.421473203559471 rxn_smarts="[C:1]([C:2]([C@@:3]([C:4]([H:14])([H:15])[H:16])([N:5]([C:6](=[O:7])[H:18])[H:17])[H:13])([H:11])[H:12])([H:8])([H:9])[H:10]>>[C:1](/[C:2](=[C:3](\[C:4]([H:14])([H:15])[H:16])[H:13])[H:12])([H:8])([H:9])[H:10].[N:5](=[C:6](/[O:7][H:11])[H:18])\[H:17]"
C       -1.86993507      -0.64533878      -0.37601834
C       -1.00180986       0.58357938      -0.52949400
C        0.19806841       0.83423025       0.19509173
C        0.22134811       1.22853084       1.64258343
N        1.62407046      -0.70995524       0.13883281
C        1.85887487      -1.21180848      -1.04649334
O        1.29361396      -0.73350055      -2.08580761
H       -1.22061409      -1.51418476      -0.23036100
H       -2.53685072      -0.63029902       0.48822867
H       -2.49021099      -0.82342297      -1.25638295
H       -0.13679628       0.18534243      -1.70369901
H       -1.64166830       1.45576144      -0.67671337
H        0.84497409       1.52598089      -0.35037702
H       -0.06668135       2.27682840       1.75326586
H       -0.46556006       0.62447574       2.23609357
H        1.23065128       1.11245792       2.04024807
H        1.83776408      -1.35346861       0.88859713
H        2.32076144      -2.20520888      -1.12759464
18
Frame=15 idx=011570 GeodesicLength=1.5203448989268256 rxn_smarts="[C:1]([C:2]([C@@:3]([C:4]([H:14])([H:15])[H:16])([N:5]([C:6](=[O:7])[H:18])[H:17])[H:13])([H:11])[H:12])([H:8])([H:9])[H:10]>>[C:1](/[C:2](=[C:3](\[C:4]([H:14])([H:15])[H:16])[H:13])[H:12])([H:8])([H:9])[H:10].[N:5](=[C:6](/[O:7][H:11])[H:18])\[H:17]"
C       -1.87411158      -0.65830097      -0.39009188
C       -1.02217259       0.58579505      -0.51150389
C        0.19196457       0.82206337       0.19848349
C        0.23443711       1.25378879       1.63579728
N        1.59800731      -0.74112125       0.15305253
C        1.88380919      -1.20771991      -1.03654425
O        1.32907547      -0.72326846      -2.07878786
H       -1.21001672      -1.52168139      -0.28349859
H       -2.52739334      -0.68631518       0.48390506
H       -2.50481959      -0.81410635      -1.26725811
H       -0.15722026       0.21921571      -1.71256481
H       -1.68230571       1.45151981      -0.59626840
H        0.83807095       1.50275343      -0.36331653
H       -0.00943574       2.31537969       1.72132291
H       -0.47594786       0.69323176       2.24436348
H        1.24002531       1.10551098       2.03245558
H        1.79076999      -1.40172708       0.89337666
H        2.35726350      -2.19501799      -1.12292268
18
Frame=16 idx=011570 GeodesicLength=1.6192002440938351 rxn_smarts="[C:1]([C:2]([C@@:3]([C:4]([H:14])([H:15])[H:16])([N:5]([C:6](=[O:7])[H:18])[H:17])[H:13])([H:11])[H:12])([H:8])([H:9])[H:10]>>[C:1](/[C:2](=[C:3](\[C:4]([H:14])([H:15])[H:16])[H:13])[H:12])([H:8])([H:9])[H:10].[N:5](=[C:6](/[O:7][H:11])[H:18])\[H:17]"
C       -1.87898571      -0.67050749      -0.40499101
C       -1.04342417       0.58789240      -0.49253840
C        0.18512666       0.80990921       0.20176990
C        0.24870438       1.27842991       1.62780128
N        1.57092992      -0.77204445       0.16646012
C        1.90922001      -1.20316214      -1.02388514
O        1.36541823      -0.71419985      -2.07002648
H       -1.20041382      -1.52684943      -0.34031088
H       -2.51632347      -0.74364705       0.47786904
H       -2.52173926      -0.80269609      -1.27733384
H       -0.17960986       0.25494492      -1.72082973
H       -1.72242739       1.44330583      -0.51221635
H        0.82960564       1.47950480      -0.37666531
H        0.04921032       2.35085092       1.68731789
H       -0.48334464       0.76299423       2.25062723
H        1.24933016       1.09804888       2.02398287
H        1.74350495      -1.44892686       0.89680071
H        2.39521805      -2.18384774      -1.11383192
