14
Frame=0 idx=010520 GeodesicLength=0.0 rxn_smarts="[C:1](/[C:2](=[N:3]\[H:11])[O:4][C:5]([C:6](=[O:7])[H:14])([H:12])[H:13])([H:8])([H:9])[H:10]>>[C:1](=[C:2]([N:3]([H:9])[H:11])[O:4][C:5]([C:6](=[O:7])[H:14])([H:12])[H:13])([H:8])[H:10]"
C       -2.28991458      -0.44825688      -0.14811234
C       -0.91847568      -0.12160590       0.05431386
N       -0.83441349       1.18267999       0.23913663
O        0.07999879      -0.99311811       0.14632031
C        1.33699839      -0.50693114       0.58381226
C        2.10945737       0.14517802      -0.54480107
O        3.08507824       0.81338968      -0.36174912
H       -2.66860846      -1.40427122       0.19965725
H       -2.09891299       1.01948708       0.20151107
H       -2.62802219      -0.18090778      -1.14668857
H       -0.00823014       1.72320919      -0.00608670
H        1.22208829       0.19707664       1.41251622
H        1.90203247      -1.37356569       0.93226038
H        1.71092400      -0.05236382      -1.56209021
14
Frame=1 idx=010520 GeodesicLength=0.052673521712870604 rxn_smarts="[C:1](/[C:2](=[N:3]\[H:11])[O:4][C:5]([C:6](=[O:7])[H:14])([H:12])[H:13])([H:8])([H:9])[H:10]>>[C:1](=[C:2]([N:3]([H:9])[H:11])[O:4][C:5]([C:6](=[O:7])[H:14])([H:12])[H:13])([H:8])[H:10]"
C       -2.28787405      -0.44581135      -0.13941103
C       -0.91312696      -0.11836827       0.03384681
N       -0.82444867       1.18165664       0.24822532
O        0.08052079      -0.99591000       0.13229002
C        1.33536876      -0.51571684       0.58199172
C        2.11643988       0.14975541      -0.53257013
O        3.09627771       0.80765347      -0.33496746
H       -2.65545568      -1.40128143       0.22159916
H       -2.10270631       1.02717376       0.20754728
H       -2.64579635      -0.18816057      -1.13350186
H       -0.03447575       1.73512660      -0.07267007
H        1.21875389       0.17707837       1.41971038
H        1.89725923      -1.38770090       0.92234774
H        1.71926351      -0.02549489      -1.55443789
14
Frame=2 idx=010520 GeodesicLength=0.10571554785355936 rxn_smarts="[C:1](/[C:2](=[N:3]\[H:11])[O:4][C:5]([C:6](=[O:7])[H:14])([H:12])[H:13])([H:8])([H:9])[H:10]>>[C:1](=[C:2]([N:3]([H:9])[H:11])[O:4][C:5]([C:6](=[O:7])[H:14])([H:12])[H:13])([H:8])[H:10]"
C       -2.28583570      -0.44292083      -0.12844697
C       -0.90780561      -0.11489615       0.01165234
N       -0.81256773       1.18110678       0.25060938
O        0.08117436      -0.99851579       0.11452893
C        1.33324071      -0.52546220       0.57903358
C        2.12406194       0.15585282      -0.51873774
O        3.10762258       0.80286546      -0.30413546
H       -2.64158455      -1.39660743       0.24898364
H       -2.10511957       1.03610182       0.21187254
H       -2.66575940      -0.19773604      -1.11741799
H       -0.06329615       1.74590409      -0.13909766
H        1.21346074       0.15414211       1.42692903
H        1.89172427      -1.40334986       0.90995013
H        1.73068411       0.00351521      -1.54572374
14
Frame=3 idx=010520 GeodesicLength=0.15910913072097116 rxn_smarts="[C:1](/[C:2](=[N:3]\[H:11])[O:4][C:5]([C:6](=[O:7])[H:14])([H:12])[H:13])([H:8])([H:9])[H:10]>>[C:1](=[C:2]([N:3]([H:9])[H:11])[O:4][C:5]([C:6](=[O:7])[H:14])([H:12])[H:13])([H:8])[H:10]"
C       -2.28343842      -0.43956553      -0.11587701
C       -0.90263374      -0.11129053      -0.01139706
N       -0.79914138       1.18111881       0.24743201
O        0.08191756      -1.00092861       0.09412067
C        1.33068397      -0.53596240       0.57517668
C        2.13185227       0.16301943      -0.50362507
O        3.11861535       0.79867042      -0.27035859
H       -2.62661815      -1.39038071       0.28014441
H       -2.10644387       1.04603970       0.21499597
H       -2.68666292      -0.20904428      -1.09901596
H       -0.09448992       1.75552822      -0.20515499
H        1.20656419       0.12885959       1.43400424
H        1.88570808      -1.42005590       0.89548243
H        1.74408695       0.03399181      -1.53592773
14
Frame=4 idx=010520 GeodesicLength=0.2128574475612754 rxn_smarts="[C:1](/[C:2](=[N:3]\[H:11])[O:4][C:5]([C:6](=[O:7])[H:14])([H:12])[H:13])([H:8])([H:9])[H:10]>>[C:1](=[C:2]([N:3]([H:9])[H:11])[O:4][C:5]([C:6](=[O:7])[H:14])([H:12])[H:13])([H:8])[H:10]"
C       -2.28044655      -0.43575093      -0.10216284
C       -0.89765047      -0.10762894      -0.03489206
N       -0.78444607       1.18173842       0.23938817
O        0.08275355      -1.00314492       0.07177232
C        1.32774042      -0.54703929       0.57057333
C        2.13953409       0.17088295      -0.48744983
O        3.12894939       0.79476250      -0.23437597
H       -2.61026225      -1.38272003       0.31392787
H       -2.10686469       1.05677906       0.21735956
H       -2.70780242      -0.22162722      -1.07863848
H       -0.12789760       1.76400280      -0.27051485
H        1.19826335       0.10174782       1.44072196
H        1.87936695      -1.43743818       0.87931524
H        1.75876230       0.06543596      -1.52502444
14
Frame=5 idx=010520 GeodesicLength=0.2666312926819931 rxn_smarts="[C:1](/[C:2](=[N:3]\[H:11])[O:4][C:5]([C:6](=[O:7])[H:14])([H:12])[H:13])([H:8])([H:9])[H:10]>>[C:1](=[C:2]([N:3]([H:9])[H:11])[O:4][C:5]([C:6](=[O:7])[H:14])([H:12])[H:13])([H:8])[H:10]"
C       -2.27683235      -0.43149723      -0.08760080
C       -0.89275862      -0.10400048      -0.05898225
N       -0.76877015       1.18286067       0.22722106
O        0.08374295      -1.00521898       0.04789961
C        1.32446481      -0.55853645       0.56535846
C        2.14702848       0.17915490      -0.47033850
O        3.13846900       0.79104042      -0.19665568
H       -2.59254357      -1.37383411       0.34948431
H       -2.10640741       1.06809916       0.21948466
H       -2.72906329      -0.23492389      -1.05638166
H       -0.16319381       1.77119899      -0.33529260
H        1.18861404       0.07325479       1.44690042
H        1.87287528      -1.45514751       0.86190926
H        1.77437463       0.09754972      -1.51300630
14
Frame=6 idx=010520 GeodesicLength=0.3206623941272104 rxn_smarts="[C:1](/[C:2](=[N:3]\[H:11])[O:4][C:5]([C:6](=[O:7])[H:14])([H:12])[H:13])([H:8])([H:9])[H:10]>>[C:1](=[C:2]([N:3]([H:9])[H:11])[O:4][C:5]([C:6](=[O:7])[H:14])([H:12])[H:13])([H:8])[H:10]"
C       -2.27236290      -0.42679976      -0.07263549
C       -0.88807599      -0.10045018      -0.08298332
N       -0.75228569       1.18450488       0.21146972
O        0.08482187      -1.00713921       0.02320864
C        1.32089571      -0.57029070       0.55968530
C        2.15408116       0.18752510      -0.45256110
O        3.14702365       0.78715638      -0.15794506
H       -2.57324061      -1.36379563       0.38577905
H       -2.10524962       1.07987495       0.22164417
H       -2.74959510      -0.24865959      -1.03275916
H       -0.20047188       1.77719909      -0.39897001
H        1.17793022       0.04387414       1.45243195
H        1.86632360      -1.47289702       0.84356723
H        1.79020557       0.12989754      -1.49993190
14
Frame=7 idx=010520 GeodesicLength=0.3749119843103702 rxn_smarts="[C:1](/[C:2](=[N:3]\[H:11])[O:4][C:5]([C:6](=[O:7])[H:14])([H:12])[H:13])([H:8])([H:9])[H:10]>>[C:1](=[C:2]([N:3]([H:9])[H:11])[O:4][C:5]([C:6](=[O:7])[H:14])([H:12])[H:13])([H:8])[H:10]"
C       -2.26704977      -0.42170217      -0.05752381
C       -0.88355202      -0.09697968      -0.10689997
N       -0.73517334       1.18660731       0.19252223
O        0.08600235      -1.00890717      -0.00195745
C        1.31708097      -0.58216395       0.55364437
C        2.16065975       0.19576774      -0.43429318
O        3.15459826       0.78296560      -0.11868793
H       -2.55242944      -1.35272468       0.42232286
H       -2.10345050       1.09198125       0.22398008
H       -2.76922631      -0.26263252      -1.00803348
H       -0.23958501       1.78204012      -0.46101799
H        1.16634656       0.01399804       1.45719269
H        1.85978260      -1.49044655       0.82461581
H        1.80599590       0.16219665      -1.48586423
14
Frame=8 idx=010520 GeodesicLength=0.4293782110338806 rxn_smarts="[C:1](/[C:2](=[N:3]\[H:11])[O:4][C:5]([C:6](=[O:7])[H:14])([H:12])[H:13])([H:8])([H:9])[H:10]>>[C:1](=[C:2]([N:3]([H:9])[H:11])[O:4][C:5]([C:6](=[O:7])[H:14])([H:12])[H:13])([H:8])[H:10]"
C       -2.26084292      -0.41623767      -0.04243650
C       -0.87917840      -0.09362428      -0.13076712
N       -0.71759500       1.18908190       0.17068615
O        0.08728873      -1.01053725      -0.02742093
C        1.31301348      -0.59405921       0.54728809
C        2.16674309       0.20369142      -0.41564849
O        3.16117041       0.77833814      -0.07913072
H       -2.53002484      -1.34068936       0.45874449
H       -2.10104300       1.10434235       0.22663190
H       -2.78782107      -0.27671228      -0.98230818
H       -0.28040048       1.78582350      -0.52117646
H        1.15392070      -0.01605563       1.46107072
H        1.85322451      -1.50764056       0.80530917
H        1.82154478       0.19427892      -1.47084213
14
Frame=9 idx=010520 GeodesicLength=0.48380432281468866 rxn_smarts="[C:1](/[C:2](=[N:3]\[H:11])[O:4][C:5]([C:6](=[O:7])[H:14])([H:12])[H:13])([H:8])([H:9])[H:10]>>[C:1](=[C:2]([N:3]([H:9])[H:11])[O:4][C:5]([C:6](=[O:7])[H:14])([H:12])[H:13])([H:8])[H:10]"
C       -2.25386439      -0.41042699      -0.02754438
C       -0.87485528      -0.09040332      -0.15479364
N       -0.69970511       1.19179655       0.14654193
O        0.08870424      -1.01208487      -0.05296667
C        1.30877346      -0.60586207       0.54072940
C        2.17237821       0.21119360      -0.39675073
O        3.16680466       0.77329250      -0.03958599
H       -2.50636977      -1.32790783       0.49463514
H       -2.09799047       1.11681934       0.22982330
H       -2.80550766      -0.29054864      -0.95572974
H       -0.32270437       1.78840899      -0.57946630
H        1.14076515      -0.04598722       1.46408511
H        1.84680256      -1.52429354       0.78599557
H        1.83676878       0.22600349      -1.45497301
14
Frame=10 idx=010520 GeodesicLength=0.5383502755682145 rxn_smarts="[C:1](/[C:2](=[N:3]\[H:11])[O:4][C:5]([C:6](=[O:7])[H:14])([H:12])[H:13])([H:8])([H:9])[H:10]>>[C:1](=[C:2]([N:3]([H:9])[H:11])[O:4][C:5]([C:6](=[O:7])[H:14])([H:12])[H:13])([H:8])[H:10]"
C       -2.24599561      -0.40431483      -0.01301372
C       -0.87067909      -0.08733081      -0.17876148
N       -0.68161525       1.19472197       0.12002835
O        0.09020983      -1.01352071      -0.07842803
C        1.30430707      -0.61749938       0.53400885
C        2.17749694       0.21811092      -0.37775038
O        3.17148392       0.76765915      -0.00031961
H       -2.48121530      -1.31433790       0.52972135
H       -2.09431207       1.12937875       0.23358066
H       -2.82191002      -0.30423672      -0.92852024
H       -0.36654191       1.79009126      -0.63522411
H        1.12693541      -0.07550562       1.46615645
H        1.84036923      -1.54034013       0.76685614
H        1.85146684       0.25712407      -1.43833422
14
Frame=11 idx=010520 GeodesicLength=0.593040237161814 rxn_smarts="[C:1](/[C:2](=[N:3]\[H:11])[O:4][C:5]([C:6](=[O:7])[H:14])([H:12])[H:13])([H:8])([H:9])[H:10]>>[C:1](=[C:2]([N:3]([H:9])[H:11])[O:4][C:5]([C:6](=[O:7])[H:14])([H:12])[H:13])([H:8])[H:10]"
C       -2.23729653      -0.39793724       0.00103996
C       -0.86660397      -0.08445148      -0.20272701
N       -0.66342221       1.19775184       0.09134707
O        0.09182238      -1.01489446      -0.10368228
C        1.29964426      -0.62889262       0.52718503
C        2.18212346       0.22438501      -0.35874470
O        3.17526478       0.76144154       0.03847840
H       -2.45473822      -1.30009383       0.56377526
H       -2.09000854       1.14196136       0.23801480
H       -2.83704527      -0.31765031      -0.90081307
H       -0.41180922       1.79099348      -0.68825205
H        1.11251603      -0.10439058       1.46727818
H        1.83394745      -1.55567400       0.74809066
H        1.86560560       0.28745130      -1.42099024
14
Frame=12 idx=010520 GeodesicLength=0.6478954878148736 rxn_smarts="[C:1](/[C:2](=[N:3]\[H:11])[O:4][C:5]([C:6](=[O:7])[H:14])([H:12])[H:13])([H:8])([H:9])[H:10]>>[C:1](=[C:2]([N:3]([H:9])[H:11])[O:4][C:5]([C:6](=[O:7])[H:14])([H:12])[H:13])([H:8])[H:10]"
C       -2.22777446      -0.39132858       0.01458734
C       -0.86262595      -0.08181640      -0.22684245
N       -0.64520239       1.20079799       0.06055029
O        0.09355666      -1.01623728      -0.12878201
C        1.29474630      -0.64000732       0.52026875
C        2.18627521       0.22998678      -0.33976181
O        3.17813155       0.75468411       0.07681424
H       -2.42690852      -1.28521542       0.59673612
H       -2.08500127       1.15455587       0.24323579
H       -2.85096119      -0.33076429      -0.87257734
H       -0.45838793       1.79123471      -0.73849244
H        1.09745545      -0.13251304       1.46742236
H        1.82746521      -1.57027615       0.72982875
H        1.87923133       0.31689902      -1.40298759
14
Frame=13 idx=010520 GeodesicLength=0.7025965891570354 rxn_smarts="[C:1](/[C:2](=[N:3]\[H:11])[O:4][C:5]([C:6](=[O:7])[H:14])([H:12])[H:13])([H:8])([H:9])[H:10]>>[C:1](=[C:2]([N:3]([H:9])[H:11])[O:4][C:5]([C:6](=[O:7])[H:14])([H:12])[H:13])([H:8])[H:10]"
C       -2.21752334      -0.38451034       0.02742254
C       -0.85873714      -0.07933969      -0.25126300
N       -0.62707152       1.20379375       0.02801529
O        0.09537721      -1.01752149      -0.15354508
C        1.28964969      -0.65074229       0.51340067
C        2.18994887       0.23491546      -0.32097448
O        3.18014365       0.74745545       0.11437197
H       -2.39800013      -1.26987496       0.62830948
H       -2.07915968       1.16697001       0.24939256
H       -2.86372849      -0.34338025      -0.84407334
H       -0.50604385       1.79063739      -0.78556743
H        1.08181994      -0.15955617       1.46678113
H        1.82102483      -1.58409887       0.71241488
H        1.89229994       0.34525201      -1.38468520
14
Frame=14 idx=010520 GeodesicLength=0.7574803030592453 rxn_smarts="[C:1](/[C:2](=[N:3]\[H:11])[O:4][C:5]([C:6](=[O:7])[H:14])([H:12])[H:13])([H:8])([H:9])[H:10]>>[C:1](=[C:2]([N:3]([H:9])[H:11])[O:4][C:5]([C:6](=[O:7])[H:14])([H:12])[H:13])([H:8])[H:10]"
C       -2.20650031      -0.37752695       0.03961278
C       -0.85496509      -0.07718823      -0.27596457
N       -0.60905366       1.20663543      -0.00657365
O        0.09732010      -1.01883767      -0.17809405
C        1.28428612      -0.66111011       0.50653708
C        2.19312688       0.23919454      -0.30233856
O        3.18125045       0.73981345       0.15130094
H       -2.36785804      -1.25404230       0.65852427
H       -2.07240389       1.17929893       0.25659059
H       -2.87528098      -0.35556974      -0.81518765
H       -0.55483088       1.78961331      -0.82949945
H        1.06551101      -0.18553296       1.46524346
H        1.81447525      -1.59714007       0.69581824
H        1.90492304       0.37239238      -1.36596944
14
Frame=15 idx=010520 GeodesicLength=0.8125427345993145 rxn_smarts="[C:1](/[C:2](=[N:3]\[H:11])[O:4][C:5]([C:6](=[O:7])[H:14])([H:12])[H:13])([H:8])([H:9])[H:10]>>[C:1](=[C:2]([N:3]([H:9])[H:11])[O:4][C:5]([C:6](=[O:7])[H:14])([H:12])[H:13])([H:8])[H:10]"
C       -2.19476124      -0.37039712       0.05110819
C       -0.85130447      -0.07539681      -0.30104313
N       -0.59120772       1.20923379      -0.04317185
O        0.09938561      -1.02021649      -0.20241760
C        1.27864540      -0.67106507       0.49971804
C        2.19579086       0.24288727      -0.28388834
O        3.18144808       0.73186496       0.18756214
H       -2.33661368      -1.23779650       0.68728301
H       -2.06459702       1.19148703       0.26495039
H       -2.88567864      -0.36724215      -0.78597309
H       -0.60459011       1.78815119      -0.87017276
H        1.04851211      -0.21033555       1.46286615
H        1.80782427      -1.60936913       0.68015473
H        1.91714656       0.39819457      -1.34697587
14
Frame=16 idx=010520 GeodesicLength=0.8678056345225555 rxn_smarts="[C:1](/[C:2](=[N:3]\[H:11])[O:4][C:5]([C:6](=[O:7])[H:14])([H:12])[H:13])([H:8])([H:9])[H:10]>>[C:1](=[C:2]([N:3]([H:9])[H:11])[O:4][C:5]([C:6](=[O:7])[H:14])([H:12])[H:13])([H:8])[H:10]"
C       -2.18230939      -0.36313309       0.06191308
C       -0.84778548      -0.07400194      -0.32664311
N       -0.57358331       1.21150206      -0.08186696
O        0.10157252      -1.02167625      -0.22662412
C        1.27267468      -0.68059962       0.49295070
C        2.19790205       0.24607858      -0.26561485
O        3.18065935       0.72374892       0.22325215
H       -2.30425765      -1.22116686       0.71461045
H       -2.05552556       1.20350678       0.27455699
H       -2.89499617      -0.37836783      -0.75636241
H       -0.65513074       1.78622911      -0.90752038
H        1.03069709      -0.23392223       1.45969788
H        1.80103048      -1.62082353       0.66548954
H        1.92905211       0.42262590      -1.32783896
