13
Frame=0 idx=010719 GeodesicLength=0.0 rxn_smarts="[C:1]([O:2][C@@:3]1([H:11])[C:4]([H:12])([H:13])[O:5][C:6]1=[O:7])([H:8])([H:9])[H:10]>>[C-:6]#[O+:7].[C:1]([O:2][C@@:3]1([H:11])[C:4]([H:12])([H:13])[O:5]1)([H:8])([H:9])[H:10]"
C        2.05666430      -0.08497444      -0.21167189
O        0.92157372       0.56039696       0.39347714
C       -0.13670897      -0.12353423       0.57752689
C       -1.43985449       0.44063672       0.97710857
O       -2.31595066      -0.12280012       0.12921405
C       -1.16757804      -0.12652911      -1.70045723
O       -1.86875384      -0.33350265      -2.56769434
H        2.15961658      -1.10100272       0.16911744
H        2.92460487       0.51334120       0.04674223
H        1.89486857      -0.09079838      -1.28922792
H       -0.08809066      -1.20410740       0.43845304
H       -1.37740770       1.54466756       0.99435395
H       -1.56298373       0.12820664       2.04305804
13
Frame=1 idx=010719 GeodesicLength=0.07353071815628665 rxn_smarts="[C:1]([O:2][C@@:3]1([H:11])[C:4]([H:12])([H:13])[O:5][C:6]1=[O:7])([H:8])([H:9])[H:10]>>[C-:6]#[O+:7].[C:1]([O:2][C@@:3]1([H:11])[C:4]([H:12])([H:13])[O:5]1)([H:8])([H:9])[H:10]"
C        2.05006245      -0.08739674      -0.21530146
O        0.91488956       0.56078037       0.38297643
C       -0.14612751      -0.12988773       0.56633280
C       -1.44039217       0.44113060       0.98350662
O       -2.28663534      -0.16348881       0.12629818
C       -1.16042989      -0.13699258      -1.69045598
O       -1.86097660      -0.25944481      -2.57537841
H        2.16953015      -1.09199379       0.19129489
H        2.91422829       0.52640108       0.01906967
H        1.88289505      -0.12600088      -1.29161751
H       -0.07787417      -1.21502232       0.47993898
H       -1.39115752       1.54436732       0.97406138
H       -1.56801230       0.13754828       2.04927441
13
Frame=2 idx=010719 GeodesicLength=0.14737585454150087 rxn_smarts="[C:1]([O:2][C@@:3]1([H:11])[C:4]([H:12])([H:13])[O:5][C:6]1=[O:7])([H:8])([H:9])[H:10]>>[C-:6]#[O+:7].[C:1]([O:2][C@@:3]1([H:11])[C:4]([H:12])([H:13])[O:5]1)([H:8])([H:9])[H:10]"
C        2.04294180      -0.08984192      -0.21953824
O        0.90784956       0.56081443       0.37223076
C       -0.15546088      -0.13716742       0.55573973
C       -1.44090268       0.44126979       0.98903373
O       -2.25746003      -0.20121229       0.12309446
C       -1.15386584      -0.14746056      -1.68081783
O       -1.84891776      -0.18656900      -2.57891025
H        2.17923015      -1.08202340       0.21251450
H        2.90289965       0.53900117      -0.01018694
H        1.87031469      -0.16143667      -1.29346644
H       -0.06769510      -1.22400692       0.52138107
H       -1.40436470       1.54302402       0.95487860
H       -1.57456885       0.14560878       2.05404683
13
Frame=3 idx=010719 GeodesicLength=0.22139916629034187 rxn_smarts="[C:1]([O:2][C@@:3]1([H:11])[C:4]([H:12])([H:13])[O:5][C:6]1=[O:7])([H:8])([H:9])[H:10]>>[C-:6]#[O+:7].[C:1]([O:2][C@@:3]1([H:11])[C:4]([H:12])([H:13])[O:5]1)([H:8])([H:9])[H:10]"
C        2.03553906      -0.09231226      -0.22446445
O        0.90044325       0.56058297       0.36103258
C       -0.16463712      -0.14537372       0.54586686
C       -1.44160769       0.44098112       0.99361704
O       -2.22859437      -0.23720423       0.11979127
C       -1.14773213      -0.15972845      -1.67174726
O       -1.83325273      -0.11238657      -2.57789783
H        2.18896220      -1.07119622       0.23252398
H        2.89088289       0.55090144      -0.04058388
H        1.85752750      -0.19697238      -1.29502017
H       -0.05711732      -1.23115131       0.56351915
H       -1.41766839       1.54067823       0.93568127
H       -1.58274516       0.15318138       2.05768143
13
Frame=4 idx=010719 GeodesicLength=0.2956358079299411 rxn_smarts="[C:1]([O:2][C@@:3]1([H:11])[C:4]([H:12])([H:13])[O:5][C:6]1=[O:7])([H:8])([H:9])[H:10]>>[C-:6]#[O+:7].[C:1]([O:2][C@@:3]1([H:11])[C:4]([H:12])([H:13])[O:5]1)([H:8])([H:9])[H:10]"
C        2.02771197      -0.09481257      -0.23001497
O        0.89286573       0.56001300       0.34989788
C       -0.17371591      -0.15424621       0.53666509
C       -1.44234983       0.44045591       0.99771423
O       -2.20031652      -0.27053604       0.11632910
C       -1.14245312      -0.17100692      -1.66302445
O       -1.81292497      -0.04101862      -2.57339743
H        2.19838912      -1.05964543       0.25093761
H        2.87823330       0.56182820      -0.07208346
H        1.84415000      -0.23202733      -1.29618038
H       -0.04680204      -1.23619957       0.60509039
H       -1.43051361       1.53751556       0.91774684
H       -1.59227411       0.15968001       2.06031954
13
Frame=5 idx=010719 GeodesicLength=0.370135082460273 rxn_smarts="[C:1]([O:2][C@@:3]1([H:11])[C:4]([H:12])([H:13])[O:5][C:6]1=[O:7])([H:8])([H:9])[H:10]>>[C-:6]#[O+:7].[C:1]([O:2][C@@:3]1([H:11])[C:4]([H:12])([H:13])[O:5]1)([H:8])([H:9])[H:10]"
C        2.01966954      -0.09735581      -0.23607829
O        0.88523960       0.55920642       0.33886886
C       -0.18272689      -0.16370815       0.52805315
C       -1.44314559       0.43972612       1.00156281
O       -2.17274275      -0.30091493       0.11261201
C       -1.13759096      -0.17993632      -1.65466900
O       -1.78899668       0.02625521      -2.56614900
H        2.20778749      -1.04739366       0.26832929
H        2.86501854       0.57207067      -0.10499483
H        1.83053778      -0.26700296      -1.29680819
H       -0.03695570      -1.23948254       0.64556832
H       -1.44277423       1.53388039       0.90155781
H       -1.60332015       0.16465555       2.06214707
13
Frame=6 idx=010719 GeodesicLength=0.44538274230590713 rxn_smarts="[C:1]([O:2][C@@:3]1([H:11])[C:4]([H:12])([H:13])[O:5][C:6]1=[O:7])([H:8])([H:9])[H:10]>>[C-:6]#[O+:7].[C:1]([O:2][C@@:3]1([H:11])[C:4]([H:12])([H:13])[O:5]1)([H:8])([H:9])[H:10]"
C        2.01123075      -0.09996019      -0.24267116
O        0.87732278       0.55823090       0.32762906
C       -0.19152392      -0.17377709       0.51997296
C       -1.44390763       0.43867550       1.00483775
O       -2.14549396      -0.32984020       0.10880863
C       -1.13302334      -0.18906176      -1.64663895
O       -1.76174699       0.09285787      -2.55517574
H        2.21702443      -1.03433777       0.28446492
H        2.85091991       0.58146516      -0.13875314
H        1.81664911      -0.30198537      -1.29691312
H       -0.02696886      -1.24093636       0.68570984
H       -1.45490393       1.52956512       0.88576062
H       -1.61557835       0.16910418       2.06296835
13
Frame=7 idx=010719 GeodesicLength=0.5209802072714003 rxn_smarts="[C:1]([O:2][C@@:3]1([H:11])[C:4]([H:12])([H:13])[O:5][C:6]1=[O:7])([H:8])([H:9])[H:10]>>[C-:6]#[O+:7].[C:1]([O:2][C@@:3]1([H:11])[C:4]([H:12])([H:13])[O:5]1)([H:8])([H:9])[H:10]"
C        2.00238683      -0.10252837      -0.24966296
O        0.86950042       0.55705043       0.31699025
C       -0.20018239      -0.18415766       0.51252111
C       -1.44449616       0.43752813       1.00812139
O       -2.11889393      -0.35612280       0.10476285
C       -1.12891046      -0.19571472      -1.63870730
O       -1.73096020       0.15432060      -2.54260443
H        2.22577713      -1.02080103       0.29887619
H        2.83624461       0.58981110      -0.17317267
H        1.80222526      -0.33598684      -1.29654144
H       -0.01762844      -1.24062555       0.72439018
H       -1.46621965       1.52490258       0.87186830
H       -1.62884301       0.17232413       2.06315854
13
Frame=8 idx=010719 GeodesicLength=0.596696185157231 rxn_smarts="[C:1]([O:2][C@@:3]1([H:11])[C:4]([H:12])([H:13])[O:5][C:6]1=[O:7])([H:8])([H:9])[H:10]>>[C-:6]#[O+:7].[C:1]([O:2][C@@:3]1([H:11])[C:4]([H:12])([H:13])[O:5]1)([H:8])([H:9])[H:10]"
C        1.99354960      -0.10508839      -0.25692326
O        0.86190016       0.55574960       0.30682938
C       -0.20859299      -0.19483442       0.50562714
C       -1.44504550       0.43628813       1.01121435
O       -2.09293436      -0.38040627       0.10049394
C       -1.12488449      -0.20054291      -1.63103935
O       -1.69874414       0.21186991      -2.52819347
H        2.23437019      -1.00708688       0.31165695
H        2.82144665       0.59705068      -0.20765047
H        1.78791044      -0.36895445      -1.29571232
H       -0.00856128      -1.23874010       0.76196662
H       -1.47709783       1.52001240       0.85909600
H       -1.64331645       0.17468270       2.06263448
13
Frame=9 idx=010719 GeodesicLength=0.6728197113620455 rxn_smarts="[C:1]([O:2][C@@:3]1([H:11])[C:4]([H:12])([H:13])[O:5][C:6]1=[O:7])([H:8])([H:9])[H:10]>>[C-:6]#[O+:7].[C:1]([O:2][C@@:3]1([H:11])[C:4]([H:12])([H:13])[O:5]1)([H:8])([H:9])[H:10]"
C        1.98465075      -0.10773147      -0.26462791
O        0.85427118       0.55440010       0.29666494
C       -0.21679865      -0.20590396       0.49934109
C       -1.44571108       0.43481035       1.01421214
O       -2.06763865      -0.40334606       0.09626364
C       -1.12110138      -0.20459195      -1.62353502
O       -1.66396522       0.26790168      -2.51174762
H        2.24325080      -0.99266415       0.32360142
H        2.80610275       0.60360175      -0.24333331
H        1.77360897      -0.40211726      -1.29435284
H        0.00040129      -1.23547924       0.79886965
H       -1.48795737       1.51481419       0.84708179
H       -1.65911339       0.17630603       2.06156204
13
Frame=10 idx=010719 GeodesicLength=0.7496790871008411 rxn_smarts="[C:1]([O:2][C@@:3]1([H:11])[C:4]([H:12])([H:13])[O:5][C:6]1=[O:7])([H:8])([H:9])[H:10]>>[C-:6]#[O+:7].[C:1]([O:2][C@@:3]1([H:11])[C:4]([H:12])([H:13])[O:5]1)([H:8])([H:9])[H:10]"
C        1.97527009      -0.11026783      -0.27248374
O        0.84682261       0.55294618       0.28721947
C       -0.22473310      -0.21708408       0.49361166
C       -1.44594152       0.43323150       1.01716458
O       -2.04271665      -0.42447341       0.09182770
C       -1.11745238      -0.20707792      -1.61578214
O       -1.62700447       0.31978098      -2.49426239
H        2.25142600      -0.97790492       0.33378896
H        2.79010180       0.60910547      -0.27894320
H        1.75873577      -0.43398821      -1.29240720
H        0.00881841      -1.23072319       0.83422548
H       -1.49789248       1.50929446       0.83636688
H       -1.67543408       0.17716096       2.05967394
13
Frame=11 idx=010719 GeodesicLength=0.8267195761476847 rxn_smarts="[C:1]([O:2][C@@:3]1([H:11])[C:4]([H:12])([H:13])[O:5][C:6]1=[O:7])([H:8])([H:9])[H:10]>>[C-:6]#[O+:7].[C:1]([O:2][C@@:3]1([H:11])[C:4]([H:12])([H:13])[O:5]1)([H:8])([H:9])[H:10]"
C        1.96593642      -0.11281842      -0.28064541
O        0.83955488       0.55149760       0.27810449
C       -0.23242505      -0.22845386       0.48847701
C       -1.44623857       0.43155026       1.02013598
O       -2.01846344      -0.44425732       0.08740180
C       -1.11385491      -0.20847862      -1.60808157
O       -1.58847996       0.36913786      -2.47542081
H        2.25970160      -0.96290142       0.34270668
H        2.77386333       0.61374869      -0.31498916
H        1.74401715      -0.46528641      -1.29006459
H        0.01702975      -1.22477554       0.86864442
H       -1.50770861       1.50365569       0.82647285
H       -1.69293261       0.17738150       2.05725833
13
Frame=12 idx=010719 GeodesicLength=0.9041058279386328 rxn_smarts="[C:1]([O:2][C@@:3]1([H:11])[C:4]([H:12])([H:13])[O:5][C:6]1=[O:7])([H:8])([H:9])[H:10]>>[C-:6]#[O+:7].[C:1]([O:2][C@@:3]1([H:11])[C:4]([H:12])([H:13])[O:5]1)([H:8])([H:9])[H:10]"
C        1.95652220      -0.11534019      -0.28903518
O        0.83249067       0.55006679       0.26947894
C       -0.23985972      -0.23993084       0.48392825
C       -1.44645762       0.42981226       1.02319314
O       -1.99476802      -0.46275073       0.08302146
C       -1.11028937      -0.20881268      -1.60025541
O       -1.54843515       0.41560403      -2.45567620
H        2.26783769      -0.94777774       0.35017648
H        2.75731301       0.61750201      -0.35114397
H        1.72929670      -0.49561910      -1.28735898
H        0.02492612      -1.21775060       0.90191165
H       -1.51723169       1.49793016       0.81745611
H       -1.71134480       0.17706664       2.05430371
13
Frame=13 idx=010719 GeodesicLength=0.9821010813678812 rxn_smarts="[C:1]([O:2][C@@:3]1([H:11])[C:4]([H:12])([H:13])[O:5][C:6]1=[O:7])([H:8])([H:9])[H:10]>>[C-:6]#[O+:7].[C:1]([O:2][C@@:3]1([H:11])[C:4]([H:12])([H:13])[O:5]1)([H:8])([H:9])[H:10]"
C        1.94696348      -0.11791229      -0.29777348
O        0.82544881       0.54868181       0.26102279
C       -0.24705535      -0.25160224       0.47995858
C       -1.44669431       0.42790054       1.02637709
O       -1.97157060      -0.48032253       0.07867822
C       -1.10678715      -0.20848187      -1.59250317
O       -1.50617309       0.46072471      -2.43450649
H        2.27622005      -0.93196842       0.35683721
H        2.74001534       0.62060511      -0.38836105
H        1.71450303      -0.52613289      -1.28411101
H        0.03270941      -1.20970883       0.93438975
H       -1.52673218       1.49202313       0.80913379
H       -1.73084743       0.17619377       2.05085776
13
Frame=14 idx=010719 GeodesicLength=1.061023821244416 rxn_smarts="[C:1]([O:2][C@@:3]1([H:11])[C:4]([H:12])([H:13])[O:5][C:6]1=[O:7])([H:8])([H:9])[H:10]>>[C-:6]#[O+:7].[C:1]([O:2][C@@:3]1([H:11])[C:4]([H:12])([H:13])[O:5]1)([H:8])([H:9])[H:10]"
C        1.93705176      -0.12034534      -0.30663441
O        0.81867296       0.54728739       0.25318173
C       -0.25401539      -0.26323671       0.47650340
C       -1.44659984       0.42587882       1.02955160
O       -1.94888594      -0.49665937       0.07434054
C       -1.10341451      -0.20719154      -1.58415005
O       -1.46198404       0.50273358      -2.41234647
H        2.28413617      -0.91586533       0.36191281
H        2.72215069       0.62284918      -0.42552718
H        1.69925693      -0.55545238      -1.28029291
H        0.03996385      -1.20061279       0.96539196
H       -1.53552931       1.48580993       0.80162851
H       -1.75080333       0.17480456       2.04644047
13
Frame=15 idx=010719 GeodesicLength=1.1403032587256114 rxn_smarts="[C:1]([O:2][C@@:3]1([H:11])[C:4]([H:12])([H:13])[O:5][C:6]1=[O:7])([H:8])([H:9])[H:10]>>[C-:6]#[O+:7].[C:1]([O:2][C@@:3]1([H:11])[C:4]([H:12])([H:13])[O:5]1)([H:8])([H:9])[H:10]"
C        1.92710126      -0.12274098      -0.31567743
O        0.81209327       0.54600395       0.24584248
C       -0.26070774      -0.27487719       0.47358347
C       -1.44646317       0.42386753       1.03294085
O       -1.92663849      -0.51200233       0.07005961
C       -1.09988819      -0.20503002      -1.57577150
O       -1.41674385       0.54220657      -2.38950092
H        2.29197157      -0.89979294       0.36564691
H        2.70391602       0.62432708      -0.46264106
H        1.68414086      -0.58390064      -1.27623869
H        0.04700861      -1.19076128       0.99531075
H       -1.54417503       1.47965128       0.79489906
H       -1.77161512       0.17304896       2.04154646
13
Frame=16 idx=010719 GeodesicLength=1.2201218085430376 rxn_smarts="[C:1]([O:2][C@@:3]1([H:11])[C:4]([H:12])([H:13])[O:5][C:6]1=[O:7])([H:8])([H:9])[H:10]>>[C-:6]#[O+:7].[C:1]([O:2][C@@:3]1([H:11])[C:4]([H:12])([H:13])[O:5]1)([H:8])([H:9])[H:10]"
C        1.91706715      -0.12505267      -0.32487694
O        0.80573673       0.54482108       0.23899701
C       -0.26717093      -0.28649037       0.47116149
C       -1.44623114       0.42185658       1.03651622
O       -1.90490842      -0.52638775       0.06590042
C       -1.09636656      -0.20213411      -1.56715075
O       -1.37022909       0.57911114      -2.36593868
H        2.29965439      -0.88374192       0.36799651
H        2.68532956       0.62509561      -0.49959620
H        1.66904670      -0.61129695      -1.27194338
H        0.05373574      -1.18025101       1.02403161
H       -1.55256283       1.47348276       0.78886466
H       -1.79310129       0.17098762       2.03603801
