15
Frame=0 idx=005971 GeodesicLength=0.0 rxn_smarts="[C:1]([C:2]([C:3](=[O:4])[N:5]([C:6]([H:13])([H:14])[H:15])[H:12])([H:10])[H:11])([H:7])([H:8])[H:9]>>[C:1]([C@:3]1([N:5]([C:6]([H:13])([H:14])[H:15])[H:12])[C:2]([H:10])([H:11])[O:4]1)([H:7])([H:8])[H:9]"
C        1.16820009      -0.77968567      -0.17524109
C        1.28671471       1.40143382       0.39711854
C        0.19514329       0.41696315       0.48541648
O        0.11272065       0.15778910       1.74281018
N       -1.00204524       0.60050260      -0.27327573
C       -1.92499784      -0.51575533      -0.27259098
H        0.53221384      -1.65229992      -0.04902546
H        1.35955275      -0.57841502      -1.22928882
H        2.09270306      -0.93882690       0.37343729
H        1.49302773       1.95733043       1.30427099
H        2.07218329       1.35050869      -0.34820643
H       -0.83153374       0.98720375      -1.18973081
H       -1.62621833      -1.35106670      -0.92182812
H       -2.01864933      -0.88384582       0.74874381
H       -2.90901497      -0.17183624      -0.59260988
15
Frame=1 idx=005971 GeodesicLength=0.09313912776825206 rxn_smarts="[C:1]([C:2]([C:3](=[O:4])[N:5]([C:6]([H:13])([H:14])[H:15])[H:12])([H:10])[H:11])([H:7])([H:8])[H:9]>>[C:1]([C@:3]1([N:5]([C:6]([H:13])([H:14])[H:15])[H:12])[C:2]([H:10])([H:11])[O:4]1)([H:7])([H:8])[H:9]"
C        1.19623723      -0.78041045      -0.17884740
C        1.28411887       1.37908820       0.40187108
C        0.18863804       0.40205591       0.47798710
O        0.11843317       0.16230922       1.74024636
N       -1.00624878       0.59698013      -0.27452373
C       -1.94303447      -0.50769577      -0.26184619
H        0.55626008      -1.65717373      -0.11369650
H        1.45319469      -0.57615316      -1.21813946
H        2.08730588      -0.97071689       0.41388279
H        1.46789134       1.97099807       1.29063366
H        2.05278245       1.37072583      -0.36192975
H       -0.83749289       0.98197452      -1.19178674
H       -1.66033794      -1.34760357      -0.91195283
H       -2.03193995      -0.87219622       0.76127525
H       -2.92580772      -0.15218209      -0.57317364
15
Frame=2 idx=005971 GeodesicLength=0.1855599643120669 rxn_smarts="[C:1]([C:2]([C:3](=[O:4])[N:5]([C:6]([H:13])([H:14])[H:15])[H:12])([H:10])[H:11])([H:7])([H:8])[H:9]>>[C:1]([C@:3]1([N:5]([C:6]([H:13])([H:14])[H:15])[H:12])[C:2]([H:10])([H:11])[O:4]1)([H:7])([H:8])[H:9]"
C        1.22487249      -0.78120378      -0.18236216
C        1.28201048       1.35623325       0.40618173
C        0.18254505       0.38645484       0.47046041
O        0.12417173       0.16694212       1.73742708
N       -1.01041207       0.59326744      -0.27522755
C       -1.96100907      -0.49945774      -0.25052849
H        0.58221149      -1.65887687      -0.18307146
H        1.55114117      -0.57348844      -1.20127532
H        2.07761592      -1.00602324       0.45354969
H        1.44134871       1.98497539       1.27398955
H        2.03114732       1.39097564      -0.37577330
H       -0.84363332       0.97667958      -1.19329823
H       -1.69473110      -1.34387423      -0.90135109
H       -2.04501633      -0.86049219       0.77432408
H       -2.94226247      -0.13211177      -0.55304494
15
Frame=3 idx=005971 GeodesicLength=0.27719369380082265 rxn_smarts="[C:1]([C:2]([C:3](=[O:4])[N:5]([C:6]([H:13])([H:14])[H:15])[H:12])([H:10])[H:11])([H:7])([H:8])[H:9]>>[C:1]([C@:3]1([N:5]([C:6]([H:13])([H:14])[H:15])[H:12])[C:2]([H:10])([H:11])[O:4]1)([H:7])([H:8])[H:9]"
C        1.25402038      -0.78195600      -0.18573152
C        1.28013983       1.33303828       0.40978631
C        0.17677425       0.37032633       0.46277380
O        0.12995880       0.17188416       1.73415827
N       -1.01462268       0.58941223      -0.27536660
C       -1.97871672      -0.49108836      -0.23865212
H        0.61060281      -1.65656328      -0.25704956
H        1.65298036      -0.57051557      -1.17752791
H        2.06299836      -1.04489978       0.49179658
H        1.41385466       1.99854243       1.25410764
H        2.00698534       1.41080006      -0.38970610
H       -0.85018809       0.97144676      -1.19414635
H       -1.72901039      -1.33983802      -0.88997175
H       -2.05758617      -0.84879128       0.78778616
H       -2.95819075      -0.11179797      -0.53225684
15
Frame=4 idx=005971 GeodesicLength=0.36808209044956686 rxn_smarts="[C:1]([C:2]([C:3](=[O:4])[N:5]([C:6]([H:13])([H:14])[H:15])[H:12])([H:10])[H:11])([H:7])([H:8])[H:9]>>[C:1]([C@:3]1([N:5]([C:6]([H:13])([H:14])[H:15])[H:12])[C:2]([H:10])([H:11])[O:4]1)([H:7])([H:8])[H:9]"
C        1.28363902      -0.78253269      -0.18896177
C        1.27852424       1.30975294       0.41248845
C        0.17126610       0.35386412       0.45494760
O        0.13578005       0.17738215       1.73048877
N       -1.01898554       0.58540635      -0.27491068
C       -1.99617621      -0.48275803      -0.22621194
H        0.64183633      -1.64923597      -0.33567411
H        1.75846871      -0.56738341      -1.14580471
H        2.04283383      -1.08747782       0.52779278
H        1.38592242       2.01142483       1.23093550
H        1.98056351       1.42969783      -0.40377226
H       -0.85728934       0.96631957      -1.19432328
H       -1.76303265      -1.33559833      -0.87788309
H       -2.06966166      -0.83726098       0.80170543
H       -2.97368882      -0.09160055      -0.51081668
15
Frame=5 idx=005971 GeodesicLength=0.4579480665110843 rxn_smarts="[C:1]([C:2]([C:3](=[O:4])[N:5]([C:6]([H:13])([H:14])[H:15])[H:12])([H:10])[H:11])([H:7])([H:8])[H:9]>>[C:1]([C@:3]1([N:5]([C:6]([H:13])([H:14])[H:15])[H:12])[C:2]([H:10])([H:11])[O:4]1)([H:7])([H:8])[H:9]"
C        1.31355126      -0.78276251      -0.19189469
C        1.27697369       1.28699134       0.41385834
C        0.16590801       0.33743288       0.44696582
O        0.14169610       0.18383529       1.72649883
N       -1.02366720       0.58132455      -0.27398925
C       -2.01334360      -0.47477372      -0.21330280
H        0.67641449      -1.63603646      -0.41879102
H        1.86658426      -0.56431605      -1.10503354
H        2.01633301      -1.13369188       0.56095062
H        1.35912053       2.02290751       1.20499312
H        1.95215645       1.44739556      -0.41820780
H       -0.86524570       0.96146632      -1.19405634
H       -1.79662268      -1.33142832      -0.86523610
H       -2.08104832      -0.82629992       0.81608436
H       -2.98881029      -0.07204457      -0.48883955
15
Frame=6 idx=005971 GeodesicLength=0.5469329257324321 rxn_smarts="[C:1]([C:2]([C:3](=[O:4])[N:5]([C:6]([H:13])([H:14])[H:15])[H:12])([H:10])[H:11])([H:7])([H:8])[H:9]>>[C:1]([C@:3]1([N:5]([C:6]([H:13])([H:14])[H:15])[H:12])[C:2]([H:10])([H:11])[O:4]1)([H:7])([H:8])[H:9]"
C        1.34371002      -0.78253448      -0.19455160
C        1.27531124       1.26485147       0.41360485
C        0.16059865       0.32119396       0.43877087
O        0.14776940       0.19144893       1.72195433
N       -1.02878960       0.57714076      -0.27254028
C       -2.03011869      -0.46724803      -0.19987207
H        0.71507544      -1.61564380      -0.50602725
H        1.97634012      -0.56161130      -1.05390015
H        1.98292461      -1.18353079       0.58973589
H        1.33336824       2.03299687       1.17614997
H        1.92264674       1.46282267      -0.43281480
H       -0.87424975       0.95687381      -1.19317160
H       -1.82944791      -1.32735295      -0.85198783
H       -2.09158172      -0.81597489       0.83087076
H       -3.00355680      -0.05343223      -0.46622110
15
Frame=7 idx=005971 GeodesicLength=0.6348840574557876 rxn_smarts="[C:1]([C:2]([C:3](=[O:4])[N:5]([C:6]([H:13])([H:14])[H:15])[H:12])([H:10])[H:11])([H:7])([H:8])[H:9]>>[C:1]([C@:3]1([N:5]([C:6]([H:13])([H:14])[H:15])[H:12])[C:2]([H:10])([H:11])[O:4]1)([H:7])([H:8])[H:9]"
C        1.37393192      -0.78179653      -0.19671312
C        1.27335169       1.24373390       0.41139145
C        0.15523230       0.30545198       0.43037689
O        0.15409357       0.20053593       1.71688193
N       -1.03444813       0.57291587      -0.27065672
C       -2.04636389      -0.46044194      -0.18600098
H        0.75863746      -1.58711979      -0.59669476
H        2.08574515      -0.55979282      -0.99157862
H        1.94201962      -1.23677181       0.61296727
H        1.30959347       2.04151808       1.14492389
H        1.89280206       1.47551796      -0.44782112
H       -0.88449659       0.95268249      -1.19180036
H       -1.86123353      -1.32358207      -0.83830593
H       -2.10098199      -0.80664762       0.84601719
H       -3.01788312      -0.03620365      -0.44298700
15
Frame=8 idx=005971 GeodesicLength=0.7218915603521561 rxn_smarts="[C:1]([C:2]([C:3](=[O:4])[N:5]([C:6]([H:13])([H:14])[H:15])[H:12])([H:10])[H:11])([H:7])([H:8])[H:9]>>[C:1]([C@:3]1([N:5]([C:6]([H:13])([H:14])[H:15])[H:12])[C:2]([H:10])([H:11])[O:4]1)([H:7])([H:8])[H:9]"
C        1.40412906      -0.78055645      -0.19827961
C        1.27112727       1.22361877       0.40716159
C        0.14977347       0.29029820       0.42181831
O        0.16082999       0.21106524       1.71116853
N       -1.04067157       0.56860432      -0.26830765
C       -2.06205344      -0.45448317      -0.17170672
H        0.80793002      -1.54937115      -0.68944605
H        2.19286555      -0.55943467      -0.91736029
H        1.89359088      -1.29293915       0.62870997
H        1.28760180       2.04878949       1.11123326
H        1.86378238       1.48473538      -0.46321319
H       -0.89601125       0.94890358      -1.18981702
H       -1.89182092      -1.32017670      -0.82426202
H       -2.10921356      -0.79844411       0.86143802
H       -3.03185968      -0.02060956      -0.41913713
15
Frame=9 idx=005971 GeodesicLength=0.8079770598941272 rxn_smarts="[C:1]([C:2]([C:3](=[O:4])[N:5]([C:6]([H:13])([H:14])[H:15])[H:12])([H:10])[H:11])([H:7])([H:8])[H:9]>>[C:1]([C@:3]1([N:5]([C:6]([H:13])([H:14])[H:15])[H:12])[C:2]([H:10])([H:11])[O:4]1)([H:7])([H:8])[H:9]"
C        1.43415582      -0.77902271      -0.19891056
C        1.26856983       1.20465139       0.40088205
C        0.14413678       0.27591422       0.41317904
O        0.16796195       0.22307517       1.70491030
N       -1.04743191       0.56427742      -0.26561133
C       -2.07708284      -0.44948365      -0.15713646
H        0.86404893      -1.50231918      -0.78233882
H        2.29470976      -0.56140654      -0.83186236
H        1.83819122      -1.35101330       0.63561940
H        1.26793251       2.05479877       1.07573293
H        1.83616668       1.49043903      -0.47925823
H       -0.90873876       0.94569665      -1.18736330
H       -1.92103938      -1.31726163      -0.81010707
H       -2.11617311      -0.79156619       0.87702172
H       -3.04540749      -0.00677945      -0.39475733
15
Frame=10 idx=005971 GeodesicLength=0.893211102316877 rxn_smarts="[C:1]([C:2]([C:3](=[O:4])[N:5]([C:6]([H:13])([H:14])[H:15])[H:12])([H:10])[H:11])([H:7])([H:8])[H:9]>>[C:1]([C@:3]1([N:5]([C:6]([H:13])([H:14])[H:15])[H:12])[C:2]([H:10])([H:11])[O:4]1)([H:7])([H:8])[H:9]"
C        1.46394311      -0.77730504      -0.19859323
C        1.26579342       1.18650049       0.39287575
C        0.13837610       0.26210092       0.40445724
O        0.17568233       0.23593191       1.69792451
N       -1.05455676       0.55977931      -0.26268321
C       -2.09154713      -0.44531645      -0.14240229
H        0.92747326      -1.44640769      -0.87216765
H        2.38869901      -0.56602109      -0.73626515
H        1.77765488      -1.40939195       0.63184902
H        1.24994878       2.05969138       1.03844006
H        1.81074742       1.49245739      -0.49567488
H       -0.92242442       0.94293337      -1.18442202
H       -1.94913505      -1.31477032      -0.79584581
H       -2.12211391      -0.78572514       0.89260975
H       -3.05854104       0.00554290      -0.37010210
15
Frame=11 idx=005971 GeodesicLength=0.9778984370401753 rxn_smarts="[C:1]([C:2]([C:3](=[O:4])[N:5]([C:6]([H:13])([H:14])[H:15])[H:12])([H:10])[H:11])([H:7])([H:8])[H:9]>>[C:1]([C@:3]1([N:5]([C:6]([H:13])([H:14])[H:15])[H:12])[C:2]([H:10])([H:11])[O:4]1)([H:7])([H:8])[H:9]"
C        1.49359239      -0.77573967      -0.19719159
C        1.26277278       1.16895449       0.38347918
C        0.13244703       0.24866212       0.39566128
O        0.18374716       0.24906983       1.69030781
N       -1.06193904       0.55508391      -0.25978953
C       -2.10566399      -0.44172482      -0.12766218
H        0.99882312      -1.38340058      -0.95603794
H        2.47249611      -0.57370203      -0.63339694
H        1.71483002      -1.46605217       0.61702947
H        1.23357536       2.06322010       1.00019267
H        1.78746029       1.49130372      -0.51245280
H       -0.93680188       0.94059086      -1.18132669
H       -1.97650089      -1.31262636      -0.78159073
H       -2.12746003      -0.78058450       0.90815920
H       -3.07137842       0.01694511      -0.34538122
15
Frame=12 idx=005971 GeodesicLength=1.0620609606907887 rxn_smarts="[C:1]([C:2]([C:3](=[O:4])[N:5]([C:6]([H:13])([H:14])[H:15])[H:12])([H:10])[H:11])([H:7])([H:8])[H:9]>>[C:1]([C@:3]1([N:5]([C:6]([H:13])([H:14])[H:15])[H:12])[C:2]([H:10])([H:11])[O:4]1)([H:7])([H:8])[H:9]"
C        1.52312696      -0.77428299      -0.19503247
C        1.25955947       1.15160317       0.37318577
C        0.12646410       0.23509977       0.38660636
O        0.19216662       0.26152526       1.68170762
N       -1.06922105       0.54987826      -0.25720302
C       -2.11966918      -0.43833787      -0.11298709
H        1.07740278      -1.31554175      -1.03099374
H        2.54486403      -0.58388877      -0.52577991
H        1.65280306      -1.51908438       0.59080605
H        1.21810138       2.06519340       0.96136251
H        1.76622090       1.48754797      -0.52907362
H       -0.95135591       0.93820414      -1.17822262
H       -2.00391945      -1.31071462      -0.76706072
H       -2.13273474      -0.77538586       0.92356801
H       -3.08380897       0.02818427      -0.32088313
15
Frame=13 idx=005971 GeodesicLength=1.1459919696678424 rxn_smarts="[C:1]([C:2]([C:3](=[O:4])[N:5]([C:6]([H:13])([H:14])[H:15])[H:12])([H:10])[H:11])([H:7])([H:8])[H:9]>>[C:1]([C@:3]1([N:5]([C:6]([H:13])([H:14])[H:15])[H:12])[C:2]([H:10])([H:11])[O:4]1)([H:7])([H:8])[H:9]"
C        1.55290353      -0.77311326      -0.19225123
C        1.25601664       1.13413445       0.36235270
C        0.12039390       0.22099438       0.37718764
O        0.20050438       0.27259909       1.67224643
N       -1.07638713       0.54407982      -0.25525343
C       -2.13396553      -0.43470116      -0.09845960
H        1.16283027      -1.24541746      -1.09549102
H        2.60553831      -0.59624481      -0.41694299
H        1.59518844      -1.56689430       0.55475672
H        1.20327021       2.06513169       0.92294220
H        1.74634652       1.48194284      -0.54544047
H       -0.96593174       0.93562813      -1.17558715
H       -2.03206423      -1.30879094      -0.75217401
H       -2.13854035      -0.76953456       0.93894251
H       -3.09610323       0.04018609      -0.29682829
15
Frame=14 idx=005971 GeodesicLength=1.2297337753779711 rxn_smarts="[C:1]([C:2]([C:3](=[O:4])[N:5]([C:6]([H:13])([H:14])[H:15])[H:12])([H:10])[H:11])([H:7])([H:8])[H:9]>>[C:1]([C@:3]1([N:5]([C:6]([H:13])([H:14])[H:15])[H:12])[C:2]([H:10])([H:11])[O:4]1)([H:7])([H:8])[H:9]"
C        1.58308543      -0.77201293      -0.18928774
C        1.25214207       1.11636874       0.35123122
C        0.11434236       0.20594241       0.36717236
O        0.20865530       0.28175341       1.66164178
N       -1.08320561       0.53742144      -0.25413048
C       -2.14874080      -0.43054309      -0.08398793
H        1.25390825      -1.17467688      -1.14900955
H        2.65524866      -0.61003977      -0.30822118
H        1.54372481      -1.60904442       0.50963319
H        1.18855518       2.06303725       0.88518218
H        1.72744175       1.47513044      -0.56128123
H       -0.98018773       0.93239869      -1.17356364
H       -2.06160660      -1.30681121      -0.73653574
H       -2.14519691      -0.76247106       0.95435840
H       -3.10816615       0.05354698      -0.27320163
15
Frame=15 idx=005971 GeodesicLength=1.31340207101068 rxn_smarts="[C:1]([C:2]([C:3](=[O:4])[N:5]([C:6]([H:13])([H:14])[H:15])[H:12])([H:10])[H:11])([H:7])([H:8])[H:9]>>[C:1]([C@:3]1([N:5]([C:6]([H:13])([H:14])[H:15])[H:12])[C:2]([H:10])([H:11])[O:4]1)([H:7])([H:8])[H:9]"
C        1.61391063      -0.77091167      -0.18625370
C        1.24786241       1.09812754       0.33995190
C        0.10831054       0.18970942       0.35648275
O        0.21636764       0.28876770       1.65000342
N       -1.08972612       0.52980844      -0.25397341
C       -2.16417216      -0.42563467      -0.06955732
H        1.34983597      -1.10448026      -1.19177843
H        2.69485020      -0.62494557      -0.20145194
H        1.50001444      -1.64525335       0.45721987
H        1.17380387       2.05872197       0.84853681
H        1.70895993       1.46750576      -0.57663382
H       -0.99414801       0.92839007      -1.17238022
H       -2.09288996      -1.30455782      -0.72005837
H       -2.15286634      -0.75394094       0.96992348
H       -3.12011305       0.06869337      -0.25003102
15
Frame=16 idx=005971 GeodesicLength=1.3970209342735913 rxn_smarts="[C:1]([C:2]([C:3](=[O:4])[N:5]([C:6]([H:13])([H:14])[H:15])[H:12])([H:10])[H:11])([H:7])([H:8])[H:9]>>[C:1]([C@:3]1([N:5]([C:6]([H:13])([H:14])[H:15])[H:12])[C:2]([H:10])([H:11])[O:4]1)([H:7])([H:8])[H:9]"
C        1.64547155      -0.76959775      -0.18337241
C        1.24317804       1.07939897       0.32851464
C        0.10235438       0.17214974       0.34499390
O        0.22357613       0.29358612       1.63720797
N       -1.09587977       0.52109311      -0.25482084
C       -2.18025687      -0.41991761      -0.05505396
H        1.44967281      -1.03519753      -1.22435920
H        2.72523260      -0.64077271      -0.09683660
H        1.46436632      -1.67582434       0.39828146
H        1.15878864       2.05236803       0.81296496
H        1.69065330       1.45936498      -0.59151354
H       -1.00771663       0.92338709      -1.17204456
H       -2.12614305      -1.30198377      -0.70253642
H       -2.16148275      -0.74385047       0.98569909
H       -3.13181471       0.08579613      -0.22712449
