15
Frame=0 idx=007236 GeodesicLength=0.0 rxn_smarts="[C:1]([n:2]1[c:3]([H:11])[n:4][c:5]([C:6]([H:12])([H:13])[H:14])[c:7]1[H:15])([H:8])([H:9])[H:10]>>[C-:1]([n+:2]1[c:3]([H:11])[n:4]([H:10])[c:5]([C:6]([H:12])([H:13])[H:14])[c:7]1[H:15])([H:8])[H:9]"
C       -2.06733903       0.38682186      -0.09140552
N       -1.19068084      -0.71596024      -0.40020041
C       -0.77346677      -1.18046768       0.80221270
N        0.29188938      -0.42262042       1.16060516
C        0.90079244      -0.08896554      -0.10883914
C        2.27857415       0.45014986      -0.14279751
C       -0.00771107      -0.27572018      -1.06012726
H       -2.57123107       0.80987874      -0.95982674
H       -2.73494765       0.19590713       0.74603145
H       -0.50521209       0.60737628       1.06103102
H       -1.50584621      -1.50580290       1.52941787
H        2.35182127       1.32183463       0.51060897
H        2.99201730      -0.29287543       0.21784955
H        2.55574446       0.74499885      -1.15436673
H       -0.01440430      -0.03455500      -2.11019339
15
Frame=1 idx=007236 GeodesicLength=0.07638089508986601 rxn_smarts="[C:1]([n:2]1[c:3]([H:11])[n:4][c:5]([C:6]([H:12])([H:13])[H:14])[c:7]1[H:15])([H:8])([H:9])[H:10]>>[C-:1]([n+:2]1[c:3]([H:11])[n:4]([H:10])[c:5]([C:6]([H:12])([H:13])[H:14])[c:7]1[H:15])([H:8])[H:9]"
C       -2.07917785       0.38445109      -0.09243257
N       -1.18942598      -0.70876257      -0.39471446
C       -0.76561668      -1.17897544       0.80384847
N        0.29329521      -0.41102545       1.16076022
C        0.90427891      -0.08551731      -0.10447562
C        2.28610710       0.44350995      -0.14511980
C       -0.00779520      -0.27191863      -1.05595166
H       -2.57190378       0.80413973      -0.96848006
H       -2.75815771       0.17721641       0.73158331
H       -0.52475546       0.63216895       1.07570964
H       -1.49211805      -1.51655747       1.53103136
H        2.37050878       1.31718096       0.50419998
H        2.99494577      -0.30420411       0.21502440
H        2.56105618       0.73218632      -1.15907904
H       -0.02124123      -0.01389241      -2.10190419
15
Frame=2 idx=007236 GeodesicLength=0.15268184258803835 rxn_smarts="[C:1]([n:2]1[c:3]([H:11])[n:4][c:5]([C:6]([H:12])([H:13])[H:14])[c:7]1[H:15])([H:8])([H:9])[H:10]>>[C-:1]([n+:2]1[c:3]([H:11])[n:4]([H:10])[c:5]([C:6]([H:12])([H:13])[H:14])[c:7]1[H:15])([H:8])[H:9]"
C       -2.09097921       0.38206411      -0.09343362
N       -1.18820179      -0.70138861      -0.38911278
C       -0.75771193      -1.17744561       0.80545630
N        0.29474967      -0.39950514       1.16081949
C        0.90790753      -0.08238788      -0.10022356
C        2.29355729       0.43683764      -0.14749803
C       -0.00791906      -0.26808577      -1.05180362
H       -2.57226986       0.79877682      -0.97685283
H       -2.78099087       0.15833623       0.71669781
H       -0.54499575       0.65698913       1.09065390
H       -1.47813164      -1.52716619       1.53261655
H        2.38891301       1.31243761       0.49761802
H        2.99787539      -0.31537049       0.21226916
H        2.56620122       0.71932951      -1.16382558
H       -0.02800400       0.00657864      -2.09338120
15
Frame=3 idx=007236 GeodesicLength=0.2289223846234389 rxn_smarts="[C:1]([n:2]1[c:3]([H:11])[n:4][c:5]([C:6]([H:12])([H:13])[H:14])[c:7]1[H:15])([H:8])([H:9])[H:10]>>[C-:1]([n+:2]1[c:3]([H:11])[n:4]([H:10])[c:5]([C:6]([H:12])([H:13])[H:14])[c:7]1[H:15])([H:8])[H:9]"
C       -2.10274078       0.37966331      -0.09440794
N       -1.18700726      -0.69383549      -0.38338500
C       -0.74975506      -1.17587913       0.80704212
N        0.29626450      -0.38807091       1.16078237
C        0.91168467      -0.07960121      -0.09608420
C        2.30093101       0.43013213      -0.14993943
C       -0.00808203      -0.26422981      -1.04767757
H       -2.57232605       0.79380392      -0.98493954
H       -2.80345174       0.13927016       0.70135064
H       -0.56597755       0.68183944       1.10589156
H       -1.46389229      -1.53762252       1.53417814
H        2.40703229       1.30761134       0.49085567
H        3.00082778      -0.32636892       0.20957282
H        2.57117940       0.70642970      -1.16861391
H       -0.03468690       0.02685797      -2.08462570
15
Frame=4 idx=007236 GeodesicLength=0.305119179142171 rxn_smarts="[C:1]([n:2]1[c:3]([H:11])[n:4][c:5]([C:6]([H:12])([H:13])[H:14])[c:7]1[H:15])([H:8])([H:9])[H:10]>>[C-:1]([n+:2]1[c:3]([H:11])[n:4]([H:10])[c:5]([C:6]([H:12])([H:13])[H:14])[c:7]1[H:15])([H:8])[H:9]"
C       -2.11445901       0.37724990      -0.09535655
N       -1.18583983      -0.68610104      -0.37752067
C       -0.74174775      -1.17427760       0.80861161
N        0.29785240      -0.37673573       1.16064713
C        0.91561700      -0.07718236      -0.09205983
C        2.30823320       0.42339326      -0.15245178
C       -0.00828278      -0.26035952      -1.04357011
H       -2.57206632       0.78923603      -0.99273541
H       -2.82553904       0.12002983       0.68551765
H       -0.58774918       0.70671970       1.12145448
H       -1.44940660      -1.54791848       1.53572234
H        2.42486164       1.30270680       0.48390898
H        3.00382267      -0.33719306       0.20692052
H        2.57598840       0.69349479      -1.17345088
H       -0.04128480       0.04693746      -2.07563748
15
Frame=5 idx=007236 GeodesicLength=0.3813052518262667 rxn_smarts="[C:1]([n:2]1[c:3]([H:11])[n:4][c:5]([C:6]([H:12])([H:13])[H:14])[c:7]1[H:15])([H:8])([H:9])[H:10]>>[C-:1]([n+:2]1[c:3]([H:11])[n:4]([H:10])[c:5]([C:6]([H:12])([H:13])[H:14])[c:7]1[H:15])([H:8])[H:9]"
C       -2.12613436       0.37482460      -0.09627903
N       -1.18470003      -0.67818238      -0.37150798
C       -0.73369451      -1.17264401       0.81017148
N        0.29952738      -0.36551472       1.16041576
C        0.91970867      -0.07515111      -0.08814809
C        2.31547250       0.41662014      -0.15504287
C       -0.00852127      -0.25648505      -1.03947239
H       -2.57149035       0.78508661      -1.00023327
H       -2.84725038       0.10061983       0.66917249
H       -0.61036869       0.73163824       1.13736645
H       -1.43468031      -1.55804767       1.53725422
H        2.44240544       1.29773081       0.47676956
H        3.00688493      -0.34783942       0.20429694
H        2.58062856       0.68052581      -1.17834514
H       -0.04778757       0.06681833      -2.06641813
15
Frame=6 idx=007236 GeodesicLength=0.45750348573236405 rxn_smarts="[C:1]([n:2]1[c:3]([H:11])[n:4][c:5]([C:6]([H:12])([H:13])[H:14])[c:7]1[H:15])([H:8])([H:9])[H:10]>>[C-:1]([n+:2]1[c:3]([H:11])[n:4]([H:10])[c:5]([C:6]([H:12])([H:13])[H:14])[c:7]1[H:15])([H:8])[H:9]"
C       -2.13776440       0.37238777      -0.09717780
N       -1.18358102      -0.67007294      -0.36533253
C       -0.72559543      -1.17097531       0.81173016
N        0.30131086      -0.35442637       1.16008629
C        0.92396658      -0.07352464      -0.08435180
C        2.32265519       0.40981163      -0.15772148
C       -0.00879472      -0.25260896      -1.03537999
H       -2.57059622       0.78136217      -1.00743062
H       -2.86858871       0.08104642       0.65228359
H       -0.63389415       0.75659778       1.15365654
H       -1.41972277      -1.56799608       1.53878717
H        2.45966674       1.29268084       0.46943909
H        3.01003121      -0.35830992       0.20167795
H        2.58509888       0.66753554      -1.18330357
H       -0.05419204       0.08649208      -2.05696299
15
Frame=7 idx=007236 GeodesicLength=0.5337254706856138 rxn_smarts="[C:1]([n:2]1[c:3]([H:11])[n:4][c:5]([C:6]([H:12])([H:13])[H:14])[c:7]1[H:15])([H:8])([H:9])[H:10]>>[C-:1]([n+:2]1[c:3]([H:11])[n:4]([H:10])[c:5]([C:6]([H:12])([H:13])[H:14])[c:7]1[H:15])([H:8])[H:9]"
C       -2.14934818       0.36994037      -0.09805396
N       -1.18248061      -0.66176736      -0.35898124
C       -0.71745405      -1.16927017       0.81329721
N        0.30322096      -0.34348181       1.15966109
C        0.92839775      -0.07232599      -0.08067096
C        2.32979033       0.40296600      -0.16049872
C       -0.00910122      -0.24874112      -1.03128542
H       -2.56937885       0.77807882      -1.01432152
H       -2.88954812       0.06131334       0.63481742
H       -0.65840328       0.78159007       1.17036236
H       -1.40454176      -1.57775182       1.54033264
H        2.47664857       1.28756469       0.46190315
H        3.01328691      -0.36860016       0.19904839
H        2.58940091       0.65452079      -1.18833897
H       -0.06048936       0.10596435      -2.04727148
15
Frame=8 idx=007236 GeodesicLength=0.6099838926416852 rxn_smarts="[C:1]([n:2]1[c:3]([H:11])[n:4][c:5]([C:6]([H:12])([H:13])[H:14])[c:7]1[H:15])([H:8])([H:9])[H:10]>>[C-:1]([n+:2]1[c:3]([H:11])[n:4]([H:10])[c:5]([C:6]([H:12])([H:13])[H:14])[c:7]1[H:15])([H:8])[H:9]"
C       -2.16088413       0.36748406      -0.09891051
N       -1.18139178      -0.65325535      -0.35243657
C       -0.70927196      -1.16752240       0.81488549
N        0.30528294      -0.33270030       1.15914141
C        0.93300928      -0.07157177      -0.07710618
C        2.33688331       0.39608169      -0.16338582
C       -0.00943798      -0.24488774      -1.02718118
H       -2.56782889       0.77525235      -1.02090122
H       -2.91012324       0.04142300       0.61673244
H       -0.68397141       0.80660845       1.18752034
H       -1.38914579      -1.58729971       1.54190528
H        2.49335255       1.28238121       0.45415561
H        3.01666905      -0.37870911       0.19638239
H        2.59353156       0.64148978      -1.19346182
H       -0.06667352       0.12522584      -2.03733967
15
Frame=9 idx=007236 GeodesicLength=0.6862853523564485 rxn_smarts="[C:1]([n:2]1[c:3]([H:11])[n:4][c:5]([C:6]([H:12])([H:13])[H:14])[c:7]1[H:15])([H:8])([H:9])[H:10]>>[C-:1]([n+:2]1[c:3]([H:11])[n:4]([H:10])[c:5]([C:6]([H:12])([H:13])[H:14])[c:7]1[H:15])([H:8])[H:9]"
C       -2.17238363       0.36502043      -0.09976029
N       -1.18029275      -0.64450319      -0.34566801
C       -0.70105221      -1.16569105       0.81652757
N        0.30754256      -0.32208695       1.15852510
C        0.93783042      -0.07132474      -0.07367412
C        2.34395174       0.38914787      -0.16640915
C       -0.00979512      -0.24103422      -1.02304826
H       -2.56592540       0.77291004      -1.02716101
H       -2.93032242       0.02135617       0.59795289
H       -0.71078081       0.83155381       1.20522967
H       -1.37354557      -1.59658777       1.54354366
H        2.50977837       1.27714343       0.44615269
H        3.02022542      -0.38862494       0.19366251
H        2.59750342       0.62841301      -1.19870355
H       -0.07273403       0.14430810      -2.02716970
15
Frame=10 idx=007236 GeodesicLength=0.7626284930403312 rxn_smarts="[C:1]([n:2]1[c:3]([H:11])[n:4][c:5]([C:6]([H:12])([H:13])[H:14])[c:7]1[H:15])([H:8])([H:9])[H:10]>>[C-:1]([n+:2]1[c:3]([H:11])[n:4]([H:10])[c:5]([C:6]([H:12])([H:13])[H:14])[c:7]1[H:15])([H:8])[H:9]"
C       -2.18383287       0.36254888      -0.10059599
N       -1.17919341      -0.63552261      -0.33866936
C       -0.69279703      -1.16380566       0.81821947
N        0.31000440      -0.31166773       1.15782161
C        0.94284271      -0.07155332      -0.07035601
C        2.35099351       0.38217204      -0.16956919
C       -0.01017599      -0.23721180      -1.01888595
H       -2.56366842       0.77106612      -1.03309143
H       -2.95012183       0.00113695       0.57846551
H       -0.73883235       0.85649887       1.22346681
H       -1.35775031      -1.60563844       1.54524059
H        2.52594049       1.27184500       0.43791443
H        3.02395145      -0.39835919       0.19085392
H        2.60130057       0.61532752      -1.20406043
H       -0.07866092       0.16316338      -2.01675396
15
Frame=11 idx=007236 GeodesicLength=0.8390038628260781 rxn_smarts="[C:1]([n:2]1[c:3]([H:11])[n:4][c:5]([C:6]([H:12])([H:13])[H:14])[c:7]1[H:15])([H:8])([H:9])[H:10]>>[C-:1]([n+:2]1[c:3]([H:11])[n:4]([H:10])[c:5]([C:6]([H:12])([H:13])[H:14])[c:7]1[H:15])([H:8])[H:9]"
C       -2.19522646       0.36007066      -0.10141965
N       -1.17808685      -0.62630524      -0.33142191
C       -0.68451009      -1.16186487       0.81997421
N        0.31269209      -0.30146157       1.15703442
C        0.94804982      -0.07227579      -0.06715129
C        2.35801367       0.37515501      -0.17287947
C       -0.01057606      -0.23343551      -1.01468533
H       -2.56104009       0.76974946      -1.03867588
H       -2.96951004      -0.01922375       0.55822728
H       -0.76821712       0.88143311       1.24227016
H       -1.34177417      -1.61444041       1.54700959
H        2.54183876       1.26649418       0.42942648
H        3.02786889      -0.40790739       0.18793164
H        2.60492128       0.60223958      -1.20954586
H       -0.08444364       0.18177250      -2.00609439
15
Frame=12 idx=007236 GeodesicLength=0.9153952156924485 rxn_smarts="[C:1]([n:2]1[c:3]([H:11])[n:4][c:5]([C:6]([H:12])([H:13])[H:14])[c:7]1[H:15])([H:8])([H:9])[H:10]>>[C-:1]([n+:2]1[c:3]([H:11])[n:4]([H:10])[c:5]([C:6]([H:12])([H:13])[H:14])[c:7]1[H:15])([H:8])[H:9]"
C       -2.20656653       0.35758940      -0.10223279
N       -1.17696838      -0.61683295      -0.32389912
C       -0.67619902      -1.15986028       0.82181288
N        0.31563737      -0.29148414       1.15617295
C        0.95345865      -0.07351403      -0.06405722
C        2.36502382       0.36809531      -0.17635928
C       -0.01099115      -0.22971894      -1.01042908
H       -2.55802453       0.76899872      -1.04389682
H       -2.98847076      -0.03973002       0.53717331
H       -0.79906120       0.90631942       1.26168742
H       -1.32563275      -1.62297347       1.54887236
H        2.55748323       1.26110612       0.42066069
H        3.03201260      -0.41726651       0.18486959
H        2.60836388       0.58914242      -1.21518245
H       -0.09006525       0.20012895      -1.99519245
15
Frame=13 idx=007236 GeodesicLength=0.9917920988529774 rxn_smarts="[C:1]([n:2]1[c:3]([H:11])[n:4][c:5]([C:6]([H:12])([H:13])[H:14])[c:7]1[H:15])([H:8])([H:9])[H:10]>>[C-:1]([n+:2]1[c:3]([H:11])[n:4]([H:10])[c:5]([C:6]([H:12])([H:13])[H:14])[c:7]1[H:15])([H:8])[H:9]"
C       -2.21784529       0.35510853      -0.10303820
N       -1.17582650      -0.60708889      -0.31607643
C       -0.66786532      -1.15778753       0.82375187
N        0.31887325      -0.28175909       1.15524291
C        0.95907484      -0.07528238      -0.06107331
C        2.37202660       0.36099298      -0.18002507
C       -0.01141590      -0.22607614      -1.00610768
H       -2.55459640       0.76884966      -1.04873361
H       -3.00698853      -0.06037595       0.51524576
H       -0.83147590       0.93114063       1.28175898
H       -1.30934063      -1.63122072       1.55085027
H        2.57287426       1.25568389       0.41160119
H        3.03639967      -0.42643264       0.18163615
H        2.61162268       0.57604315      -1.22098567
H       -0.09551683       0.21820449      -1.98404717
15
Frame=14 idx=007236 GeodesicLength=1.0681684907438238 rxn_smarts="[C:1]([n:2]1[c:3]([H:11])[n:4][c:5]([C:6]([H:12])([H:13])[H:14])[c:7]1[H:15])([H:8])([H:9])[H:10]>>[C-:1]([n+:2]1[c:3]([H:11])[n:4]([H:10])[c:5]([C:6]([H:12])([H:13])[H:14])[c:7]1[H:15])([H:8])[H:9]"
C       -2.22906349       0.35262925      -0.10383876
N       -1.17465211      -0.59704994      -0.30792571
C       -0.65951209      -1.15563134       0.82581525
N        0.32243495      -0.27229840       1.15425507
C        0.96490377      -0.07758772      -0.05819591
C        2.37903232       0.35384425      -0.18389688
C       -0.01184610      -0.22251507      -1.00170486
H       -2.55073911       0.76934024      -1.05316412
H       -3.02503903      -0.08116877       0.49237370
H       -0.86560450       0.95586068       1.30253079
H       -1.29290828      -1.63916231       1.55296593
H        2.58802815       1.25023331       0.40222047
H        3.04105378      -0.43541109       0.17820040
H        2.61469565       0.56293241      -1.22697833
H       -0.10078392       0.23598448      -1.97265705
15
Frame=15 idx=007236 GeodesicLength=1.1445051795045447 rxn_smarts="[C:1]([n:2]1[c:3]([H:11])[n:4][c:5]([C:6]([H:12])([H:13])[H:14])[c:7]1[H:15])([H:8])([H:9])[H:10]>>[C-:1]([n+:2]1[c:3]([H:11])[n:4]([H:10])[c:5]([C:6]([H:12])([H:13])[H:14])[c:7]1[H:15])([H:8])[H:9]"
C       -2.24021977       0.35014927      -0.10464197
N       -1.17343041      -0.58668966      -0.29941545
C       -0.65113857      -1.15337797       0.82802599
N        0.32636181      -0.26311871       1.15321956
C        0.97095151      -0.08043330      -0.05542247
C        2.38604970       0.34664362      -0.18799439
C       -0.01227614      -0.21904378      -0.99720719
H       -2.54643555       0.77050109      -1.05716707
H       -3.04259470      -0.10210756       0.46849301
H       -0.90159798       0.98044951       1.32404148
H       -1.27634752      -1.64677638       1.55524594
H        2.60296088       1.24475242       0.39249682
H        3.04599203      -0.44420994       0.17452604
H        2.61758128       0.54980689      -1.23318091
H       -0.10585658       0.25345451      -1.96101939
15
Frame=16 idx=007236 GeodesicLength=1.2207747956169475 rxn_smarts="[C:1]([n:2]1[c:3]([H:11])[n:4][c:5]([C:6]([H:12])([H:13])[H:14])[c:7]1[H:15])([H:8])([H:9])[H:10]>>[C-:1]([n+:2]1[c:3]([H:11])[n:4]([H:10])[c:5]([C:6]([H:12])([H:13])[H:14])[c:7]1[H:15])([H:8])[H:9]"
C       -2.25132084       0.34766124      -0.10545012
N       -1.17214536      -0.57597181      -0.29050698
C       -0.64274057      -1.15100217       0.83041424
N        0.33069719      -0.25422093       1.15215078
C        0.97722441      -0.08381084      -0.05274964
C        2.39309260       0.33937960      -0.19234285
C       -0.01270178      -0.21565718      -0.99259381
H       -2.54166821       0.77237604      -1.06070767
H       -3.05962473      -0.12321988       0.44350417
H       -0.93964401       1.00486010       1.34633895
H       -1.25966204      -1.65403276       1.55772287
H        2.61770454       1.23923701       0.38239399
H        3.05122988      -0.45284881       0.17057738
H        2.62028304       0.53664308      -1.23962186
H       -0.11072413       0.27060731      -1.94912944
