10
Frame=0 idx=000141 GeodesicLength=0.0 rxn_smarts="[O:1]=[C:2]1[C:3]([H:7])([H:8])[C@@:4]2([H:9])[O:5][C@@:6]12[H:10]>>[O:1]([C:2]1=[C:6]2[C@@:4]([H:9])([C:3]1([H:7])[H:8])[O:5]2)[H:10]"
O        0.43728429       1.81534858       0.63560918
C       -0.01437001       0.87474170      -0.08002798
C       -1.10511363      -0.13512049       0.05675746
C        0.18067918      -0.96863066       0.03147993
O        0.69531838      -1.02696001      -1.25683981
C        1.11632999       0.14876218      -0.57711461
H       -1.73284180      -0.30086849      -0.81417794
H       -1.66108199      -0.09492521       0.98861723
H        0.52838913      -1.63796544       0.80703017
H        1.55540646       1.32561785       0.20866635
10
Frame=1 idx=000141 GeodesicLength=0.037439572663625464 rxn_smarts="[O:1]=[C:2]1[C:3]([H:7])([H:8])[C@@:4]2([H:9])[O:5][C@@:6]12[H:10]>>[O:1]([C:2]1=[C:6]2[C@@:4]([H:9])([C:3]1([H:7])[H:8])[O:5]2)[H:10]"
O        0.42961157       1.82155425       0.62909286
C       -0.01686505       0.87695127      -0.08522268
C       -1.10436861      -0.13709122       0.05653317
C        0.17978636      -0.96995593       0.03097114
O        0.69401771      -1.02337392      -1.25756693
C        1.12021406       0.14750688      -0.57125081
H       -1.73616607      -0.30382392      -0.81126531
H       -1.65608011      -0.09256174       0.99085548
H        0.52587606      -1.64412391       0.80300825
H        1.56397409       1.32491824       0.21484483
10
Frame=2 idx=000141 GeodesicLength=0.07466121915482057 rxn_smarts="[O:1]=[C:2]1[C:3]([H:7])([H:8])[C@@:4]2([H:9])[O:5][C@@:6]12[H:10]>>[O:1]([C:2]1=[C:6]2[C@@:4]([H:9])([C:3]1([H:7])[H:8])[O:5]2)[H:10]"
O        0.42195308       1.82774853       0.62229498
C       -0.01944536       0.87913847      -0.09052306
C       -1.10362902      -0.13901969       0.05634446
C        0.17889449      -0.97128401       0.03041429
O        0.69286376      -1.01963996      -1.25826680
C        1.12395611       0.14629996      -0.56530771
H       -1.73955068      -0.30692597      -0.80823422
H       -1.65098540      -0.09005982       0.99312222
H        0.52335089      -1.65032952       0.79885323
H        1.57259213       1.32407201       0.22130261
10
Frame=3 idx=000141 GeodesicLength=0.1120209250782454 rxn_smarts="[O:1]=[C:2]1[C:3]([H:7])([H:8])[C@@:4]2([H:9])[O:5][C@@:6]12[H:10]>>[O:1]([C:2]1=[C:6]2[C@@:4]([H:9])([C:3]1([H:7])[H:8])[O:5]2)[H:10]"
O        0.41427165       1.83394214       0.61548257
C       -0.02201980       0.88132974      -0.09584705
C       -1.10288807      -0.14094637       0.05617104
C        0.17799350      -0.97259670       0.02988380
O        0.69170566      -1.01593341      -1.25892833
C        1.12770821       0.14511217      -0.55935784
H       -1.74292265      -0.30995475      -0.80518205
H       -1.64592826      -0.08766482       0.99537408
H        0.52081403      -1.65652026       0.79467731
H        1.58126573       1.32323225       0.22772648
10
Frame=4 idx=000141 GeodesicLength=0.14913286549200722 rxn_smarts="[O:1]=[C:2]1[C:3]([H:7])([H:8])[C@@:4]2([H:9])[O:5][C@@:6]12[H:10]>>[O:1]([C:2]1=[C:6]2[C@@:4]([H:9])([C:3]1([H:7])[H:8])[O:5]2)[H:10]"
O        0.40664580       1.84006651       0.60846975
C       -0.02466285       0.88351900      -0.10125665
C       -1.10213898      -0.14292561       0.05605000
C        0.17705180      -0.97391915       0.02929409
O        0.69072290      -1.01212677      -1.25948424
C        1.13128355       0.14401505      -0.55332907
H       -1.74635584      -0.31308736      -0.80205582
H       -1.64081081      -0.08512345       0.99764979
H        0.51826788      -1.66271049       0.79033880
H        1.58999655       1.32229228       0.23432334
10
Frame=5 idx=000141 GeodesicLength=0.18678296896788724 rxn_smarts="[O:1]=[C:2]1[C:3]([H:7])([H:8])[C@@:4]2([H:9])[O:5][C@@:6]12[H:10]>>[O:1]([C:2]1=[C:6]2[C@@:4]([H:9])([C:3]1([H:7])[H:8])[O:5]2)[H:10]"
O        0.39885937       1.84625936       0.60151527
C       -0.02727871       0.88568246      -0.10660039
C       -1.10141052      -0.14479074       0.05588201
C        0.17616444      -0.97525573       0.02879233
O        0.68964781      -1.00833858      -1.26008842
C        1.13485413       0.14289295      -0.54733806
H       -1.74973069      -0.31617041      -0.79888471
H       -1.63570702      -0.08270989       0.99982615
H        0.51572763      -1.66889023       0.78605754
H        1.59887356       1.32132080       0.24083828
10
Frame=6 idx=000141 GeodesicLength=0.2241693153517415 rxn_smarts="[O:1]=[C:2]1[C:3]([H:7])([H:8])[C@@:4]2([H:9])[O:5][C@@:6]12[H:10]>>[O:1]([C:2]1=[C:6]2[C@@:4]([H:9])([C:3]1([H:7])[H:8])[O:5]2)[H:10]"
O        0.39109752       1.85248251       0.59431641
C       -0.02994114       0.88787532      -0.11208356
C       -1.10069005      -0.14665177       0.05573027
C        0.17524951      -0.97660499       0.02812711
O        0.68864328      -1.00447763      -1.26073129
C        1.13837551       0.14178047      -0.54122369
H       -1.75317327      -0.31930162      -0.79562445
H       -1.63049773      -0.08026317       1.00208235
H        0.51319786      -1.67509490       0.78178403
H        1.60773849       1.32025577       0.24762282
10
Frame=7 idx=000141 GeodesicLength=0.2611931427154289 rxn_smarts="[O:1]=[C:2]1[C:3]([H:7])([H:8])[C@@:4]2([H:9])[O:5][C@@:6]12[H:10]>>[O:1]([C:2]1=[C:6]2[C@@:4]([H:9])([C:3]1([H:7])[H:8])[O:5]2)[H:10]"
O        0.38342625       1.85867327       0.58719734
C       -0.03259754       0.89003424      -0.11751871
C       -1.09996047      -0.14858906       0.05558815
C        0.17436469      -0.97790715       0.02760836
O        0.68760347      -1.00061680      -1.26136910
C        1.14194207       0.14068949      -0.53526376
H       -1.75658239      -0.32245655      -0.79241807
H       -1.62535796      -0.07772582       1.00431559
H        0.51067076      -1.68131430       0.77747317
H        1.61649112       1.31921268       0.25438702
10
Frame=8 idx=000141 GeodesicLength=0.2987192924525214 rxn_smarts="[O:1]=[C:2]1[C:3]([H:7])([H:8])[C@@:4]2([H:9])[O:5][C@@:6]12[H:10]>>[O:1]([C:2]1=[C:6]2[C@@:4]([H:9])([C:3]1([H:7])[H:8])[O:5]2)[H:10]"
O        0.37570443       1.86470810       0.57956188
C       -0.03548554       0.89216260      -0.12314694
C       -1.09930066      -0.15045052       0.05555164
C        0.17347328      -0.97918798       0.02706061
O        0.68684829      -0.99652158      -1.26172336
C        1.14502491       0.13987460      -0.52919242
H       -1.76008946      -0.32584039      -0.78891048
H       -1.62014795      -0.07510407       1.00641760
H        0.50817864      -1.68744457       0.77279567
H        1.62579406       1.31780382       0.26158579
10
Frame=9 idx=000141 GeodesicLength=0.33576183419392536 rxn_smarts="[O:1]=[C:2]1[C:3]([H:7])([H:8])[C@@:4]2([H:9])[O:5][C@@:6]12[H:10]>>[O:1]([C:2]1=[C:6]2[C@@:4]([H:9])([C:3]1([H:7])[H:8])[O:5]2)[H:10]"
O        0.36783405       1.87104806       0.57191535
C       -0.03817815       0.89431129      -0.12880590
C       -1.09852180      -0.15231955       0.05545485
C        0.17252680      -0.98057364       0.02635275
O        0.68606544      -0.99251848      -1.26234412
C        1.14834963       0.13884889      -0.52292593
H       -1.76357397      -0.32900534      -0.78543460
H       -1.61477323      -0.07253631       1.00875578
H        0.50558859      -1.69376686       0.76829096
H        1.63468265       1.31651193       0.26874086
10
Frame=10 idx=000141 GeodesicLength=0.3733139298212619 rxn_smarts="[O:1]=[C:2]1[C:3]([H:7])([H:8])[C@@:4]2([H:9])[O:5][C@@:6]12[H:10]>>[O:1]([C:2]1=[C:6]2[C@@:4]([H:9])([C:3]1([H:7])[H:8])[O:5]2)[H:10]"
O        0.35995140       1.87719746       0.56387510
C       -0.04112462       0.89641355      -0.13462844
C       -1.09782368      -0.15414666       0.05544473
C        0.17159221      -0.98190959       0.02568089
O        0.68552736      -0.98829557      -1.26269629
C        1.15120322       0.13811214      -0.51665181
H       -1.76712268      -0.33240039      -0.78168184
H       -1.60937612      -0.06986559       1.01091502
H        0.50305752      -1.69995459       0.76346871
H        1.64411539       1.31484925       0.27627393
10
Frame=11 idx=000141 GeodesicLength=0.41066478148435154 rxn_smarts="[O:1]=[C:2]1[C:3]([H:7])([H:8])[C@@:4]2([H:9])[O:5][C@@:6]12[H:10]>>[O:1]([C:2]1=[C:6]2[C@@:4]([H:9])([C:3]1([H:7])[H:8])[O:5]2)[H:10]"
O        0.35204114       1.88338427       0.55575121
C       -0.04406538       0.89851476      -0.14048705
C       -1.09711380      -0.15597007       0.05544252
C        0.17066812      -0.98324475       0.02498988
O        0.68496451      -0.98407942      -1.26308189
C        1.15408408       0.13736034      -0.51035881
H       -1.77067601      -0.33580634      -0.77788888
H       -1.60393705      -0.06714978       1.01309109
H        0.50053941      -1.70616804       0.75861364
H        1.65349500       1.31315904       0.28392829
10
Frame=12 idx=000141 GeodesicLength=0.44819081338509154 rxn_smarts="[O:1]=[C:2]1[C:3]([H:7])([H:8])[C@@:4]2([H:9])[O:5][C@@:6]12[H:10]>>[O:1]([C:2]1=[C:6]2[C@@:4]([H:9])([C:3]1([H:7])[H:8])[O:5]2)[H:10]"
O        0.34407019       1.88957084       0.54760053
C       -0.04703936       0.90061888      -0.14634706
C       -1.09640509      -0.15779529       0.05546532
C        0.16974218      -0.98457027       0.02431377
O        0.68441602      -0.97984382      -1.26343232
C        1.15690638       0.13664976      -0.50407848
H       -1.77422140      -0.33921578      -0.77413732
H       -1.59851343      -0.06446102       1.01528934
H        0.49802691      -1.71235171       0.75374340
H        1.66301762       1.31139840       0.29158282
10
Frame=13 idx=000141 GeodesicLength=0.4852643151711187 rxn_smarts="[O:1]=[C:2]1[C:3]([H:7])([H:8])[C@@:4]2([H:9])[O:5][C@@:6]12[H:10]>>[O:1]([C:2]1=[C:6]2[C@@:4]([H:9])([C:3]1([H:7])[H:8])[O:5]2)[H:10]"
O        0.33614419       1.89573652       0.53946141
C       -0.04999090       0.90272238      -0.15219175
C       -1.09572412      -0.15962516       0.05544560
C        0.16882176      -0.98588772       0.02364826
O        0.68388731      -0.97559756      -1.26378073
C        1.15975569       0.13597134      -0.49782763
H       -1.77777130      -0.34265422      -0.77029950
H       -1.59306707      -0.06172477       1.01742766
H        0.49550538      -1.71855570       0.74887351
H        1.67243905       1.30961489       0.29924318
10
Frame=14 idx=000141 GeodesicLength=0.5226089825643303 rxn_smarts="[O:1]=[C:2]1[C:3]([H:7])([H:8])[C@@:4]2([H:9])[O:5][C@@:6]12[H:10]>>[O:1]([C:2]1=[C:6]2[C@@:4]([H:9])([C:3]1([H:7])[H:8])[O:5]2)[H:10]"
O        0.32814001       1.90191286       0.53127015
C       -0.05301051       0.90483856      -0.15807524
C       -1.09501600      -0.16143618       0.05545483
C        0.16788299      -0.98720839       0.02295634
O        0.68341507      -0.97129233      -1.26408693
C        1.16253302       0.13530277      -0.49146446
H       -1.78134199      -0.34608438      -0.76649823
H       -1.58763628      -0.05906278       1.01961767
H        0.49296581      -1.72474503       0.74397950
H        1.68206788       1.30777490       0.30684638
10
Frame=15 idx=000141 GeodesicLength=0.560136425870771 rxn_smarts="[O:1]=[C:2]1[C:3]([H:7])([H:8])[C@@:4]2([H:9])[O:5][C@@:6]12[H:10]>>[O:1]([C:2]1=[C:6]2[C@@:4]([H:9])([C:3]1([H:7])[H:8])[O:5]2)[H:10]"
O        0.32004844       1.90799749       0.52278864
C       -0.05617236       0.90690862      -0.16409098
C       -1.09434659      -0.16322652       0.05550106
C        0.16694938      -0.98851239       0.02224482
O        0.68309569      -0.96689005      -1.26428273
C        1.16495835       0.13484204      -0.48510131
H       -1.78492802      -0.34961547      -0.76246215
H       -1.58213718      -0.05629435       1.02169490
H        0.49051433      -1.73081784       0.73891337
H        1.69201796       1.30560848       0.31479439
10
Frame=16 idx=000141 GeodesicLength=0.5975705634969873 rxn_smarts="[O:1]=[C:2]1[C:3]([H:7])([H:8])[C@@:4]2([H:9])[O:5][C@@:6]12[H:10]>>[O:1]([C:2]1=[C:6]2[C@@:4]([H:9])([C:3]1([H:7])[H:8])[O:5]2)[H:10]"
O        0.31190657       1.91410505       0.51425474
C       -0.05934920       0.90898285      -0.17012365
C       -1.09367721      -0.16501471       0.05555283
C        0.16602027      -0.98980748       0.02153023
O        0.68277880      -0.96247133      -1.26447889
C        1.16737202       0.13440405      -0.47873212
H       -1.78852025      -0.35315911      -0.75840910
H       -1.57662470      -0.05352022       1.02377990
H        0.48807264      -1.73688879       0.73383253
H        1.70202108       1.30336968       0.32279353
