17
Frame=0 idx=010886 GeodesicLength=0.0 rxn_smarts="[C:1]([C@@:2]1([H:11])[O:3][C@@:4]2([H:12])[C:5]([H:13])([H:14])[C@@:6]12[C:7]([H:15])([H:16])[H:17])([H:8])([H:9])[H:10]>>[C:1]([C@@:2]1([H:11])[O:3][C:4]([H:12])=[C:6]1[C:5]([C:7]([H:15])([H:16])[H:17])([H:13])[H:14])([H:8])([H:9])[H:10]"
C       -1.89076501       0.16702665       0.38443732
C       -0.66291873      -0.35176625       1.08594474
O       -0.32051933      -1.71775643       0.73547616
C        0.99269715      -1.26873893       0.41823813
C        1.02740703      -0.57265510      -0.86938281
C        0.76954682       0.16557233       0.83066226
C        0.87351227       1.27859168      -0.70127024
H       -2.11377240       1.18480123       0.71046105
H       -1.77078023       0.16597063      -0.70055074
H       -2.74704764      -0.46434856       0.62789652
H       -0.80391026      -0.29869339       2.17278880
H        1.81329455      -1.90366439       0.73725424
H        2.00732364      -0.49529082      -1.32082102
H        0.21917407      -0.81764942      -1.54639679
H        0.64891907       1.29735823      -1.77680994
H        0.11162430       1.90355939      -0.24564981
H        1.84621477       1.72768314      -0.54227784
17
Frame=1 idx=010886 GeodesicLength=0.11501764367848254 rxn_smarts="[C:1]([C@@:2]1([H:11])[O:3][C@@:4]2([H:12])[C:5]([H:13])([H:14])[C@@:6]12[C:7]([H:15])([H:16])[H:17])([H:8])([H:9])[H:10]>>[C:1]([C@@:2]1([H:11])[O:3][C:4]([H:12])=[C:6]1[C:5]([C:7]([H:15])([H:16])[H:17])([H:13])[H:14])([H:8])([H:9])[H:10]"
C       -1.90036174       0.15207140       0.38556705
C       -0.66469504      -0.35068643       1.08446460
O       -0.32644805      -1.72379568       0.75588898
C        0.98513780      -1.28464507       0.42440935
C        1.02606936      -0.56250864      -0.87521645
C        0.76467471       0.15173619       0.80085053
C        0.88394442       1.29523326      -0.70192341
H       -2.11939764       1.17744275       0.68996454
H       -1.79318271       0.12545466      -0.70028711
H       -2.75480852      -0.47172079       0.65395023
H       -0.79338567      -0.27330187       2.17139322
H        1.80588804      -1.91898828       0.74394257
H        2.01010632      -0.49876604      -1.32026755
H        0.22234543      -0.80904014      -1.55781638
H        0.65956275       1.33399737      -1.77667190
H        0.13147363       1.92750870      -0.23951126
H        1.86307690       1.73000861      -0.53873702
17
Frame=2 idx=010886 GeodesicLength=0.22999319728579504 rxn_smarts="[C:1]([C@@:2]1([H:11])[O:3][C@@:4]2([H:12])[C:5]([H:13])([H:14])[C@@:6]12[C:7]([H:15])([H:16])[H:17])([H:8])([H:9])[H:10]>>[C:1]([C@@:2]1([H:11])[O:3][C:4]([H:12])=[C:6]1[C:5]([C:7]([H:15])([H:16])[H:17])([H:13])[H:14])([H:8])([H:9])[H:10]"
C       -1.91025398       0.13634250       0.38641753
C       -0.66658551      -0.34937393       1.08271342
O       -0.33183568      -1.72942482       0.77766122
C        0.97748086      -1.29992612       0.43052847
C        1.02409071      -0.55246993      -0.88213270
C        0.75907632       0.13783056       0.77060284
C        0.89503119       1.31185966      -0.70184197
H       -2.12541832       1.16931536       0.66734121
H       -1.81605956       0.08249465      -0.69948925
H       -2.76245461      -0.47894055       0.68059168
H       -0.78278033      -0.24661881       2.16906008
H        1.79885309      -1.93312651       0.75063267
H        2.01194917      -0.50272552      -1.32095849
H        0.22428516      -0.80017578      -1.56966597
H        0.67054275       1.37197891      -1.77535763
H        0.15316257       1.95181970      -0.23161684
H        1.88091619       1.73114062      -0.53448627
17
Frame=3 idx=010886 GeodesicLength=0.34491934484879205 rxn_smarts="[C:1]([C@@:2]1([H:11])[O:3][C@@:4]2([H:12])[C:5]([H:13])([H:14])[C@@:6]12[C:7]([H:15])([H:16])[H:17])([H:8])([H:9])[H:10]>>[C:1]([C@@:2]1([H:11])[O:3][C:4]([H:12])=[C:6]1[C:5]([C:7]([H:15])([H:16])[H:17])([H:13])[H:14])([H:8])([H:9])[H:10]"
C       -1.92045723       0.11978833       0.38698570
C       -0.66860409      -0.34779594       1.08066420
O       -0.33662210      -1.73454376       0.80085349
C        0.96974496      -1.31454149       0.43663200
C        1.02141804      -0.54248833      -0.89018662
C        0.75271582       0.12386618       0.73986510
C        0.90681418       1.32844080      -0.70097302
H       -2.13189649       1.16027542       0.64244501
H       -1.83943174       0.03695051      -0.69801677
H       -2.76995662      -0.48594571       0.70783769
H       -0.77214456      -0.21851755       2.16563266
H        1.79221455      -1.94603661       0.75730891
H        2.01279269      -0.50716132      -1.32295288
H        0.22491927      -0.79102406      -1.58199049
H        0.68192566       1.41136425      -1.77271638
H        0.17682999       1.97640752      -0.22181517
H        1.89973770       1.73096176      -0.52957345
17
Frame=4 idx=010886 GeodesicLength=0.459777220432815 rxn_smarts="[C:1]([C@@:2]1([H:11])[O:3][C@@:4]2([H:12])[C:5]([H:13])([H:14])[C@@:6]12[C:7]([H:15])([H:16])[H:17])([H:8])([H:9])[H:10]>>[C:1]([C@@:2]1([H:11])[O:3][C:4]([H:12])=[C:6]1[C:5]([C:7]([H:15])([H:16])[H:17])([H:13])[H:14])([H:8])([H:9])[H:10]"
C       -1.93099224       0.10235315       0.38728127
C       -0.67077004      -0.34591020       1.07828726
O       -0.34073698      -1.73902885       0.82553266
C        0.96194583      -1.32844204       0.44274947
C        1.01798199      -0.53250244      -0.89943403
C        0.74554985       0.10985764       0.70858361
C        0.91934080       1.34494290      -0.69926736
H       -2.13889868       1.15013653       0.61512757
H       -1.86331171      -0.01136401      -0.69569810
H       -2.77728920      -0.49264785       0.73572462
H       -0.76155008      -0.18886739       2.16091224
H        1.78599535      -1.95766627       0.76393569
H        2.01255578      -0.51205638      -1.32630917
H        0.22416398      -0.78153732      -1.59483661
H        0.69383875       1.45221854      -1.76857714
H        0.20261933       2.00115906      -0.20997796
H        1.91955727       1.72935493      -0.52403403
17
Frame=5 idx=010886 GeodesicLength=0.5743811050156409 rxn_smarts="[C:1]([C@@:2]1([H:11])[O:3][C@@:4]2([H:12])[C:5]([H:13])([H:14])[C@@:6]12[C:7]([H:15])([H:16])[H:17])([H:8])([H:9])[H:10]>>[C:1]([C@@:2]1([H:11])[O:3][C:4]([H:12])=[C:6]1[C:5]([C:7]([H:15])([H:16])[H:17])([H:13])[H:14])([H:8])([H:9])[H:10]"
C       -1.94188634       0.08398202       0.38735819
C       -0.67310731      -0.34366162       1.07552902
O       -0.34414115      -1.74262425       0.85171061
C        0.95407688      -1.34153154       0.44887344
C        1.01367843      -0.52238166      -0.90992888
C        0.73755138       0.09588473       0.67672562
C        0.93266024       1.36131989      -0.69666649
H       -2.14632658       1.13870135       0.58517917
H       -1.88767079      -0.06278273      -0.69228283
H       -2.78452834      -0.49883746       0.76435058
H       -0.75109913      -0.15781430       2.15480193
H        1.78022877      -1.96787088       0.77045014
H        2.01111381      -0.51736336      -1.33106071
H        0.22191586      -0.77154274      -1.60828278
H        0.70659829       1.49442891      -1.76279892
H        0.23061874       2.02587128      -0.19613074
H        1.94031725       1.72622236      -0.51782735
17
Frame=6 idx=010886 GeodesicLength=0.6888289351343244 rxn_smarts="[C:1]([C@@:2]1([H:11])[O:3][C@@:4]2([H:12])[C:5]([H:13])([H:14])[C@@:6]12[C:7]([H:15])([H:16])[H:17])([H:8])([H:9])[H:10]>>[C:1]([C@@:2]1([H:11])[O:3][C:4]([H:12])=[C:6]1[C:5]([C:7]([H:15])([H:16])[H:17])([H:13])[H:14])([H:8])([H:9])[H:10]"
C       -1.95316153       0.06459578       0.38720270
C       -0.67564619      -0.34099674       1.07235143
O       -0.34670738      -1.74521963       0.87950636
C        0.94617373      -1.35374461       0.45506017
C        1.00843125      -0.51209287      -0.92174393
C        0.72864785       0.08193835       0.64419778
C        0.94685114       1.37753240      -0.69311303
H       -2.15444611       1.12566956       0.55255206
H       -1.91249023      -0.11730533      -0.68756094
H       -2.79156691      -0.50453345       0.79360836
H       -0.74085418      -0.12502620       2.14701635
H        1.77494668      -1.97658592       0.77683495
H        2.00836097      -0.52310279      -1.33732214
H        0.21805369      -0.76103485      -1.62235656
H        0.72028952       1.53811923      -1.75518147
H        0.26103049       2.05042406      -0.18004337
H        1.96208719       1.72136302      -0.51100872
17
Frame=7 idx=010886 GeodesicLength=0.8031183439981355 rxn_smarts="[C:1]([C@@:2]1([H:11])[O:3][C@@:4]2([H:12])[C:5]([H:13])([H:14])[C@@:6]12[C:7]([H:15])([H:16])[H:17])([H:8])([H:9])[H:10]>>[C:1]([C@@:2]1([H:11])[O:3][C:4]([H:12])=[C:6]1[C:5]([C:7]([H:15])([H:16])[H:17])([H:13])[H:14])([H:8])([H:9])[H:10]"
C       -1.96485012       0.04411108       0.38683246
C       -0.67841248      -0.33784927       1.06871323
O       -0.34833633      -1.74661724       0.90899872
C        0.93825850      -1.36499262       0.46133746
C        1.00213692      -0.50155444      -0.93494566
C        0.71877341       0.06804662       0.61092491
C        0.96200248       1.39351413      -0.68853599
H       -2.16341849       1.11074754       0.51711983
H       -1.93772173      -0.17506066      -0.68127011
H       -2.79837298      -0.50967372       0.82345006
H       -0.73088668      -0.09034101       2.13732267
H        1.77018436      -1.98370528       0.78305255
H        2.00415572      -0.52927661      -1.34519140
H        0.21244758      -0.74992503      -1.63710639
H        0.73512113       1.58333246      -1.74552743
H        0.29402416       2.07461121      -0.16158269
H        1.98489456       1.71463283      -0.50359221
17
Frame=8 idx=010886 GeodesicLength=0.9172399668145989 rxn_smarts="[C:1]([C@@:2]1([H:11])[O:3][C@@:4]2([H:12])[C:5]([H:13])([H:14])[C@@:6]12[C:7]([H:15])([H:16])[H:17])([H:8])([H:9])[H:10]>>[C:1]([C@@:2]1([H:11])[O:3][C:4]([H:12])=[C:6]1[C:5]([C:7]([H:15])([H:16])[H:17])([H:13])[H:14])([H:8])([H:9])[H:10]"
C       -1.97698151       0.02244056       0.38627416
C       -0.68145432      -0.33414075       1.06454552
O       -0.34890080      -1.74654742       0.94025019
C        0.93034887      -1.37514253       0.46773900
C        0.99467356      -0.49066797      -0.94960915
C        0.70784999       0.05425920       0.57682051
C        0.97821812       1.40919936      -0.68287356
H       -2.17343603       1.09355299       0.47888594
H       -1.96328287      -0.23612796      -0.67312445
H       -2.80489609      -0.51422948       0.85378893
H       -0.72133468      -0.05362525       2.12546560
H        1.76597693      -1.98905248       0.78907384
H        1.99833245      -0.53587607      -1.35477223
H        0.20494986      -0.73809864      -1.65258813
H        0.75139009       1.63005432      -1.73362632
H        0.32978029       2.09821228      -0.14065582
H        2.00876616       1.70578985      -0.49559404
17
Frame=9 idx=010886 GeodesicLength=1.0309966689190486 rxn_smarts="[C:1]([C@@:2]1([H:11])[O:3][C@@:4]2([H:12])[C:5]([H:13])([H:14])[C@@:6]12[C:7]([H:15])([H:16])[H:17])([H:8])([H:9])[H:10]>>[C:1]([C@@:2]1([H:11])[O:3][C:4]([H:12])=[C:6]1[C:5]([C:7]([H:15])([H:16])[H:17])([H:13])[H:14])([H:8])([H:9])[H:10]"
C       -1.98956704      -0.00046623       0.38560343
C       -0.68479650      -0.32976072       1.05977473
O       -0.34838371      -1.74460348       0.97327502
C        0.92244898      -1.38399995       0.47425928
C        0.98589809      -0.47924448      -0.96582092
C        0.69584998       0.04068953       0.54184162
C        0.99554662       1.42446375      -0.67607768
H       -2.18443637       1.07376137       0.43785402
H       -1.98896750      -0.30062238      -0.66280190
H       -2.81127974      -0.51819459       0.88448782
H       -0.71233445      -0.01505874       2.11140458
H        1.76238576      -1.99238024       0.79486663
H        1.99068046      -0.54286111      -1.36615493
H        0.19538983      -0.72529927      -1.66889108
H        0.76955097       1.67799652      -1.71930082
H        0.36839120       2.12087914      -0.11734933
H        2.03362341       1.69470088      -0.48697049
17
Frame=10 idx=010886 GeodesicLength=1.1445821891511576 rxn_smarts="[C:1]([C@@:2]1([H:11])[O:3][C@@:4]2([H:12])[C:5]([H:13])([H:14])[C@@:6]12[C:7]([H:15])([H:16])[H:17])([H:8])([H:9])[H:10]>>[C:1]([C@@:2]1([H:11])[O:3][C:4]([H:12])=[C:6]1[C:5]([C:7]([H:15])([H:16])[H:17])([H:13])[H:14])([H:8])([H:9])[H:10]"
C       -2.00266731      -0.02477790       0.38482703
C       -0.68851760      -0.32461914       1.05431757
O       -0.34652103      -1.74051194       1.00818394
C        0.91461862      -1.39140252       0.48096109
C        0.97566102      -0.46721022      -0.98367115
C        0.68262420       0.02734741       0.50584871
C        1.01418420       1.43919835      -0.66803514
H       -2.19696402       1.05084150       0.39402081
H       -2.01469134      -0.36853626      -0.64996702
H       -2.81736081      -0.52160421       0.91544224
H       -0.70405532       0.02584748       2.09459760
H        1.75946432      -1.99348250       0.80038031
H        1.98097709      -0.55024911      -1.37951739
H        0.18358448      -0.71147497      -1.68605063
H        0.78986517       1.72731389      -1.70223831
H        0.41019717       2.14232202      -0.09133945
H        2.05960116       1.68099812      -0.47776019
17
Frame=11 idx=010886 GeodesicLength=1.2580264007394566 rxn_smarts="[C:1]([C@@:2]1([H:11])[O:3][C@@:4]2([H:12])[C:5]([H:13])([H:14])[C@@:6]12[C:7]([H:15])([H:16])[H:17])([H:8])([H:9])[H:10]>>[C:1]([C@@:2]1([H:11])[O:3][C:4]([H:12])=[C:6]1[C:5]([C:7]([H:15])([H:16])[H:17])([H:13])[H:14])([H:8])([H:9])[H:10]"
C       -2.01632912      -0.05059631       0.38396328
C       -0.69268368      -0.31857883       1.04807412
O       -0.34314201      -1.73383405       1.04503377
C        0.90690456      -1.39710458       0.48787651
C        0.96379943      -0.45442796      -1.00326818
C        0.66806507       0.01430441       0.46872964
C        1.03426977       1.45326326      -0.65865821
H       -2.21130226       1.02431980       0.34748698
H       -2.04025090      -0.43985597      -0.63430917
H       -2.82312382      -0.52456216       0.94645964
H       -0.69668389       0.06921516       2.07479920
H        1.75728098      -1.99204458       0.80560798
H        1.96897124      -0.55804656      -1.39503027
H        0.16934331      -0.69645172      -1.70414815
H        0.81271658       1.77790382      -1.68216684
H        0.45543966       2.16216087      -0.06249284
H        2.08672507       1.66433541      -0.46795747
17
Frame=12 idx=010886 GeodesicLength=1.3713895202996558 rxn_smarts="[C:1]([C@@:2]1([H:11])[O:3][C@@:4]2([H:12])[C:5]([H:13])([H:14])[C@@:6]12[C:7]([H:15])([H:16])[H:17])([H:8])([H:9])[H:10]>>[C:1]([C@@:2]1([H:11])[O:3][C:4]([H:12])=[C:6]1[C:5]([C:7]([H:15])([H:16])[H:17])([H:13])[H:14])([H:8])([H:9])[H:10]"
C       -2.03058702      -0.07808761       0.38309807
C       -0.69739068      -0.31149062       1.04090609
O       -0.33807142      -1.72408191       1.08380935
C        0.89936407      -1.40081022       0.49504547
C        0.95012980      -0.44070610      -1.02471337
C        0.65204367       0.00165160       0.43037587
C        1.05597471       1.46646154      -0.64786094
H       -2.22778750       0.99364620       0.29849598
H       -2.06538957      -0.51451483      -0.61549085
H       -2.82858725      -0.52722501       0.97734789
H       -0.69049723       0.11521115       2.05162306
H        1.75592139      -1.98769628       0.81054253
H        1.95436668      -0.56621804      -1.41285049
H        0.15246602      -0.68001837      -1.72326122
H        0.83862964       1.82957047      -1.65878059
H        0.50439504       2.17996310      -0.03070789
H        2.11501965       1.64434493      -0.45757898
17
Frame=13 idx=010886 GeodesicLength=1.4846499199247056 rxn_smarts="[C:1]([C@@:2]1([H:11])[O:3][C@@:4]2([H:12])[C:5]([H:13])([H:14])[C@@:6]12[C:7]([H:15])([H:16])[H:17])([H:8])([H:9])[H:10]>>[C:1]([C@@:2]1([H:11])[O:3][C:4]([H:12])=[C:6]1[C:5]([C:7]([H:15])([H:16])[H:17])([H:13])[H:14])([H:8])([H:9])[H:10]"
C       -2.04540062      -0.10736098       0.38228088
C       -0.70269337      -0.30318161       1.03269333
O       -0.33127169      -1.71058302       1.12452076
C        0.89199622      -1.40219773       0.50247875
C        0.93448445      -0.42577953      -1.04810235
C        0.63453367      -0.01049694       0.39073961
C        1.07936914       1.47857881      -0.63555381
H       -2.24642908       0.95833663       0.24720286
H       -2.08965094      -0.59245064      -0.59319642
H       -2.83389323      -0.52986117       1.00784268
H       -0.68580723       0.16379737       2.02486811
H        1.75543115      -1.98011396       0.81521037
H        1.93685820      -0.57471179      -1.43310999
H        0.13275482      -0.66183653      -1.74348516
H        0.86793025       1.88192721      -1.63174382
H        0.55735193       2.19518788       0.00413151
H        2.14443633       1.62074601      -0.44677732
17
Frame=14 idx=010886 GeodesicLength=1.598098150133658 rxn_smarts="[C:1]([C@@:2]1([H:11])[O:3][C@@:4]2([H:12])[C:5]([H:13])([H:14])[C@@:6]12[C:7]([H:15])([H:16])[H:17])([H:8])([H:9])[H:10]>>[C:1]([C@@:2]1([H:11])[O:3][C:4]([H:12])=[C:6]1[C:5]([C:7]([H:15])([H:16])[H:17])([H:13])[H:14])([H:8])([H:9])[H:10]"
C       -2.06085593      -0.13866430       0.38156247
C       -0.70875003      -0.29346248       1.02323468
O       -0.32236746      -1.69269802       1.16715368
C        0.88492899      -1.40085390       0.51023838
C        0.91662817      -0.40947271      -1.07356877
C        0.61532030      -0.02207500       0.34965532
C        1.10473914       1.48936465      -0.62155561
H       -2.26791724       0.91766419       0.19372844
H       -2.11276386      -0.67368910      -0.56702479
H       -2.83895578      -0.53261555       1.03783551
H       -0.68297794       0.21543341       1.99388887
H        1.75593006      -1.96877930       0.81954019
H        1.91604121      -0.58352042      -1.45606961
H        0.10996954      -0.64171148      -1.76490555
H        0.90119890       1.93493605      -1.60060432
H        0.61477350       2.20722195       0.04240437
H        2.17505844       1.59292200      -0.43551324
17
Frame=15 idx=010886 GeodesicLength=1.7119284069216412 rxn_smarts="[C:1]([C@@:2]1([H:11])[O:3][C@@:4]2([H:12])[C:5]([H:13])([H:14])[C@@:6]12[C:7]([H:15])([H:16])[H:17])([H:8])([H:9])[H:10]>>[C:1]([C@@:2]1([H:11])[O:3][C:4]([H:12])=[C:6]1[C:5]([C:7]([H:15])([H:16])[H:17])([H:13])[H:14])([H:8])([H:9])[H:10]"
C       -2.07694298      -0.17219857       0.38101168
C       -0.71567856      -0.28212122       1.01233988
O       -0.31117593      -1.66964584       1.21165012
C        0.87822918      -1.39633830       0.51834621
C        0.89635729      -0.39152250      -1.10123098
C        0.59429871      -0.03299156       0.30702896
C        1.13224744       1.49851603      -0.60571163
H       -2.29251382       0.87102366       0.13829132
H       -2.13426001      -0.75816596      -0.53664167
H       -2.84383245      -0.53576526       1.06713018
H       -0.68242062       0.27029651       1.95822793
H        1.75749930      -1.95321513       0.82353703
H        1.89153230      -0.59259658      -1.48192868
H        0.08390027      -0.61932582      -1.78762857
H        0.93890578       1.98826643      -1.56491407
H        0.67699881       2.21537733       0.08433815
H        2.20685527       1.56040679      -0.42384583
17
Frame=16 idx=010886 GeodesicLength=1.8264368005913227 rxn_smarts="[C:1]([C@@:2]1([H:11])[O:3][C@@:4]2([H:12])[C:5]([H:13])([H:14])[C@@:6]12[C:7]([H:15])([H:16])[H:17])([H:8])([H:9])[H:10]>>[C:1]([C@@:2]1([H:11])[O:3][C:4]([H:12])=[C:6]1[C:5]([C:7]([H:15])([H:16])[H:17])([H:13])[H:14])([H:8])([H:9])[H:10]"
C       -2.09361019      -0.20817137       0.38070203
C       -0.72361152      -0.26892664       0.99979239
O       -0.29754309      -1.64051767       1.25793903
C        0.87193698      -1.38819404       0.52681400
C        0.87348250      -0.37162121      -1.13117081
C        0.57139839      -0.04316363       0.26280538
C        1.16204997       1.50575735      -0.58785998
H       -2.32040404       0.81773030       0.08110895
H       -2.15354880      -0.84582144      -0.50165301
H       -2.84862021      -0.53962047       1.09551565
H       -0.68464889       0.32854973       1.91734918
H        1.76017625      -1.93301607       0.82719164
H        1.86290119      -0.60188512      -1.51085006
H        0.05434696      -0.59430012      -1.81174903
H        0.98146479       2.04153423      -1.52420260
H        0.74443989       2.21884918       0.13019951
H        2.23978982       1.52281701      -0.41193227
