8
Frame=0 idx=005200 GeodesicLength=0.0 rxn_smarts="[O:1]=[C:2]([C:3](=[O:4])[C:5](=[O:6])[H:8])[H:7]>>[C-:5]#[O+:6].[O-:1][C:2](=[C+:3][O:4][H:8])[H:7]"
O       -2.23933386       0.19573472       1.02142485
C       -1.19417144       0.74514043       0.80048463
C       -0.14030378       0.14143780      -0.04388001
O       -0.06347437       0.44636497      -1.23864063
C        1.49471817      -1.10241936      -0.47571601
O        2.15055265      -1.82959826       0.10045802
H       -0.90608139       1.70415920       1.28000928
H        0.89809402      -0.30081949      -1.44414010
8
Frame=1 idx=005200 GeodesicLength=0.03540669720029262 rxn_smarts="[O:1]=[C:2]([C:3](=[O:4])[C:5](=[O:6])[H:8])[H:7]>>[C-:5]#[O+:6].[O-:1][C:2](=[C+:3][O:4][H:8])[H:7]"
O       -2.21245574       0.15948934       1.04176801
C       -1.19018288       0.74291832       0.80246437
C       -0.12100846       0.16517912      -0.04233412
O       -0.05819166       0.46350487      -1.24019920
C        1.49408752      -1.09941959      -0.47325187
O        2.12035267      -1.85177325       0.10566018
H       -0.93493646       1.72213365       1.25919543
H        0.90233500      -0.30203246      -1.45330280
8
Frame=2 idx=005200 GeodesicLength=0.071467319782819 rxn_smarts="[O:1]=[C:2]([C:3](=[O:4])[C:5](=[O:6])[H:8])[H:7]>>[C-:5]#[O+:6].[O-:1][C:2](=[C+:3][O:4][H:8])[H:7]"
O       -2.18122116       0.12173864       1.06458823
C       -1.18511533       0.74030413       0.80470385
C       -0.10070894       0.19048974      -0.04091540
O       -0.05395996       0.47967688      -1.24239993
C        1.48989511      -1.09994629      -0.47161888
O        2.08763921      -1.87368062       0.11142674
H       -0.96700140       1.74012520       1.23528075
H        0.91047248      -0.29870767      -1.46106536
8
Frame=3 idx=005200 GeodesicLength=0.10742389906618932 rxn_smarts="[O:1]=[C:2]([C:3](=[O:4])[C:5](=[O:6])[H:8])[H:7]>>[C-:5]#[O+:6].[O-:1][C:2](=[C+:3][O:4][H:8])[H:7]"
O       -2.15069100       0.08788905       1.08526123
C       -1.18012167       0.73764657       0.80615279
C       -0.08247948       0.21396299      -0.04066014
O       -0.04965507       0.49591598      -1.24496730
C        1.48917876      -1.09590865      -0.46788155
O        2.05420260      -1.89394011       0.11722582
H       -0.99613893       1.75354354       1.21443275
H        0.91570480      -0.29910937      -1.46956360
8
Frame=4 idx=005200 GeodesicLength=0.14351662535191675 rxn_smarts="[O:1]=[C:2]([C:3](=[O:4])[C:5](=[O:6])[H:8])[H:7]>>[C-:5]#[O+:6].[O-:1][C:2](=[C+:3][O:4][H:8])[H:7]"
O       -2.11942108       0.05644242       1.10678443
C       -1.17463210       0.73448506       0.80788244
C       -0.06593062       0.23552253      -0.04115431
O       -0.04694173       0.51045978      -1.24799259
C        1.48717824      -1.09313720      -0.46438425
O        2.02021311      -1.91267882       0.12320357
H       -1.02459067       1.76500270       1.19260340
H        0.92412485      -0.29609647      -1.47694270
8
Frame=5 idx=005200 GeodesicLength=0.180028126008016 rxn_smarts="[O:1]=[C:2]([C:3](=[O:4])[C:5](=[O:6])[H:8])[H:7]>>[C-:5]#[O+:6].[O-:1][C:2](=[C+:3][O:4][H:8])[H:7]"
O       -2.08641661       0.02581130       1.12814623
C       -1.16871982       0.73121884       0.80938001
C       -0.04943839       0.25741071      -0.04197191
O       -0.04398210       0.52539440      -1.25115710
C        1.48442453      -1.09070238      -0.46052487
O        1.98533380      -1.93012493       0.12945619
H       -1.05363166       1.77452220       1.17091567
H        0.93243024      -0.29353014      -1.48424422
8
Frame=6 idx=005200 GeodesicLength=0.21639017163266105 rxn_smarts="[O:1]=[C:2]([C:3](=[O:4])[C:5](=[O:6])[H:8])[H:7]>>[C-:5]#[O+:6].[O-:1][C:2](=[C+:3][O:4][H:8])[H:7]"
O       -2.05507515      -0.00113963       1.14810122
C       -1.16288642       0.72775819       0.81081637
C       -0.03507643       0.27675240      -0.04347459
O       -0.04165294       0.53961648      -1.25442731
C        1.48215267      -1.08773757      -0.45628869
O        1.95171727      -1.94520944       0.13573686
H       -1.07996709       1.78123773       1.15094939
H        0.94078809      -0.29127816      -1.49141326
8
Frame=7 idx=005200 GeodesicLength=0.25290185715823205 rxn_smarts="[O:1]=[C:2]([C:3](=[O:4])[C:5](=[O:6])[H:8])[H:7]>>[C-:5]#[O+:6].[O-:1][C:2](=[C+:3][O:4][H:8])[H:7]"
O       -2.02362895      -0.02631907       1.16745979
C       -1.15685742       0.72417956       0.81222211
C       -0.02148171       0.29525592      -0.04526352
O       -0.03946349       0.55376200      -1.25769434
C        1.47948859      -1.08502218      -0.45187874
O        1.91834667      -1.95881972       0.14206128
H       -1.10569317       1.78614361       1.13151693
H        0.94928949      -0.28918013      -1.49842352
8
Frame=8 idx=005200 GeodesicLength=0.2896179075047032 rxn_smarts="[O:1]=[C:2]([C:3](=[O:4])[C:5](=[O:6])[H:8])[H:7]>>[C-:5]#[O+:6].[O-:1][C:2](=[C+:3][O:4][H:8])[H:7]"
O       -1.99171849      -0.05002057       1.18683812
C       -1.15063901       0.72051038       0.81362301
C       -0.00857918       0.31303013      -0.04732192
O       -0.03771655       0.56744424      -1.26106421
C        1.47654663      -1.08245215      -0.44724976
O        1.88461348      -1.97155087       0.14817279
H       -1.13119677       1.78954737       1.11206603
H        0.95868989      -0.28650853      -1.50506405
8
Frame=9 idx=005200 GeodesicLength=0.326101025560687 rxn_smarts="[O:1]=[C:2]([C:3](=[O:4])[C:5](=[O:6])[H:8])[H:7]>>[C-:5]#[O+:6].[O-:1][C:2](=[C+:3][O:4][H:8])[H:7]"
O       -1.96188118      -0.07076854       1.20491258
C       -1.14458566       0.71678295       0.81513591
C        0.00265368       0.32860102      -0.04970435
O       -0.03657091       0.58046825      -1.26436945
C        1.47388090      -1.07979008      -0.44254658
O        1.85259123      -1.98247549       0.15408662
H       -1.15436174       1.79119743       1.09405921
H        0.96827369      -0.28401553      -1.51157393
8
Frame=10 idx=005200 GeodesicLength=0.36242392788458294 rxn_smarts="[O:1]=[C:2]([C:3](=[O:4])[C:5](=[O:6])[H:8])[H:7]>>[C-:5]#[O+:6].[O-:1][C:2](=[C+:3][O:4][H:8])[H:7]"
O       -1.93373776      -0.08940018       1.22116962
C       -1.13864881       0.71307980       0.81659537
C        0.01293241       0.34293678      -0.05224144
O       -0.03542650       0.59356569      -1.26749165
C        1.47161805      -1.07677502      -0.43754204
O        1.82215297      -1.99169292       0.15991720
H       -1.17565435       1.79131323       1.07784366
H        0.97676400      -0.28302738      -1.51825071
8
Frame=11 idx=005200 GeodesicLength=0.3987549526551211 rxn_smarts="[O:1]=[C:2]([C:3](=[O:4])[C:5](=[O:6])[H:8])[H:7]>>[C-:5]#[O+:6].[O-:1][C:2](=[C+:3][O:4][H:8])[H:7]"
O       -1.90597511      -0.10657595       1.23739172
C       -1.13267512       0.70936556       0.81818203
C        0.02244016       0.35622956      -0.05490181
O       -0.03476038       0.60620411      -1.27055641
C        1.46897637      -1.07421195      -0.43266053
O        1.79216955      -2.00014033       0.16550221
H       -1.19639755       1.79048083       1.06165220
H        0.98622208      -0.28135183      -1.52460942
8
Frame=12 idx=005200 GeodesicLength=0.4351608230925683 rxn_smarts="[O:1]=[C:2]([C:3](=[O:4])[C:5](=[O:6])[H:8])[H:7]>>[C-:5]#[O+:6].[O-:1][C:2](=[C+:3][O:4][H:8])[H:7]"
O       -1.87850379      -0.12266194       1.25306837
C       -1.12667132       0.70568717       0.81974113
C        0.03152423       0.36901231      -0.05763678
O       -0.03420374       0.61882314      -1.27355982
C        1.46621670      -1.07171949      -0.42763174
O        1.76258743      -2.00776704       0.17092880
H       -1.21663347       1.78866082       1.04597017
H        0.99568396      -0.28003497      -1.53088013
8
Frame=13 idx=005200 GeodesicLength=0.47177269873904454 rxn_smarts="[O:1]=[C:2]([C:3](=[O:4])[C:5](=[O:6])[H:8])[H:7]>>[C-:5]#[O+:6].[O-:1][C:2](=[C+:3][O:4][H:8])[H:7]"
O       -1.85043026      -0.13798342       1.26908382
C       -1.12050033       0.70203572       0.82135957
C        0.04036977       0.38153789      -0.06043165
O       -0.03394288       0.63119345      -1.27656268
C        1.46309573      -1.06950386      -0.42253544
O        1.73255064      -2.01509161       0.17601831
H       -1.23719816       1.78599133       1.02988508
H        1.00605550      -0.27817951      -1.53681702
8
Frame=14 idx=005200 GeodesicLength=0.5081485165590458 rxn_smarts="[O:1]=[C:2]([C:3](=[O:4])[C:5](=[O:6])[H:8])[H:7]>>[C-:5]#[O+:6].[O-:1][C:2](=[C+:3][O:4][H:8])[H:7]"
O       -1.82437184      -0.15161077       1.28362204
C       -1.11461013       0.69843900       0.82292319
C        0.04825736       0.39276928      -0.06337211
O       -0.03392200       0.64343915      -1.27945564
C        1.46021253      -1.06719165      -0.41742421
O        1.70429958      -2.02106136       0.18114231
H       -1.25575137       1.78242936       1.01544986
H        1.01588588      -0.27721301      -1.54288544
8
Frame=15 idx=005200 GeodesicLength=0.544401665735976 rxn_smarts="[O:1]=[C:2]([C:3](=[O:4])[C:5](=[O:6])[H:8])[H:7]>>[C-:5]#[O+:6].[O-:1][C:2](=[C+:3][O:4][H:8])[H:7]"
O       -1.79965382      -0.16400069       1.29714800
C       -1.10887328       0.69489263       0.82447609
C        0.05546363       0.40309350      -0.06642386
O       -0.03416526       0.65554727      -1.28227694
C        1.45743410      -1.06485832      -0.41229387
O        1.67722657      -2.02605831       0.18623677
H       -1.27294539       1.77817831       1.00212458
H        1.02551346      -0.27679438      -1.54899077
8
Frame=16 idx=005200 GeodesicLength=0.5806423007444134 rxn_smarts="[O:1]=[C:2]([C:3](=[O:4])[C:5](=[O:6])[H:8])[H:7]>>[C-:5]#[O+:6].[O-:1][C:2](=[C+:3][O:4][H:8])[H:7]"
O       -1.77558306      -0.17549618       1.31018847
C       -1.10322831       0.69139282       0.82599517
C        0.06218986       0.41281558      -0.06957750
O       -0.03467512       0.66751159      -1.28507249
C        1.45461522      -1.06258476      -0.40713651
O        1.65073168      -2.03041092       0.19122553
H       -1.28937101       1.77333637       0.98940133
H        1.03532074      -0.27656451      -1.55502400
