10
Frame=0 idx=005286 GeodesicLength=0.0 rxn_smarts="[c:1]1([H:7])[c:2]([H:8])[n:3][n:4][c:5]([H:9])[c:6]1[H:10]>>[C:1]([C-:2]([N+:3]#[N:4])[H:8])(=[C:6]=[C:5]([H:9])[H:10])[H:7]"
C        0.79473173       0.91178138      -0.06248242
C        1.31169093      -0.35827787      -0.06443769
N        0.50713340      -1.43296507      -0.35018810
N       -0.74684999      -1.38218892      -0.30423178
C       -1.27738030      -0.19577753       0.27998728
C       -0.52366028       0.97913021       0.42957506
H        1.39597457       1.79364021      -0.24840238
H        2.36317883      -0.60457169       0.02081978
H       -2.20446509      -0.35370547       0.82557574
H       -1.62035380       0.64293475      -0.52621549
10
Frame=1 idx=005286 GeodesicLength=0.10829315804465978 rxn_smarts="[c:1]1([H:7])[c:2]([H:8])[n:3][n:4][c:5]([H:9])[c:6]1[H:10]>>[C:1]([C-:2]([N+:3]#[N:4])[H:8])(=[C:6]=[C:5]([H:9])[H:10])[H:7]"
C        0.79315794       0.90838368      -0.05879637
C        1.31730680      -0.36223975      -0.07108366
N        0.51808069      -1.43848742      -0.34813898
N       -0.73441374      -1.40444709      -0.29879322
C       -1.28896457      -0.19073607       0.27887842
C       -0.52681545       0.97573560       0.41639307
H        1.39417289       1.79244253      -0.23415141
H        2.37039371      -0.60126202       0.01246788
H       -2.21116007      -0.34297676       0.83381444
H       -1.63175820       0.66358729      -0.53059016
10
Frame=2 idx=005286 GeodesicLength=0.21648395787687089 rxn_smarts="[c:1]1([H:7])[c:2]([H:8])[n:3][n:4][c:5]([H:9])[c:6]1[H:10]>>[C:1]([C-:2]([N+:3]#[N:4])[H:8])(=[C:6]=[C:5]([H:9])[H:10])[H:7]"
C        0.79136841       0.90472961      -0.05541073
C        1.32303215      -0.36623137      -0.07794618
N        0.52942810      -1.44433028      -0.34572291
N       -0.72135890      -1.42750454      -0.29286973
C       -1.30098698      -0.18561764       0.27713419
C       -0.52995944       0.97185886       0.40313776
H        1.39208742       1.79102810      -0.21954523
H        2.37773652      -0.59767269       0.00387252
H       -2.21789847      -0.33192436       0.84190073
H       -1.64344881       0.68566431      -0.53455043
10
Frame=3 idx=005286 GeodesicLength=0.3246300867290919 rxn_smarts="[c:1]1([H:7])[c:2]([H:8])[n:3][n:4][c:5]([H:9])[c:6]1[H:10]>>[C:1]([C-:2]([N+:3]#[N:4])[H:8])(=[C:6]=[C:5]([H:9])[H:10])[H:7]"
C        0.78934360       0.90080330      -0.05238000
C        1.32886496      -0.37025387      -0.08508135
N        0.54119050      -1.45050393      -0.34289337
N       -0.70762188      -1.45142333      -0.28636616
C       -1.31347981      -0.18041849       0.27468454
C       -0.53310475       0.96747340       0.38977292
H        1.38970241       1.78937703      -0.20451352
H        2.38520976      -0.59379321      -0.00499068
H       -2.22467127      -0.32054787       0.84978931
H       -1.65543350       0.70928696      -0.53802168
10
Frame=4 idx=005286 GeodesicLength=0.4327717638393724 rxn_smarts="[c:1]1([H:7])[c:2]([H:8])[n:3][n:4][c:5]([H:9])[c:6]1[H:10]>>[C:1]([C-:2]([N+:3]#[N:4])[H:8])(=[C:6]=[C:5]([H:9])[H:10])[H:7]"
C        0.78706219       0.89659802      -0.04979635
C        1.33480833      -0.37430800      -0.09255100
N        0.55340816      -1.45702131      -0.33961501
N       -0.69313348      -1.47626618      -0.27918151
C       -1.32647260      -0.17513803       0.27143569
C       -0.53626185       0.96254092       0.37625244
H        1.38700309       1.78746898      -0.18900566
H        2.39276867      -0.58962265      -0.01409586
H       -2.23145619      -0.30886875       0.85742196
H       -1.66772632       0.73461701      -0.54086469
10
Frame=5 idx=005286 GeodesicLength=0.5410390511033956 rxn_smarts="[c:1]1([H:7])[c:2]([H:8])[n:3][n:4][c:5]([H:9])[c:6]1[H:10]>>[C:1]([C-:2]([N+:3]#[N:4])[H:8])(=[C:6]=[C:5]([H:9])[H:10])[H:7]"
C        0.78449976       0.89208645      -0.04774685
C        1.34085220      -0.37839063      -0.10047083
N        0.56607034      -1.46390790      -0.33589024
N       -0.67782368      -1.50210121      -0.27119094
C       -1.33999606      -0.16975573       0.26735733
C       -0.53944563       0.95705012       0.36248696
H        1.38396830       1.78526438      -0.17286074
H        2.40045360      -0.58512542      -0.02343436
H       -2.23824126      -0.29685324       0.86478565
H       -1.68033757       0.76173318      -0.54303597
10
Frame=6 idx=005286 GeodesicLength=0.649431203243261 rxn_smarts="[c:1]1([H:7])[c:2]([H:8])[n:3][n:4][c:5]([H:9])[c:6]1[H:10]>>[C:1]([C-:2]([N+:3]#[N:4])[H:8])(=[C:6]=[C:5]([H:9])[H:10])[H:7]"
C        0.78164500       0.88727323      -0.04627698
C        1.34699874      -0.38250944      -0.10886801
N        0.57924021      -1.47113901      -0.33163079
N       -0.66159696      -1.52898421      -0.26227602
C       -1.35408388      -0.16428625       0.26230117
C       -0.54268532       0.95095265       0.34844513
H        1.38056366       1.78272971      -0.15612776
H        2.40817688      -0.58033483      -0.03301211
H       -2.24500592      -0.28458007       0.87174733
H       -1.69325240       0.79087822      -0.54430197
10
Frame=7 idx=005286 GeodesicLength=0.7580479652922074 rxn_smarts="[c:1]1([H:7])[c:2]([H:8])[n:3][n:4][c:5]([H:9])[c:6]1[H:10]>>[C:1]([C-:2]([N+:3]#[N:4])[H:8])(=[C:6]=[C:5]([H:9])[H:10])[H:7]"
C        0.77847771       0.88212276      -0.04548716
C        1.35324030      -0.38666061      -0.11782271
N        0.59292838      -1.47872499      -0.32692086
N       -0.64438246      -1.55697491      -0.25232631
C       -1.36877105      -0.15872098       0.25620923
C       -0.54600092       0.94423523       0.33401554
H        1.37674592       1.77980137      -0.13877621
H        2.41595971      -0.57522288      -0.04268601
H       -2.25172286      -0.27206622       0.87827714
H       -1.70647472       0.82221123      -0.54448265
10
Frame=8 idx=005286 GeodesicLength=0.8668365210135464 rxn_smarts="[c:1]1([H:7])[c:2]([H:8])[n:3][n:4][c:5]([H:9])[c:6]1[H:10]>>[C:1]([C-:2]([N+:3]#[N:4])[H:8])(=[C:6]=[C:5]([H:9])[H:10])[H:7]"
C        0.77499011       0.87663749      -0.04543091
C        1.35956366      -0.39086525      -0.12737440
N        0.60718566      -1.48663996      -0.32166785
N       -0.62607866      -1.58612146      -0.24109919
C       -1.38408890      -0.15306310       0.24890331
C       -0.54944071       0.93684964       0.31910725
H        1.37248539       1.77642302      -0.12076508
H        2.42375716      -0.56979963      -0.05254429
H       -2.25838690      -0.25938705       0.88417983
H       -1.71998682       0.85596630      -0.54330867
10
Frame=9 idx=005286 GeodesicLength=0.9751804302592518 rxn_smarts="[c:1]1([H:7])[c:2]([H:8])[n:3][n:4][c:5]([H:9])[c:6]1[H:10]>>[C:1]([C-:2]([N+:3]#[N:4])[H:8])(=[C:6]=[C:5]([H:9])[H:10])[H:7]"
C        0.77106890       0.87074560      -0.04687329
C        1.36598780      -0.39512802      -0.13750753
N        0.62208334      -1.49500695      -0.31615849
N       -0.60660141      -1.61649293      -0.22821071
C       -1.40022984      -0.14722412       0.23986207
C       -0.55298787       0.92877408       0.30348896
H        1.36774730       1.77249772      -0.10212122
H        2.43163568      -0.56394784      -0.06203902
H       -2.26502071      -0.24667140       0.88910629
H       -1.73368317       0.89245385      -0.53954705
10
Frame=10 idx=005286 GeodesicLength=1.0835282849924366 rxn_smarts="[c:1]1([H:7])[c:2]([H:8])[n:3][n:4][c:5]([H:9])[c:6]1[H:10]>>[C:1]([C-:2]([N+:3]#[N:4])[H:8])(=[C:6]=[C:5]([H:9])[H:10])[H:7]"
C        0.76683207       0.86448688      -0.04894672
C        1.37247302      -0.39949143      -0.14821171
N        0.63758787      -1.50360479      -0.31035009
N       -0.58579641      -1.64799416      -0.21341446
C       -1.41709703      -0.14126082       0.22921356
C       -0.55674887       0.91997178       0.28716994
H        1.36239495       1.76797521      -0.08309066
H        2.43946853      -0.55783403      -0.07165653
H       -2.27163562      -0.23400320       0.89294197
H       -1.74747851       0.93175456      -0.53365530
10
Frame=11 idx=005286 GeodesicLength=1.1919940899898784 rxn_smarts="[c:1]1([H:7])[c:2]([H:8])[n:3][n:4][c:5]([H:9])[c:6]1[H:10]>>[C:1]([C-:2]([N+:3]#[N:4])[H:8])(=[C:6]=[C:5]([H:9])[H:10])[H:7]"
C        0.76225511       0.85781330      -0.05173421
C        1.37902142      -0.40396706      -0.15935726
N        0.65367893      -1.51246014      -0.30423110
N       -0.56357648      -1.68064360      -0.19650793
C       -1.43475601      -0.13511665       0.21683740
C       -0.56076731       0.91045412       0.26992134
H        1.35638033       1.76279397      -0.06354157
H        2.44730097      -0.55140118      -0.08158634
H       -2.27826950      -0.22138784       0.89552720
H       -1.76126745       0.97391506      -0.52532752
10
Frame=12 idx=005286 GeodesicLength=1.3003652672988704 rxn_smarts="[c:1]1([H:7])[c:2]([H:8])[n:3][n:4][c:5]([H:9])[c:6]1[H:10]>>[C:1]([C-:2]([N+:3]#[N:4])[H:8])(=[C:6]=[C:5]([H:9])[H:10])[H:7]"
C        0.75734422       0.85075099      -0.05505148
C        1.38555210      -0.40858654      -0.17106167
N        0.67039034      -1.52150313      -0.29760859
N       -0.53976472      -1.71432175      -0.17675745
C       -1.45325138      -0.12876718       0.20245021
C       -0.56513884       0.90022159       0.25150816
H        1.34969794       1.75681203      -0.04309890
H        2.45505030      -0.54464967      -0.09248568
H       -2.28503867      -0.20891028       0.89641825
H       -1.77484130       1.01895394      -0.51431285
10
Frame=13 idx=005286 GeodesicLength=1.4088518475315148 rxn_smarts="[c:1]1([H:7])[c:2]([H:8])[n:3][n:4][c:5]([H:9])[c:6]1[H:10]>>[C:1]([C-:2]([N+:3]#[N:4])[H:8])(=[C:6]=[C:5]([H:9])[H:10])[H:7]"
C        0.75208227       0.84318247      -0.05870358
C        1.39209582      -0.41336260      -0.18306336
N        0.68757527      -1.53077027      -0.29093097
N       -0.51429973      -1.74903542      -0.15393125
C       -1.47264969      -0.12211058       0.18595189
C       -0.56990883       0.88926908       0.23159189
H        1.34219612       1.75004760      -0.02192379
H        2.46286842      -0.53751403      -0.10428921
H       -2.29193613      -0.19651834       0.89554411
H       -1.78802353       1.06681210      -0.50024575
10
Frame=14 idx=005286 GeodesicLength=1.516993240944947 rxn_smarts="[c:1]1([H:7])[c:2]([H:8])[n:3][n:4][c:5]([H:9])[c:6]1[H:10]>>[C:1]([C-:2]([N+:3]#[N:4])[H:8])(=[C:6]=[C:5]([H:9])[H:10])[H:7]"
C        0.74648243       0.83518789      -0.06252442
C        1.39850520      -0.41831187      -0.19563045
N        0.70528550      -1.54018033      -0.28341985
N       -0.48695220      -1.78440893      -0.12702584
C       -1.49300482      -0.11515293       0.16688469
C       -0.57525393       0.87768765       0.20958938
H        1.33391746       1.74221295       0.00107819
H        2.47055279      -0.53001410      -0.11840345
H       -2.29905110      -0.18433915       0.89231339
H       -1.80048132       1.11731881      -0.48286164
10
Frame=15 idx=005286 GeodesicLength=1.624936695524083 rxn_smarts="[c:1]1([H:7])[c:2]([H:8])[n:3][n:4][c:5]([H:9])[c:6]1[H:10]>>[C:1]([C-:2]([N+:3]#[N:4])[H:8])(=[C:6]=[C:5]([H:9])[H:10])[H:7]"
C        0.74050001       0.82670570      -0.06666190
C        1.40476559      -0.42345486      -0.20866967
N        0.72342484      -1.54977432      -0.27498799
N       -0.45771874      -1.82023685      -0.09622627
C       -1.51438620      -0.10779775       0.14508714
C       -0.58123808       0.86552920       0.18479311
H        1.32470196       1.73326675       0.02593499
H        2.47812312      -0.52213393      -0.13459328
H       -2.30617729      -0.17240673       0.88679287
H       -1.81199523       1.17030279      -0.46146900
10
Frame=16 idx=005286 GeodesicLength=1.7327889158769467 rxn_smarts="[c:1]1([H:7])[c:2]([H:8])[n:3][n:4][c:5]([H:9])[c:6]1[H:10]>>[C:1]([C-:2]([N+:3]#[N:4])[H:8])(=[C:6]=[C:5]([H:9])[H:10])[H:7]"
C        0.73411361       0.81780016      -0.07103857
C        1.41070386      -0.42872717      -0.22300610
N        0.74203018      -1.55958037      -0.26479615
N       -0.42616985      -1.85624368      -0.05941110
C       -1.53697232      -0.09996717       0.12007269
C       -0.58802491       0.85291970       0.15585591
H        1.31453782       1.72255814       0.05579812
H        2.48548459      -0.51363285      -0.15549889
H       -2.31351180      -0.16026880       0.87846633
H       -1.82219119       1.22514204      -0.43644225
