14
Frame=0 idx=001819 GeodesicLength=0.0 rxn_smarts="[O:1]([C:2]([C:3]([C:4]([C:5]#[C:6][H:14])([H:12])[H:13])([H:10])[H:11])([H:8])[H:9])[H:7]>>[O:1]([C@:2]1([H:9])[C:3]([H:10])([H:11])[C:4]([H:12])([H:13])[C:5][C:6]1([H:8])[H:14])[H:7]"
O       -1.56794448       1.41281419       0.60366616
C       -0.75431141       0.58124171      -0.11934192
C       -0.57634737      -0.78380939       0.45041487
C        0.73501184      -1.37665341      -0.12576509
C        1.76797616      -0.33449315      -0.41245483
C        1.30056509       0.90332549      -0.27891389
H       -1.80392028       2.18018532       0.07904427
H        0.53295436       1.05200435       0.55176738
H       -0.91084879       0.64062419      -1.19471349
H       -1.42206923      -1.42004312       0.18624362
H       -0.55153900      -0.69788299       1.54062023
H        1.11835820      -2.19567111       0.48516093
H        0.51003476      -1.82393748      -1.10205684
H        1.62208016       1.86229535      -0.66367137
14
Frame=1 idx=001819 GeodesicLength=0.07561656418526137 rxn_smarts="[O:1]([C:2]([C:3]([C:4]([C:5]#[C:6][H:14])([H:12])[H:13])([H:10])[H:11])([H:8])[H:9])[H:7]>>[O:1]([C@:2]1([H:9])[C:3]([H:10])([H:11])[C:4]([H:12])([H:13])[C:5][C:6]1([H:8])[H:14])[H:7]"
O       -1.58257922       1.40421581       0.60231579
C       -0.75039394       0.58389894      -0.11767206
C       -0.57678356      -0.78433193       0.45080366
C        0.73328301      -1.37718698      -0.12503638
C        1.76943639      -0.33669701      -0.39824666
C        1.31127950       0.90616978      -0.28401369
H       -1.80826799       2.17906400       0.08430502
H        0.52590797       1.06745782       0.55634733
H       -0.91778911       0.63465518      -1.19271234
H       -1.42406020      -1.41896094       0.18793588
H       -0.54868115      -0.69976924       1.54097786
H        1.11366203      -2.20179220       0.48010819
H        0.51245239      -1.81447828      -1.10710714
H        1.64253389       1.85775505      -0.67800548
14
Frame=2 idx=001819 GeodesicLength=0.1512208825296893 rxn_smarts="[O:1]([C:2]([C:3]([C:4]([C:5]#[C:6][H:14])([H:12])[H:13])([H:10])[H:11])([H:8])[H:9])[H:7]>>[O:1]([C@:2]1([H:9])[C:3]([H:10])([H:11])[C:4]([H:12])([H:13])[C:5][C:6]1([H:8])[H:14])[H:7]"
O       -1.59705739       1.39552982       0.60084024
C       -0.74646145       0.58668139      -0.11598341
C       -0.57724678      -0.78478802       0.45114049
C        0.73155071      -1.37767349      -0.12431246
C        1.77073054      -0.33883716      -0.38400551
C        1.32217225       0.90885010      -0.28949424
H       -1.81301506       2.17770829       0.08985149
H        0.51867410       1.08309082       0.56095961
H       -0.92473572       0.62872111      -1.19054087
H       -1.42605570      -1.41781545       0.18953357
H       -0.54592233      -0.70163276       1.54127871
H        1.10898775      -2.20775513       0.47506383
H        0.51498000      -1.80496934      -1.11203479
H        1.66339907       1.85288983      -0.69229666
14
Frame=3 idx=001819 GeodesicLength=0.22681361559436267 rxn_smarts="[O:1]([C:2]([C:3]([C:4]([C:5]#[C:6][H:14])([H:12])[H:13])([H:10])[H:11])([H:8])[H:9])[H:7]>>[O:1]([C@:2]1([H:9])[C:3]([H:10])([H:11])[C:4]([H:12])([H:13])[C:5][C:6]1([H:8])[H:14])[H:7]"
O       -1.61137620       1.38675863       0.59924807
C       -0.74251970       0.58958658      -0.11427358
C       -0.57773864      -0.78518066       0.45142462
C        0.72981592      -1.37811004      -0.12359452
C        1.77184693      -0.34090283      -0.36975556
C        1.33324085       0.91135585      -0.29537728
H       -1.81814771       2.17612278       0.09566986
H        0.51123362       1.09889915       0.56562290
H       -0.93168239       0.62283108      -1.18819581
H       -1.42805547      -1.41661256       0.19103605
H       -0.54326472      -0.70347933       1.54152275
H        1.10435025      -2.21354729       0.47003526
H        0.51761329      -1.79542348      -1.11683397
H        1.68468399       1.84770214      -0.70652880
14
Frame=4 idx=001819 GeodesicLength=0.30239571814263794 rxn_smarts="[O:1]([C:2]([C:3]([C:4]([C:5]#[C:6][H:14])([H:12])[H:13])([H:10])[H:11])([H:8])[H:9])[H:7]>>[O:1]([C@:2]1([H:9])[C:3]([H:10])([H:11])[C:4]([H:12])([H:13])[C:5][C:6]1([H:8])[H:14])[H:7]"
O       -1.62553423       1.37790458       0.59754758
C       -0.73857401       0.59261243      -0.11253966
C       -0.57826057      -0.78551267       0.45165543
C        0.72807980      -1.37849369      -0.12288337
C        1.77277534      -0.34288288      -0.35551920
C        1.34448280       0.91367574      -0.30168655
H       -1.82365223       2.17431183       0.10174774
H        0.50356613       1.11487875       0.57035831
H       -0.93862181       0.61699485      -1.18567434
H       -1.43005914      -1.41535775       0.19244211
H       -0.54071075      -0.70531484       1.54171008
H        1.09976381      -2.21915722       0.46503003
H        0.52034805      -1.78585300      -1.12149950
H        1.70639681       1.84219387      -0.72068867
14
Frame=5 idx=001819 GeodesicLength=0.3779680876353195 rxn_smarts="[O:1]([C:2]([C:3]([C:4]([C:5]#[C:6][H:14])([H:12])[H:13])([H:10])[H:11])([H:8])[H:9])[H:7]>>[O:1]([C@:2]1([H:9])[C:3]([H:10])([H:11])[C:4]([H:12])([H:13])[C:5][C:6]1([H:8])[H:14])[H:7]"
O       -1.63953034       1.36897045       0.59574678
C       -0.73462894       0.59575736      -0.11077850
C       -0.57881373      -0.78578639       0.45183235
C        0.72634348      -1.37882158      -0.12217991
C        1.77350597      -0.34476621      -0.34132154
C        1.35589595       0.91579759      -0.30844834
H       -1.82951747       2.17227816       0.10807234
H        0.49565037       1.13102502       0.57518945
H       -0.94554572       0.61122294      -1.18297420
H       -1.43206639      -1.41405568       0.19375081
H       -0.53826226      -0.70714465       1.54184084
H        1.09524314      -2.22457313       0.46005670
H        0.52317828      -1.77627171      -1.12602611
H        1.72854766       1.83636783      -0.73476068
14
Frame=6 idx=001819 GeodesicLength=0.4535385552873177 rxn_smarts="[O:1]([C:2]([C:3]([C:4]([C:5]#[C:6][H:14])([H:12])[H:13])([H:10])[H:11])([H:8])[H:9])[H:7]>>[O:1]([C@:2]1([H:9])[C:3]([H:10])([H:11])[C:4]([H:12])([H:13])[C:5][C:6]1([H:8])[H:14])[H:7]"
O       -1.65336843       1.35995953       0.59385333
C       -0.73069035       0.59902043      -0.10898674
C       -0.57939989      -0.78600408       0.45195543
C        0.72460980      -1.37909145      -0.12148487
C        1.77403206      -0.34654187      -0.32718763
C        1.36747856       0.91770780      -0.31569366
H       -1.83573209       2.17002763       0.11463339
H        0.48746374       1.14733251       0.58014349
H       -0.95244720       0.60552651      -1.18009556
H       -1.43407832      -1.41271050       0.19496077
H       -0.53592214      -0.70897432       1.54191742
H        1.09080536      -2.22978456       0.45512538
H        0.52609963      -1.76669439      -1.13041056
H        1.75114927       1.83022678      -0.74873018
14
Frame=7 idx=001819 GeodesicLength=0.5290861056052277 rxn_smarts="[O:1]([C:2]([C:3]([C:4]([C:5]#[C:6][H:14])([H:12])[H:13])([H:10])[H:11])([H:8])[H:9])[H:7]>>[O:1]([C@:2]1([H:9])[C:3]([H:10])([H:11])[C:4]([H:12])([H:13])[C:5][C:6]1([H:8])[H:14])[H:7]"
O       -1.66703524       1.35087334       0.59187517
C       -0.72675483       0.60240142      -0.10716004
C       -0.58001677      -0.78616597       0.45202252
C        0.72287499      -1.37929907      -0.12079883
C        1.77434023      -0.34819800      -0.31314704
C        1.37922895       0.91939310      -0.32344768
H       -1.84229524       2.16754784       0.12141127
H        0.47898290       1.16379871       0.58524666
H       -0.95930934       0.59991745      -1.17703097
H       -1.43609002      -1.41132428       0.19607154
H       -0.53368701      -0.71080695       1.54193320
H        1.08645697      -2.23477732       0.45024357
H        0.52909538      -1.75713535      -1.13464275
H        1.77420903       1.82377506      -0.76257661
14
Frame=8 idx=001819 GeodesicLength=0.6046426414852792 rxn_smarts="[O:1]([C:2]([C:3]([C:4]([C:5]#[C:6][H:14])([H:12])[H:13])([H:10])[H:11])([H:8])[H:9])[H:7]>>[O:1]([C@:2]1([H:9])[C:3]([H:10])([H:11])[C:4]([H:12])([H:13])[C:5][C:6]1([H:8])[H:14])[H:7]"
O       -1.68055287       1.34170960       0.58982269
C       -0.72283097       0.60590373      -0.10528927
C       -0.58066740      -0.78627278       0.45203715
C        0.72114497      -1.37944045      -0.12012179
C        1.77443410      -0.34972112      -0.29919187
C        1.39114721       0.92083737      -0.33175185
H       -1.84921233       2.16484336       0.12840396
H        0.47018025       1.18042806       0.59053095
H       -0.96612501       0.59441361      -1.17378140
H       -1.43810463      -1.40989917       0.19708264
H       -0.53156134      -0.71264971       1.54189759
H        1.08220966      -2.23955462       0.44541114
H        0.53217496      -1.74758978      -1.13873122
H        1.79776340       1.81699191      -0.77631872
14
Frame=9 idx=001819 GeodesicLength=0.6801888565798648 rxn_smarts="[O:1]([C:2]([C:3]([C:4]([C:5]#[C:6][H:14])([H:12])[H:13])([H:10])[H:11])([H:8])[H:9])[H:7]>>[O:1]([C@:2]1([H:9])[C:3]([H:10])([H:11])[C:4]([H:12])([H:13])[C:5][C:6]1([H:8])[H:14])[H:7]"
O       -1.69391151       1.33247628       0.58769734
C       -0.71891935       0.60952425      -0.10337320
C       -0.58135114      -0.78632686       0.45199549
C        0.71941980      -1.37951429      -0.11945428
C        1.77429616      -0.35109899      -0.28538574
C        1.40322548       0.92202346      -0.34065073
H       -1.85645288       2.16192096       0.13559523
H        0.46103133       1.19720126       0.59603411
H       -0.97288441       0.58902101      -1.17034686
H       -1.44011951      -1.40843921       0.19798926
H       -0.52954630      -0.71450585       1.54180480
H        1.07808783      -2.24408918       0.44065414
H        0.53531692      -1.73809859      -1.14265986
H        1.82180759       1.80990576      -0.78989969
14
Frame=10 idx=001819 GeodesicLength=0.7557350488960415 rxn_smarts="[O:1]([C:2]([C:3]([C:4]([C:5]#[C:6][H:14])([H:12])[H:13])([H:10])[H:11])([H:8])[H:9])[H:7]>>[O:1]([C@:2]1([H:9])[C:3]([H:10])([H:11])[C:4]([H:12])([H:13])[C:5][C:6]1([H:8])[H:14])[H:7]"
O       -1.70711773       1.32317589       0.58550537
C       -0.71502111       0.61326639      -0.10140573
C       -0.58206871      -0.78632894       0.45189752
C        0.71770310      -1.37951867      -0.11879557
C        1.77392626      -0.35232004      -0.27175638
C        1.41546673       0.92293261      -0.35018612
H       -1.86401518       2.15878273       0.14297512
H        0.45150688       1.21411215       0.60179858
H       -0.97957440       0.58375821      -1.16672836
H       -1.44213616      -1.40694483       0.19878792
H       -0.52764490      -0.71638313       1.54165718
H        1.07410777      -2.24837298       0.43598703
H        0.53851285      -1.72867788      -1.14642562
H        1.84635462       1.80251849      -0.80331093
14
Frame=11 idx=001819 GeodesicLength=0.8312691268222092 rxn_smarts="[O:1]([C:2]([C:3]([C:4]([C:5]#[C:6][H:14])([H:12])[H:13])([H:10])[H:11])([H:8])[H:9])[H:7]>>[O:1]([C@:2]1([H:9])[C:3]([H:10])([H:11])[C:4]([H:12])([H:13])[C:5][C:6]1([H:8])[H:14])[H:7]"
O       -1.72017025       1.31380947       0.58325040
C       -0.71113337       0.61713247      -0.09937965
C       -0.58281754      -0.78627752       0.45174031
C        0.71599570      -1.37945011      -0.11814447
C        1.77331761      -0.35336925      -0.25832647
C        1.42786615       0.92354351      -0.36040263
H       -1.87188866       2.15542744       0.15053629
H        0.44157413       1.23115687       0.60786890
H       -0.98617696       0.57863792      -1.16292376
H       -1.44414912      -1.40541534       0.19947032
H       -0.52585694      -0.71828326       1.54145092
H        1.07028150      -2.25239452       0.43142297
H        0.54175107      -1.71934631      -1.15002388
H        1.87140667       1.79482865      -0.81653927
14
Frame=12 idx=001819 GeodesicLength=0.9068018374349576 rxn_smarts="[O:1]([C:2]([C:3]([C:4]([C:5]#[C:6][H:14])([H:12])[H:13])([H:10])[H:11])([H:8])[H:9])[H:7]>>[O:1]([C@:2]1([H:9])[C:3]([H:10])([H:11])[C:4]([H:12])([H:13])[C:5][C:6]1([H:8])[H:14])[H:7]"
O       -1.73306949       1.30438634       0.58093376
C       -0.70725478       0.62112456      -0.09728946
C       -0.58359783      -0.78617258       0.45152553
C        0.71429960      -1.37930680      -0.11750301
C        1.77246366      -0.35424012      -0.24516817
C        1.44042474       0.92382891      -0.37136484
H       -1.88006253       2.15185543       0.15825016
H        0.43120393       1.24830833       0.61430291
H       -0.99267796       0.57367569      -1.15893549
H       -1.44616131      -1.40384830       0.20004180
H       -0.52418190      -0.72021006       1.54118870
H        1.06663288      -2.25612966       0.42698704
H        0.54501094      -1.71014065      -1.15344407
H        1.89697004       1.78686890      -0.82952486
14
Frame=13 idx=001819 GeodesicLength=0.9823251962044386 rxn_smarts="[O:1]([C:2]([C:3]([C:4]([C:5]#[C:6][H:14])([H:12])[H:13])([H:10])[H:11])([H:8])[H:9])[H:7]>>[O:1]([C@:2]1([H:9])[C:3]([H:10])([H:11])[C:4]([H:12])([H:13])[C:5][C:6]1([H:8])[H:14])[H:7]"
O       -1.74582707       1.29489998       0.57855774
C       -0.70338354       0.62524903      -0.09512248
C       -0.58440866      -0.78601286       0.45124993
C        0.71261790      -1.37908393      -0.11686611
C        1.77136250      -0.35490670      -0.23227599
C        1.45313517       0.92376708      -0.38313886
H       -1.88853228       2.14806858       0.16612372
H        0.42036068       1.26556938       0.62114954
H       -0.99906114       0.56888969      -1.15475879
H       -1.44816861      -1.40224456       0.20048678
H       -0.52262480      -0.72217170       1.54086702
H        1.06317136      -2.25957556       0.42269208
H        0.54828971      -1.70106939      -1.15668532
H        1.92306877       1.77862097      -0.84227927
14
Frame=14 idx=001819 GeodesicLength=1.0578505709998833 rxn_smarts="[O:1]([C:2]([C:3]([C:4]([C:5]#[C:6][H:14])([H:12])[H:13])([H:10])[H:11])([H:8])[H:9])[H:7]>>[O:1]([C@:2]1([H:9])[C:3]([H:10])([H:11])[C:4]([H:12])([H:13])[C:5][C:6]1([H:8])[H:14])[H:7]"
O       -1.75844866       1.28535487       0.57612561
C       -0.69951422       0.62951478      -0.09286878
C       -0.58524709      -0.78579417       0.45091380
C        0.71095469      -1.37878021      -0.11623364
C        1.77001443      -0.35535949      -0.21969219
C        1.46599997       0.92332420      -0.39579562
H       -1.89730650       2.14406347       0.17413941
H        0.40900567       1.28293015       0.62847188
H       -1.00530740       0.56430197      -1.15039465
H       -1.45016898      -1.40059726       0.20080216
H       -0.52118377      -0.72417107       1.54048860
H        1.05991504      -2.26272007       0.41855757
H        0.55157208      -1.69215883      -1.15974461
H        1.94971474       1.77009167      -0.85476954
14
Frame=15 idx=001819 GeodesicLength=1.1333758159996425 rxn_smarts="[O:1]([C:2]([C:3]([C:4]([C:5]#[C:6][H:14])([H:12])[H:13])([H:10])[H:11])([H:8])[H:9])[H:7]>>[O:1]([C@:2]1([H:9])[C:3]([H:10])([H:11])[C:4]([H:12])([H:13])[C:5][C:6]1([H:8])[H:14])[H:7]"
O       -1.77093843       1.27575165       0.57363491
C       -0.69563964       0.63392964      -0.09051637
C       -0.58611056      -0.78551280       0.45051522
C        0.70931282      -1.37839190      -0.11560308
C        1.76841582      -0.35558040      -0.20745633
C        1.47901648       0.92246462      -0.40941917
H       -1.90637801       2.13983934       0.18228522
H        0.39709928       1.30037538       0.63633908
H       -1.01139468       0.55993265      -1.14584115
H       -1.45215960      -1.39890106       0.20097972
H       -0.51985962      -0.72621219       1.54005124
H        1.05688121      -2.26554644       0.41460739
H        0.55484235      -1.68343736      -1.16261483
H        1.97691259       1.76128890      -0.86696184
14
Frame=16 idx=001819 GeodesicLength=1.2089021766730736 rxn_smarts="[O:1]([C:2]([C:3]([C:4]([C:5]#[C:6][H:14])([H:12])[H:13])([H:10])[H:11])([H:8])[H:9])[H:7]>>[O:1]([C@:2]1([H:9])[C:3]([H:10])([H:11])[C:4]([H:12])([H:13])[C:5][C:6]1([H:8])[H:14])[H:7]"
O       -1.78330065       1.26609286       0.57108263
C       -0.69175025       0.63850428      -0.08805132
C       -0.58699574      -0.78516381       0.45005214
C        0.70769647      -1.37791611      -0.11497147
C        1.76656501      -0.35555152      -0.19561009
C        1.49218343       0.92114633      -0.42410371
H       -1.91574339       2.13539607       0.19054689
H        0.38459897       1.31788778       0.64482942
H       -1.01729782       0.55580577      -1.14109661
H       -1.45413732      -1.39714809       0.20100926
H       -0.51865329      -0.72829953       1.53955358
H        1.05408900      -2.26803842       0.41086820
H        0.55808477      -1.67493668      -1.16528952
H        2.00466080       1.75222108      -0.87881940
