16
Frame=0 idx=005944 GeodesicLength=0.0 rxn_smarts="[C:1]([C:2]([C:3]([H:11])([H:12])[H:13])([C:4]([C:5]#[C:6][H:16])([H:14])[H:15])[H:10])([H:7])([H:8])[H:9]>>[C:1]([C:2]([C:3]([H:11])([H:12])[H:13])([H:7])[H:10])([C:6](=[C:5]=[C:4]([H:14])[H:15])[H:16])([H:8])[H:9]"
C       -0.08171948       0.03169214      -1.37751383
C       -0.85052061      -0.03760724      -0.15331086
C       -0.92677588      -1.33943553       0.61041423
C        0.54363124       1.03307065       1.39953853
C        1.48686290       1.00280266       0.42790784
C        1.91608343       0.77472429      -0.71463524
H       -1.33540097      -0.34712611      -1.37098617
H        0.38538350      -0.86410723      -1.76121950
H       -0.17419433       0.88660666      -2.03036228
H       -1.54708703       0.75915227       0.06203025
H       -1.45431363      -1.19930091       1.55198090
H       -1.44830961      -2.11987702       0.04966585
H        0.07695282      -1.70494488       0.83410967
H        0.06622205       1.97790696       1.63971438
H        0.58841333       0.31518424       2.21148701
H        2.75477226       0.83125909      -1.37882077
16
Frame=1 idx=005944 GeodesicLength=0.047543986099121804 rxn_smarts="[C:1]([C:2]([C:3]([H:11])([H:12])[H:13])([C:4]([C:5]#[C:6][H:16])([H:14])[H:15])[H:10])([H:7])([H:8])[H:9]>>[C:1]([C:2]([C:3]([H:11])([H:12])[H:13])([H:7])[H:10])([C:6](=[C:5]=[C:4]([H:14])[H:15])[H:16])([H:8])[H:9]"
C       -0.08480439       0.04111758      -1.37903362
C       -0.85190411      -0.03962643      -0.15049297
C       -0.91658722      -1.34803450       0.60340090
C        0.53031354       1.04614339       1.39416705
C        1.49004135       0.99110534       0.43752963
C        1.91946670       0.75463573      -0.70389789
H       -1.34529301      -0.34316066      -1.37409826
H        0.38021184      -0.85190102      -1.77311219
H       -0.18295315       0.90233981      -2.02379745
H       -1.55857012       0.74674011       0.07206924
H       -1.40814081      -1.21422184       1.56527392
H       -1.46755174      -2.11632598       0.05446735
H        0.08882777      -1.72780798       0.79363506
H        0.06704223       2.00299178       1.61456582
H        0.57199454       0.35049502       2.22567718
H        2.76790657       0.80550964      -1.35635377
16
Frame=2 idx=005944 GeodesicLength=0.09507109963453084 rxn_smarts="[C:1]([C:2]([C:3]([H:11])([H:12])[H:13])([C:4]([C:5]#[C:6][H:16])([H:14])[H:15])[H:10])([H:7])([H:8])[H:9]>>[C:1]([C:2]([C:3]([H:11])([H:12])[H:13])([H:7])[H:10])([C:6](=[C:5]=[C:4]([H:14])[H:15])[H:16])([H:8])[H:9]"
C       -0.08772162       0.05058539      -1.38036502
C       -0.85326142      -0.04171216      -0.14767520
C       -0.90636695      -1.35653310       0.59629751
C        0.51707868       1.05916597       1.38861287
C        1.49284053       0.97922741       0.44763840
C        1.92252970       0.73437916      -0.69260696
H       -1.35505751      -0.33931854      -1.37722368
H        0.37535149      -0.83949942      -1.78468340
H       -0.19152927       0.91803068      -2.01694422
H       -1.56975168       0.73416931       0.08212022
H       -1.36005263      -1.22918079       1.57758240
H       -1.48714073      -2.11214960       0.06099145
H        0.09942947      -1.75109312       0.75163966
H        0.06806905       2.02743444       1.58875509
H        0.55525950       0.38654179       2.23928404
H        2.78032340       0.77995259      -1.33342316
16
Frame=3 idx=005944 GeodesicLength=0.14251288798723716 rxn_smarts="[C:1]([C:2]([C:3]([H:11])([H:12])[H:13])([C:4]([C:5]#[C:6][H:16])([H:14])[H:15])[H:10])([H:7])([H:8])[H:9]>>[C:1]([C:2]([C:3]([H:11])([H:12])[H:13])([H:7])[H:10])([C:6](=[C:5]=[C:4]([H:14])[H:15])[H:16])([H:8])[H:9]"
C       -0.09029715       0.05985458      -1.38148986
C       -0.85452732      -0.04388040      -0.14488036
C       -0.89639698      -1.36489005       0.58918249
C        0.50406036       1.07195907       1.38294061
C        1.49533464       0.96720161       0.45822193
C        1.92539695       0.71389423      -0.68074255
H       -1.36457876      -0.33568580      -1.38041000
H        0.37101526      -0.82723121      -1.79570105
H       -0.19967971       0.93331262      -2.00997929
H       -1.58044265       0.72159366       0.09203066
H       -1.31035721      -1.24396311       1.58879603
H       -1.50733832      -2.10723198       0.06941226
H        0.10822273      -1.77493770       0.70834995
H        0.06942231       2.05100272       1.56254218
H        0.53842433       0.42302161       2.25224175
H        2.79174151       0.75598013      -1.31051475
16
Frame=4 idx=005944 GeodesicLength=0.18970900714519798 rxn_smarts="[C:1]([C:2]([C:3]([H:11])([H:12])[H:13])([C:4]([C:5]#[C:6][H:16])([H:14])[H:15])[H:10])([H:7])([H:8])[H:9]>>[C:1]([C:2]([C:3]([H:11])([H:12])[H:13])([H:7])[H:10])([C:6](=[C:5]=[C:4]([H:14])[H:15])[H:16])([H:8])[H:9]"
C       -0.09233856       0.06866859      -1.38238288
C       -0.85562264      -0.04614212      -0.14212816
C       -0.88697285      -1.37304878       0.58214672
C        0.49138356       1.08430993       1.37721100
C        1.49758193       0.95506798       0.46923304
C        1.92818096       0.69312595      -0.66830362
H       -1.37371149      -0.33234308      -1.38368651
H        0.36743330      -0.81544320      -1.80591365
H       -0.20714191       0.94778849      -2.00308766
H       -1.59043683       0.70918302       0.10163993
H       -1.25944471      -1.25834461       1.59879207
H       -1.52837400      -2.10141455       0.07991497
H        0.11463776      -1.79945341       0.66403821
H        0.07119459       2.07341940       1.53622220
H        0.52174121       0.45956122       2.26446307
H        2.80188966       0.73506517      -1.28815875
16
Frame=5 idx=005944 GeodesicLength=0.2368716671485337 rxn_smarts="[C:1]([C:2]([C:3]([H:11])([H:12])[H:13])([C:4]([C:5]#[C:6][H:16])([H:14])[H:15])[H:10])([H:7])([H:8])[H:9]>>[C:1]([C:2]([C:3]([H:11])([H:12])[H:13])([H:7])[H:10])([C:6](=[C:5]=[C:4]([H:14])[H:15])[H:16])([H:8])[H:9]"
C       -0.09407065       0.07733466      -1.38310667
C       -0.85663579      -0.04847341      -0.13940203
C       -0.87775850      -1.38109388       0.57509332
C        0.47887226       1.09647328       1.37140176
C        1.49942842       0.94310240       0.48063095
C        1.93069070       0.67240808      -0.65536308
H       -1.38262419      -0.32922744      -1.38703619
H        0.36440934      -0.80373073      -1.81561522
H       -0.21432550       0.96187530      -1.99618191
H       -1.60000430       0.69677822       0.11111800
H       -1.20673251      -1.27263587       1.60743954
H       -1.54976820      -2.09480949       0.09253667
H        0.11894911      -1.82451023       0.61842170
H        0.07314110       2.09494333       1.50972608
H        0.50507964       0.49642343       2.27594115
H        2.81134907       0.71514233      -1.26560407
16
Frame=6 idx=005944 GeodesicLength=0.28378984758594333 rxn_smarts="[C:1]([C:2]([C:3]([H:11])([H:12])[H:13])([C:4]([C:5]#[C:6][H:16])([H:14])[H:15])[H:10])([H:7])([H:8])[H:9]>>[C:1]([C:2]([C:3]([H:11])([H:12])[H:13])([H:7])[H:10])([C:6](=[C:5]=[C:4]([H:14])[H:15])[H:16])([H:8])[H:9]"
C       -0.09520337       0.08545904      -1.38359258
C       -0.85744645      -0.05089362      -0.13672972
C       -0.86917604      -1.38896683       0.56814137
C        0.46671948       1.10814788       1.36557151
C        1.50104042       0.93104509       0.49245011
C        1.93314392       0.65141745      -0.64182338
H       -1.39109216      -0.32642638      -1.39049619
H        0.36222456      -0.79264737      -1.82443553
H       -0.22075363       0.97503970      -1.98943442
H       -1.60883436       0.68463240       0.12022661
H       -1.15275256      -1.28657815       1.61459476
H       -1.57191584      -2.08717528       0.10748853
H        0.12037216      -1.85032305       0.57188586
H        0.07555622       2.11530537       1.48326012
H        0.48860071       0.53317857       2.28662733
H        2.81951694       0.69878516      -1.24373438
16
Frame=7 idx=005944 GeodesicLength=0.33070289042962486 rxn_smarts="[C:1]([C:2]([C:3]([H:11])([H:12])[H:13])([C:4]([C:5]#[C:6][H:16])([H:14])[H:15])[H:10])([H:7])([H:8])[H:9]>>[C:1]([C:2]([C:3]([H:11])([H:12])[H:13])([H:7])[H:10])([C:6](=[C:5]=[C:4]([H:14])[H:15])[H:16])([H:8])[H:9]"
C       -0.09594962       0.09332928      -1.38392598
C       -0.85815203      -0.05338166      -0.13410616
C       -0.86091710      -1.39672373       0.56120658
C        0.45475323       1.11955923       1.35972755
C        1.50226958       0.91926901       0.50460807
C        1.93537456       0.63060207      -0.62781371
H       -1.39929033      -0.32391677      -1.39406665
H        0.36073198      -0.78179852      -1.83265772
H       -0.22685301       0.98763811      -1.98281794
H       -1.61720359       0.67258321       0.12912135
H       -1.09701486      -1.30039136       1.62007708
H       -1.59430643      -2.07863157       0.12485186
H        0.11913901      -1.87669273       0.52419801
H        0.07813205       2.13469084       1.45687943
H        0.47227916       0.56999166       2.29651497
H        2.82700739       0.68387292      -1.22179677
16
Frame=8 idx=005944 GeodesicLength=0.37781606503416065 rxn_smarts="[C:1]([C:2]([C:3]([H:11])([H:12])[H:13])([C:4]([C:5]#[C:6][H:16])([H:14])[H:15])[H:10])([H:7])([H:8])[H:9]>>[C:1]([C:2]([C:3]([H:11])([H:12])[H:13])([H:7])[H:10])([C:6](=[C:5]=[C:4]([H:14])[H:15])[H:16])([H:8])[H:9]"
C       -0.09653309       0.10126072      -1.38416058
C       -0.85883444      -0.05590354      -0.13151829
C       -0.85259544      -1.40440216       0.55417913
C        0.44276033       1.13094842       1.35384810
C        1.50294844       0.90801485       0.51708195
C        1.93717144       0.61023216      -0.61338742
H       -1.40736241      -0.32163023      -1.39772757
H        0.35972956      -0.77075312      -1.84056813
H       -0.23301974       1.00008139      -1.97621507
H       -1.62535288       0.66045714       0.13797664
H       -1.03881594      -1.31433831       1.62363999
H       -1.61636783      -2.06926850       0.14475934
H        0.11550341      -1.90338450       0.47502872
H        0.08057036       2.15334408       1.43046882
H        0.45590379       0.60712152       2.30561252
H        2.83429443       0.66822005      -1.19901815
16
Frame=9 idx=005944 GeodesicLength=0.42507191983956505 rxn_smarts="[C:1]([C:2]([C:3]([H:11])([H:12])[H:13])([C:4]([C:5]#[C:6][H:16])([H:14])[H:15])[H:10])([H:7])([H:8])[H:9]>>[C:1]([C:2]([C:3]([H:11])([H:12])[H:13])([H:7])[H:10])([C:6](=[C:5]=[C:4]([H:14])[H:15])[H:16])([H:8])[H:9]"
C       -0.09703952       0.10944057      -1.38425401
C       -0.85949050      -0.05843351      -0.12896440
C       -0.84398133      -1.41200360       0.54700993
C        0.43059992       1.14238431       1.34782643
C        1.50292973       0.89733640       0.52984645
C        1.93835669       0.59033039      -0.59849243
H       -1.41529038      -0.31949077      -1.40140742
H        0.35910008      -0.75925111      -1.84819963
H       -0.23938565       1.01262088      -1.96947521
H       -1.63330881       0.64816149       0.14683312
H       -0.97761863      -1.32851792       1.62493752
H       -1.63768278      -2.05906885       0.16750872
H        0.10937937      -1.93027443       0.42421045
H        0.08272686       2.17133522       1.40380686
H        0.43924582       0.64460028       2.31377429
H        2.84145915       0.65083064      -1.17496066
16
Frame=10 idx=005944 GeodesicLength=0.47289222543701864 rxn_smarts="[C:1]([C:2]([C:3]([H:11])([H:12])[H:13])([C:4]([C:5]#[C:6][H:16])([H:14])[H:15])[H:10])([H:7])([H:8])[H:9]>>[C:1]([C:2]([C:3]([H:11])([H:12])[H:13])([H:7])[H:10])([C:6](=[C:5]=[C:4]([H:14])[H:15])[H:16])([H:8])[H:9]"
C       -0.09742156       0.11771259      -1.38429500
C       -0.86018106      -0.06098445      -0.12647825
C       -0.83521520      -1.41952140       0.53970580
C        0.41832224       1.15386143       1.34184060
C        1.50236275       0.88731023       0.54294760
C        1.93912902       0.57092442      -0.58315673
H       -1.42315370      -0.31763833      -1.40523648
H        0.35897055      -0.74752929      -1.85559552
H       -0.24591414       1.02503508      -1.96278370
H       -1.64116129       0.63577470       0.15565322
H       -0.91350077      -1.34280069       1.62371463
H       -1.65827961      -2.04802358       0.19327687
H        0.10038969      -1.95737819       0.37182938
H        0.08461756       2.18869470       1.37726596
H        0.42241525       0.68231456       2.32116338
H        2.84862029       0.63224821      -1.14985176
16
Frame=11 idx=005944 GeodesicLength=0.5210166499247142 rxn_smarts="[C:1]([C:2]([C:3]([H:11])([H:12])[H:13])([C:4]([C:5]#[C:6][H:16])([H:14])[H:15])[H:10])([H:7])([H:8])[H:9]>>[C:1]([C:2]([C:3]([H:11])([H:12])[H:13])([H:7])[H:10])([C:6](=[C:5]=[C:4]([H:14])[H:15])[H:16])([H:8])[H:9]"
C       -0.09760306       0.12603926      -1.38423773
C       -0.86082344      -0.06352016      -0.12409568
C       -0.82631411      -1.42687985       0.53231568
C        0.40589160       1.16520723       1.33582786
C        1.50113396       0.87793029       0.55630363
C        1.93935782       0.55207262      -0.56737893
H       -1.43078167      -0.31604290      -1.40919059
H        0.35941704      -0.73563519      -1.86252291
H       -0.25250798       1.03721322      -1.95621697
H       -1.64872843       0.62337495       0.16429278
H       -0.84642897      -1.35710639       1.61955423
H       -1.67784399      -2.03595108       0.22237246
H        0.08806020      -1.98459465       0.31814475
H        0.08622028       2.20523108       1.35090318
H        0.40544393       0.71991312       2.32763749
H        2.85550683       0.61274845      -1.12370924
16
Frame=12 idx=005944 GeodesicLength=0.5696247517094777 rxn_smarts="[C:1]([C:2]([C:3]([H:11])([H:12])[H:13])([C:4]([C:5]#[C:6][H:16])([H:14])[H:15])[H:10])([H:7])([H:8])[H:9]>>[C:1]([C:2]([C:3]([H:11])([H:12])[H:13])([H:7])[H:10])([C:6](=[C:5]=[C:4]([H:14])[H:15])[H:16])([H:8])[H:9]"
C       -0.09742683       0.13414837      -1.38411942
C       -0.86142096      -0.06604789      -0.12185322
C       -0.81757158      -1.43405571       0.52491234
C        0.39344131       1.17626440       1.32993757
C        1.49943754       0.86911595       0.56993701
C        1.93928697       0.53373199      -0.55118214
H       -1.43814024      -0.31483235      -1.41336710
H        0.36063296      -0.72398854      -1.86883659
H       -0.25891879       1.04878293      -1.95000473
H       -1.65595666       0.61113469       0.17261759
H       -0.77688871      -1.37130914       1.61213860
H       -1.69642046      -2.02277009       0.25495976
H        0.07178788      -2.01190883       0.26355396
H        0.08769324       2.22084832       1.32507786
H        0.38848359       0.75706710       2.33331609
H        2.86198074       0.59381882      -1.09708758
16
Frame=13 idx=005944 GeodesicLength=0.6189355755404873 rxn_smarts="[C:1]([C:2]([C:3]([H:11])([H:12])[H:13])([C:4]([C:5]#[C:6][H:16])([H:14])[H:15])[H:10])([H:7])([H:8])[H:9]>>[C:1]([C:2]([C:3]([H:11])([H:12])[H:13])([H:7])[H:10])([C:6](=[C:5]=[C:4]([H:14])[H:15])[H:16])([H:8])[H:9]"
C       -0.09698013       0.14215852      -1.38396646
C       -0.86201748      -0.06852229      -0.11977690
C       -0.80876730      -1.44101165       0.51745543
C        0.38083520       1.18709092       1.32416084
C        1.49717529       0.86091247       0.58385638
C        1.93880988       0.51590463      -0.53452976
H       -1.44527219      -0.31395209      -1.41778737
H        0.36253911      -0.71244954      -1.87461034
H       -0.26529241       1.05989636      -1.94412004
H       -1.66296295       0.59901625       0.18063919
H       -0.70442175      -1.38545194       1.60097825
H       -1.71345225      -2.00842233       0.29133126
H        0.05144219      -2.03912037       0.20803992
H        0.08885866       2.23562807       1.29974779
H        0.37134611       0.79377120       2.33820340
H        2.86816003       0.57455178      -1.06962158
16
Frame=14 idx=005944 GeodesicLength=0.6690294988361813 rxn_smarts="[C:1]([C:2]([C:3]([H:11])([H:12])[H:13])([C:4]([C:5]#[C:6][H:16])([H:14])[H:15])[H:10])([H:7])([H:8])[H:9]>>[C:1]([C:2]([C:3]([H:11])([H:12])[H:13])([H:7])[H:10])([C:6](=[C:5]=[C:4]([H:14])[H:15])[H:16])([H:8])[H:9]"
C       -0.09612558       0.14985389      -1.38382121
C       -0.86261946      -0.07094334      -0.11791335
C       -0.80015192      -1.44771404       0.51002581
C        0.36817174       1.19749500       1.31860953
C        1.49445954       0.85321971       0.59805136
C        1.93807503       0.49862109      -0.51747478
H       -1.45212182      -0.31350213      -1.42253883
H        0.36527232      -0.70135322      -1.87968096
H       -0.27137333       1.07023830      -1.93880563
H       -1.66967998       0.58714714       0.18821405
H       -0.62961769      -1.39946002       1.58565799
H       -1.72875549      -1.99284899       0.33161855
H        0.02648034      -2.06603874       0.15218373
H        0.08990027       2.24943315       1.27522976
H        0.35418027       0.82966924       2.34241779
H        2.87390576       0.55618296      -1.04177380
16
Frame=15 idx=005944 GeodesicLength=0.7196897819818451 rxn_smarts="[C:1]([C:2]([C:3]([H:11])([H:12])[H:13])([C:4]([C:5]#[C:6][H:16])([H:14])[H:15])[H:10])([H:7])([H:8])[H:9]>>[C:1]([C:2]([C:3]([H:11])([H:12])[H:13])([H:7])[H:10])([C:6](=[C:5]=[C:4]([H:14])[H:15])[H:16])([H:8])[H:9]"
C       -0.09472707       0.15700019      -1.38365329
C       -0.86314813      -0.07323658      -0.11632278
C       -0.79188878      -1.45404084       0.50271563
C        0.35550740       1.20718147       1.31332528
C        1.49128429       0.84597919       0.61239206
C        1.93708687       0.48200489      -0.50011389
H       -1.45853105      -0.31346806      -1.42763408
H        0.36901414      -0.69110051      -1.88368436
H       -0.27700998       1.07943302      -1.93429485
H       -1.67594668       0.57580104       0.19510512
H       -0.55312358      -1.41313573       1.56574440
H       -1.74192574      -1.97580004       0.37578722
H       -0.00358926      -2.09254510       0.09671519
H        0.09076798       2.26200356       1.25192685
H        0.33728565       0.86415437       2.34590496
H        2.87894392       0.53976913      -1.01391345
16
Frame=16 idx=005944 GeodesicLength=0.771505338840146 rxn_smarts="[C:1]([C:2]([C:3]([H:11])([H:12])[H:13])([C:4]([C:5]#[C:6][H:16])([H:14])[H:15])[H:10])([H:7])([H:8])[H:9]>>[C:1]([C:2]([C:3]([H:11])([H:12])[H:13])([H:7])[H:10])([C:6](=[C:5]=[C:4]([H:14])[H:15])[H:16])([H:8])[H:9]"
C       -0.09286594       0.16369883      -1.38357874
C       -0.86373978      -0.07540325      -0.11503897
C       -0.78383176      -1.46002005       0.49549215
C        0.34274064       1.21627141       1.30839192
C        1.48765694       0.83913100       0.62699679
C        1.93588572       0.46598875      -0.48240144
H       -1.46464352      -0.31388314      -1.43318888
H        0.37363670      -0.68158899      -1.88685738
H       -0.28223171       1.08765562      -1.93062697
H       -1.68200454       0.56484934       0.20137743
H       -0.47468813      -1.42664626       1.54068785
H       -1.75241489      -1.95734352       0.42416600
H       -0.03887752      -2.11831620       0.04170922
H        0.09146537       2.27353821       1.22977665
H        0.32036495       0.89741311       2.34889574
H        2.88354746       0.52465512      -0.98580137
