13
Frame=0 idx=006696 GeodesicLength=0.0 rxn_smarts="[C:1]([c:2]1[c:3]([H:11])[n:4][c:5]([N:6]([H:12])[H:13])[o:7]1)([H:8])([H:9])[H:10]>>[C:1]([C@@:3]1([H:11])[C-:2]=[O+:7][C:5]([N:6]([H:12])[H:13])=[N:4]1)([H:8])([H:9])[H:10]"
C       -1.79944994       0.01181125       0.40332791
C       -0.73201933       0.86927067      -0.86451004
C       -0.63086323      -0.53948554      -0.88511003
N        0.58912346      -1.02741119      -0.41243029
C        1.18592076       0.06092894      -0.05472966
N        2.40597448       0.17712427       0.50093715
O        0.49359178       1.19919226      -0.23366942
H       -2.79603539       0.11379984      -0.00866458
H       -1.68093355      -0.94424687       0.91820851
H       -1.58894767       0.80662505       1.11123265
H       -1.28092990      -1.18655936      -1.45639043
H        2.83034997       1.08596195       0.51979438
H        3.00421856      -0.62701121       0.46200386
13
Frame=1 idx=006696 GeodesicLength=0.05773278896193802 rxn_smarts="[C:1]([c:2]1[c:3]([H:11])[n:4][c:5]([N:6]([H:12])[H:13])[o:7]1)([H:8])([H:9])[H:10]>>[C:1]([C@@:3]1([H:11])[C-:2]=[O+:7][C:5]([N:6]([H:12])[H:13])=[N:4]1)([H:8])([H:9])[H:10]"
C       -1.82054053       0.01360762       0.40080124
C       -0.72445427       0.85955473      -0.84997744
C       -0.62553022      -0.54927687      -0.86747887
N        0.59424161      -1.03239196      -0.38467148
C        1.20039278       0.05899098      -0.05769651
N        2.43269474       0.18497861       0.46849439
O        0.49577102       1.19503562      -0.22196355
H       -2.80925982       0.14828126      -0.02219028
H       -1.74512920      -0.95238410       0.90496103
H       -1.60481640       0.78823012       1.12991656
H       -1.26031758      -1.19152601      -1.46128900
H        2.84087873       1.10002071       0.51131016
H        3.02606916      -0.62312072       0.44978374
13
Frame=2 idx=006696 GeodesicLength=0.11440232376689885 rxn_smarts="[C:1]([c:2]1[c:3]([H:11])[n:4][c:5]([N:6]([H:12])[H:13])[o:7]1)([H:8])([H:9])[H:10]>>[C:1]([C@@:3]1([H:11])[C-:2]=[O+:7][C:5]([N:6]([H:12])[H:13])=[N:4]1)([H:8])([H:9])[H:10]"
C       -1.84277007       0.01537271       0.39731597
C       -0.71612511       0.84963338      -0.83383339
C       -0.61951429      -0.55924399      -0.84800417
N        0.59941211      -1.03702650      -0.35337117
C        1.21338068       0.05667491      -0.05491194
N        2.46133903       0.19332699       0.43048414
O        0.49779934       1.19063123      -0.20697471
H       -2.82172580       0.18392980      -0.03742784
H       -1.81222148      -0.95966524       0.88833981
H       -1.62358639       0.76819452       1.14849975
H       -1.23707665      -1.19651535      -1.46513755
H        2.85253478       1.11380333       0.49958664
H        3.04855384      -0.61911578       0.43543445
13
Frame=3 idx=006696 GeodesicLength=0.167899809523658 rxn_smarts="[C:1]([c:2]1[c:3]([H:11])[n:4][c:5]([N:6]([H:12])[H:13])[o:7]1)([H:8])([H:9])[H:10]>>[C:1]([C@@:3]1([H:11])[C-:2]=[O+:7][C:5]([N:6]([H:12])[H:13])=[N:4]1)([H:8])([H:9])[H:10]"
C       -1.86159840       0.01724210       0.39530051
C       -0.70958691       0.83927039      -0.82029740
C       -0.61474361      -0.56969367      -0.83048864
N        0.60569964      -1.04100637      -0.32866345
C        1.22536282       0.05467968      -0.05555529
N        2.48763609       0.20198473       0.38862815
O        0.50031975       1.18685331      -0.19949948
H       -2.83148844       0.21967913      -0.04673136
H       -1.87389259      -0.96538725       0.87157577
H       -1.63734273       0.74762234       1.16751149
H       -1.21624603      -1.20245785      -1.46814698
H        2.85936466       1.12643099       0.49737683
H        3.06651574      -0.61521752       0.42898985
13
Frame=4 idx=006696 GeodesicLength=0.21964742903511242 rxn_smarts="[C:1]([c:2]1[c:3]([H:11])[n:4][c:5]([N:6]([H:12])[H:13])[o:7]1)([H:8])([H:9])[H:10]>>[C:1]([C@@:3]1([H:11])[C-:2]=[O+:7][C:5]([N:6]([H:12])[H:13])=[N:4]1)([H:8])([H:9])[H:10]"
C       -1.88039948       0.01906139       0.39288696
C       -0.70270753       0.82869139      -0.80615012
C       -0.60955336      -0.58026593      -0.81207350
N        0.61236743      -1.04463172      -0.30296122
C        1.23578499       0.05250811      -0.05120783
N        2.51419947       0.21102541       0.34120664
O        0.50281119       1.18311909      -0.19117312
H       -2.83983014       0.25618523      -0.05592506
H       -1.93628428      -0.96999332       0.85216039
H       -1.65228883       0.72554090       1.18644521
H       -1.19385227      -1.20843337      -1.47019984
H        2.86617593       1.13683090       0.49412981
H        3.08357688      -0.60963807       0.42286167
13
Frame=5 idx=006696 GeodesicLength=0.27010536186176365 rxn_smarts="[C:1]([c:2]1[c:3]([H:11])[n:4][c:5]([N:6]([H:12])[H:13])[o:7]1)([H:8])([H:9])[H:10]>>[C:1]([C@@:3]1([H:11])[C-:2]=[O+:7][C:5]([N:6]([H:12])[H:13])=[N:4]1)([H:8])([H:9])[H:10]"
C       -1.89773407       0.02073506       0.39121761
C       -0.69669260       0.81805972      -0.79275280
C       -0.60486204      -0.59098551      -0.79448699
N        0.61992523      -1.04784724      -0.28066025
C        1.24626890       0.05065611      -0.04895042
N        2.53815298       0.21990818       0.29431673
O        0.50553058       1.17980584      -0.18579391
H       -2.84655228       0.29292550      -0.06172958
H       -1.99634840      -0.97352315       0.83147849
H       -1.66553767       0.70216307       1.20589535
H       -1.17228926      -1.21459954      -1.47190992
H        2.87229764       1.14412353       0.49120781
H        3.09784098      -0.60142157       0.42216788
13
Frame=6 idx=006696 GeodesicLength=0.3183710706495228 rxn_smarts="[C:1]([c:2]1[c:3]([H:11])[n:4][c:5]([N:6]([H:12])[H:13])[o:7]1)([H:8])([H:9])[H:10]>>[C:1]([C@@:3]1([H:11])[C-:2]=[O+:7][C:5]([N:6]([H:12])[H:13])=[N:4]1)([H:8])([H:9])[H:10]"
C       -1.91233328       0.02283127       0.39062542
C       -0.69178213       0.80654876      -0.78230221
C       -0.60098846      -0.60245841      -0.77827491
N        0.62837468      -1.05078977      -0.26333960
C        1.25670964       0.04913572      -0.05191449
N        2.55645047       0.22838185       0.25789823
O        0.50859826       1.17668567      -0.18743615
H       -2.85082859       0.32959962      -0.06302960
H       -2.05203389      -0.97467060       0.81173676
H       -1.67494868       0.67904937       1.22481563
H       -1.15277414      -1.22214902      -1.47237775
H        2.87467338       1.14878488       0.49493109
H        3.11088272      -0.59094933       0.41866757
13
Frame=7 idx=006696 GeodesicLength=0.3659303600197201 rxn_smarts="[C:1]([c:2]1[c:3]([H:11])[n:4][c:5]([N:6]([H:12])[H:13])[o:7]1)([H:8])([H:9])[H:10]>>[C:1]([C@@:3]1([H:11])[C-:2]=[O+:7][C:5]([N:6]([H:12])[H:13])=[N:4]1)([H:8])([H:9])[H:10]"
C       -1.92631446       0.02490980       0.39025066
C       -0.68722994       0.79482065      -0.77233200
C       -0.59732777      -0.61419245      -0.76234470
N        0.63737215      -1.05365520      -0.24780238
C        1.26692494       0.04763401      -0.05558802
N        2.57190859       0.23637070       0.22958852
O        0.51168957       1.17365464      -0.19069743
H       -2.85382274       0.36665570      -0.06240549
H       -2.10684635      -0.97446469       0.79066445
H       -1.68407244       0.65478271       1.24373720
H       -1.13357594      -1.22999678      -1.47239992
H        2.87741201       1.15335383       0.49572087
H        3.12388237      -0.57987291       0.41360825
13
Frame=8 idx=006696 GeodesicLength=0.41290156805873646 rxn_smarts="[C:1]([c:2]1[c:3]([H:11])[n:4][c:5]([N:6]([H:12])[H:13])[o:7]1)([H:8])([H:9])[H:10]>>[C:1]([C@@:3]1([H:11])[C-:2]=[O+:7][C:5]([N:6]([H:12])[H:13])=[N:4]1)([H:8])([H:9])[H:10]"
C       -1.94026138       0.02691632       0.38976360
C       -0.68273798       0.78290825      -0.76208606
C       -0.59362997      -0.62608459      -0.74601798
N        0.64668492      -1.05641967      -0.23243059
C        1.27687790       0.04608692      -0.05870044
N        2.58596540       0.24413764       0.20495778
O        0.51461893       1.17053783      -0.19389866
H       -2.85564752       0.40421142      -0.06075854
H       -2.16172512      -0.97291696       0.76758098
H       -1.69413178       0.62900958       1.26256459
H       -1.11392004      -1.23787678      -1.47178113
H        2.88089805       1.15807895       0.49332557
H        3.13700861      -0.56858889       0.40748088
13
Frame=9 idx=006696 GeodesicLength=0.45905596854322284 rxn_smarts="[C:1]([c:2]1[c:3]([H:11])[n:4][c:5]([N:6]([H:12])[H:13])[o:7]1)([H:8])([H:9])[H:10]>>[C:1]([C@@:3]1([H:11])[C-:2]=[O+:7][C:5]([N:6]([H:12])[H:13])=[N:4]1)([H:8])([H:9])[H:10]"
C       -1.95327083       0.02905889       0.38969391
C       -0.67873369       0.77055802      -0.75285205
C       -0.59025857      -0.63838490      -0.73004952
N        0.65651015      -1.05913903      -0.21925501
C        1.28667159       0.04458657      -0.06361915
N        2.59844593       0.25194824       0.18368629
O        0.51752576       1.16739917      -0.19983585
H       -2.85596389       0.44187661      -0.05671598
H       -2.21498998      -0.96953691       0.74403982
H       -1.70344321       0.60253956       1.28110351
H       -1.09504539      -1.24637958      -1.47038791
H        2.88297194       1.16257980       0.49302195
H        3.14958018      -0.55710645       0.40117000
13
Frame=10 idx=006696 GeodesicLength=0.5047686547340065 rxn_smarts="[C:1]([c:2]1[c:3]([H:11])[n:4][c:5]([N:6]([H:12])[H:13])[o:7]1)([H:8])([H:9])[H:10]>>[C:1]([C@@:3]1([H:11])[C-:2]=[O+:7][C:5]([N:6]([H:12])[H:13])=[N:4]1)([H:8])([H:9])[H:10]"
C       -1.96603856       0.03121795       0.38969828
C       -0.67489374       0.75794899      -0.74372217
C       -0.58694744      -0.65093686      -0.71388889
N        0.66668446      -1.06183587      -0.20683637
C        1.29631274       0.04305154      -0.06885706
N        2.61013860       0.25975690       0.16420897
O        0.52030713       1.16416088      -0.20656350
H       -2.85500191       0.47983632      -0.05117116
H       -2.26778727      -0.96453273       0.71908953
H       -1.71337163       0.57483001       1.29942938
H       -1.07619872      -1.25516802      -1.46824674
H        2.88484207       1.16715862       0.49215626
H        3.16195426      -0.54548774       0.39470347
13
Frame=11 idx=006696 GeodesicLength=0.550160520080224 rxn_smarts="[C:1]([c:2]1[c:3]([H:11])[n:4][c:5]([N:6]([H:12])[H:13])[o:7]1)([H:8])([H:9])[H:10]>>[C:1]([C@@:3]1([H:11])[C-:2]=[O+:7][C:5]([N:6]([H:12])[H:13])=[N:4]1)([H:8])([H:9])[H:10]"
C       -1.97892592       0.03332451       0.38956273
C       -0.67104777       0.74516423      -0.73415787
C       -0.58355040      -0.66364378      -0.69717799
N        0.67709023      -1.06449389      -0.19426745
C        1.30579967       0.04144323      -0.07358527
N        2.62140068       0.26750675       0.14555651
O        0.52289623       1.16076226      -0.21297161
H       -2.85282145       0.51819424      -0.04452344
H       -2.32066885      -0.95794556       0.69201885
H       -1.72472816       0.54549179       1.31751969
H       -1.05694191      -1.26403470      -1.46528175
H        2.88717696       1.17198008       0.48924308
H        3.17432070      -0.53374916       0.38806453
13
Frame=12 idx=006696 GeodesicLength=0.5949997938514525 rxn_smarts="[C:1]([c:2]1[c:3]([H:11])[n:4][c:5]([N:6]([H:12])[H:13])[o:7]1)([H:8])([H:9])[H:10]>>[C:1]([C@@:3]1([H:11])[C-:2]=[O+:7][C:5]([N:6]([H:12])[H:13])=[N:4]1)([H:8])([H:9])[H:10]"
C       -1.99112405       0.03553766       0.38974498
C       -0.66754961       0.73200286      -0.72526611
C       -0.58035367      -0.67667320      -0.68063832
N        0.68790765      -1.06715079      -0.18340538
C        1.31520300       0.03981144      -0.07987605
N        2.63182804       0.27538133       0.12856283
O        0.52539861       1.15721693      -0.22146873
H       -2.84908142       0.55660941      -0.03566427
H       -2.37222459      -0.94938741       0.66426340
H       -1.73595510       0.51513308       1.33525656
H       -1.03839108      -1.27342546      -1.46150843
H        2.88828418       1.17674613       0.48788267
H        3.18605804      -0.52180198       0.38211687
13
Frame=13 idx=006696 GeodesicLength=0.6394220764372803 rxn_smarts="[C:1]([c:2]1[c:3]([H:11])[n:4][c:5]([N:6]([H:12])[H:13])[o:7]1)([H:8])([H:9])[H:10]>>[C:1]([C@@:3]1([H:11])[C-:2]=[O+:7][C:5]([N:6]([H:12])[H:13])=[N:4]1)([H:8])([H:9])[H:10]"
C       -2.00296911       0.03773658       0.39008931
C       -0.66421795       0.71862383      -0.71647533
C       -0.57722346      -0.68987934      -0.66405167
N        0.69901065      -1.06982196      -0.17359067
C        1.32448983       0.03809304      -0.08683569
N        2.64171192       0.28324407       0.11260672
O        0.52779658       1.15349127      -0.23096392
H       -2.84384638       0.59514917      -0.02481636
H       -2.42297897      -0.93900528       0.63510297
H       -1.74780462       0.48329685       1.35267303
H       -1.02019496      -1.28302127      -1.45704102
H        2.88902478       1.18176087       0.48584666
H        3.19720169      -0.50966783       0.37745597
13
Frame=14 idx=006696 GeodesicLength=0.6837278939663186 rxn_smarts="[C:1]([c:2]1[c:3]([H:11])[n:4][c:5]([N:6]([H:12])[H:13])[o:7]1)([H:8])([H:9])[H:10]>>[C:1]([C@@:3]1([H:11])[C-:2]=[O+:7][C:5]([N:6]([H:12])[H:13])=[N:4]1)([H:8])([H:9])[H:10]"
C       -2.01486299       0.03995526       0.39035742
C       -0.66088229       0.70504296      -0.70741071
C       -0.57398224      -0.70328930      -0.64694248
N        0.71034148      -1.07251622      -0.16372058
C        1.33369173       0.03628860      -0.09369688
N        2.65132977       0.29114241       0.09700578
O        0.53001525       1.14958560      -0.24055338
H       -2.83720020       0.63389808      -0.01252863
H       -2.47346788      -0.92665900       0.60400877
H       -1.76126315       0.44985485       1.36963882
H       -1.00183631      -1.29292471      -1.45158500
H        2.88976621       1.18698027       0.48290693
H        3.20835062      -0.49735880       0.37251995
13
Frame=15 idx=006696 GeodesicLength=0.7278476978510541 rxn_smarts="[C:1]([c:2]1[c:3]([H:11])[n:4][c:5]([N:6]([H:12])[H:13])[o:7]1)([H:8])([H:9])[H:10]>>[C:1]([C@@:3]1([H:11])[C-:2]=[O+:7][C:5]([N:6]([H:12])[H:13])=[N:4]1)([H:8])([H:9])[H:10]"
C       -2.02682754       0.04224024       0.39045305
C       -0.65753822       0.69115231      -0.69807203
C       -0.57062022      -0.71693162      -0.62913252
N        0.72188128      -1.07515988      -0.15350635
C        1.34281565       0.03442351      -0.10041248
N        2.66069681       0.29919635       0.08156772
O        0.53202816       1.14543224      -0.25023623
H       -2.82904949       0.67280808       0.00116287
H       -2.52368387      -0.91205892       0.57086604
H       -1.77647179       0.41471003       1.38595316
H       -0.98331586      -1.30327514      -1.44487223
H        2.89038410       1.19226502       0.47965231
H        3.21970101      -0.48480221       0.36657669
13
Frame=16 idx=006696 GeodesicLength=0.7718275713669506 rxn_smarts="[C:1]([c:2]1[c:3]([H:11])[n:4][c:5]([N:6]([H:12])[H:13])[o:7]1)([H:8])([H:9])[H:10]>>[C:1]([C@@:3]1([H:11])[C-:2]=[O+:7][C:5]([N:6]([H:12])[H:13])=[N:4]1)([H:8])([H:9])[H:10]"
C       -2.03916052       0.04445214       0.39020927
C       -0.65405441       0.67712713      -0.68785818
C       -0.56704675      -0.73064478      -0.61038918
N        0.73349361      -1.07772613      -0.14225143
C        1.35177340       0.03248286      -0.10591454
N        2.66998573       0.30713627       0.06572144
O        0.53382514       1.14105740      -0.25890705
H       -2.81944011       0.71184322       0.01624507
H       -2.57388712      -0.89525042       0.53472156
H       -1.79430509       0.37735965       1.40152146
H       -0.96428634      -1.31373661      -1.43694339
H        2.89184371       1.19794563       0.47375859
H        3.23125875      -0.47204636       0.36008638
