15
Frame=0 idx=003105 GeodesicLength=0.0 rxn_smarts="[C:1]([C@@:2]1([H:10])[N:3]([H:11])[C@:4]1([C:5]([O:6][H:15])([H:13])[H:14])[H:12])([H:7])([H:8])[H:9]>>[C:1]([N+:3]1([H:11])[C-:2]([H:10])[C@@:4]1([C:5]([O:6][H:15])([H:13])[H:14])[H:12])([H:7])([H:8])[H:9]"
C       -1.45246781       1.07808782      -0.02836080
C       -0.98351275      -0.82395317      -0.06517503
N       -0.02315982       0.42845210      -0.87411915
C        0.45472847      -0.83497681      -0.34843308
C        1.50033223      -0.72208517       0.74575417
O        1.32949160       0.41078819       1.56130070
H       -2.48970563       0.74605567      -0.04049588
H       -1.14585419       1.31066839       0.98201050
H       -1.39463486       1.97301267      -0.65943035
H       -1.52193526      -1.27883256      -0.90739315
H       -0.23543404       0.35613272      -1.86234977
H        0.76814817      -1.49399251      -1.15734909
H        2.49867100      -0.72094424       0.28487620
H        1.43128361      -1.59740229       1.39477633
H        1.26404922       1.16898925       0.97438846
15
Frame=1 idx=003105 GeodesicLength=0.061871126195177234 rxn_smarts="[C:1]([C@@:2]1([H:10])[N:3]([H:11])[C@:4]1([C:5]([O:6][H:15])([H:13])[H:14])[H:12])([H:7])([H:8])[H:9]>>[C:1]([N+:3]1([H:11])[C-:2]([H:10])[C@@:4]1([C:5]([O:6][H:15])([H:13])[H:14])[H:12])([H:7])([H:8])[H:9]"
C       -1.45694867       1.06626649      -0.01116252
C       -0.98216983      -0.82788582      -0.09648386
N       -0.03644016       0.42285780      -0.88207645
C        0.46093066      -0.83242039      -0.35542382
C        1.48685496      -0.71704057       0.75544668
O        1.34894888       0.44645270       1.53322175
H       -2.49832223       0.74622959      -0.02461320
H       -1.14792962       1.27443862       1.00399992
H       -1.40028401       1.97938172      -0.61547374
H       -1.51312945      -1.28825555      -0.93950108
H       -0.23407930       0.36149019      -1.87352530
H        0.79179098      -1.48453392      -1.16319746
H        2.49280928      -0.76749140       0.31433150
H        1.37692986      -1.56684502       1.43232942
H        1.31103867       1.18735557       0.92212817
15
Frame=2 idx=003105 GeodesicLength=0.12397003958008931 rxn_smarts="[C:1]([C@@:2]1([H:10])[N:3]([H:11])[C@:4]1([C:5]([O:6][H:15])([H:13])[H:14])[H:12])([H:7])([H:8])[H:9]>>[C:1]([N+:3]1([H:11])[C-:2]([H:10])[C@@:4]1([C:5]([O:6][H:15])([H:13])[H:14])[H:12])([H:7])([H:8])[H:9]"
C       -1.46070646       1.05361577       0.00634030
C       -0.98057959      -0.83142875      -0.12795665
N       -0.04945198       0.41725428      -0.89034451
C        0.46686924      -0.82954646      -0.36240754
C        1.47252059      -0.71089314       0.76491376
O        1.36916682       0.48131812       1.50350693
H       -2.50600315       0.74587877      -0.00741168
H       -1.14888430       1.23708916       1.02557303
H       -1.40509279       1.98419909      -0.57027390
H       -1.50375765      -1.29717976      -0.97181896
H       -0.23206447       0.36701907      -1.88471638
H        0.81548193      -1.47445553      -1.16865470
H        2.48390850      -0.81358846       0.34611176
H        1.32110432      -1.53210448       1.46850282
H        1.35748900       1.20282232       0.86863571
15
Frame=3 idx=003105 GeodesicLength=0.18603497063629337 rxn_smarts="[C:1]([C@@:2]1([H:10])[N:3]([H:11])[C@:4]1([C:5]([O:6][H:15])([H:13])[H:14])[H:12])([H:7])([H:8])[H:9]>>[C:1]([N+:3]1([H:11])[C-:2]([H:10])[C@@:4]1([C:5]([O:6][H:15])([H:13])[H:14])[H:12])([H:7])([H:8])[H:9]"
C       -1.46407022       1.04037173       0.02391501
C       -0.97898533      -0.83472970      -0.15954188
N       -0.06222824       0.41185633      -0.89893090
C        0.47258740      -0.82651788      -0.36930345
C        1.45776841      -0.70387304       0.77428791
O        1.39037769       0.51500406       1.47256458
H       -2.51328987       0.74503277       0.01099235
H       -1.14883086       1.19906009       1.04648788
H       -1.40950018       1.98779674      -0.52436871
H       -1.49426429      -1.30583227      -1.00433304
H       -0.22955486       0.37298140      -1.89597453
H        0.83923374      -1.46396228      -1.17363031
H        2.47238882      -0.85883338       0.38029528
H        1.26453155      -1.49380700       1.50307922
H        1.40383626       1.21545243       0.81446061
15
Frame=4 idx=003105 GeodesicLength=0.24836838863244964 rxn_smarts="[C:1]([C@@:2]1([H:10])[N:3]([H:11])[C@:4]1([C:5]([O:6][H:15])([H:13])[H:14])[H:12])([H:7])([H:8])[H:9]>>[C:1]([N+:3]1([H:11])[C-:2]([H:10])[C@@:4]1([C:5]([O:6][H:15])([H:13])[H:14])[H:12])([H:7])([H:8])[H:9]"
C       -1.46687393       1.02650489       0.04153412
C       -0.97724975      -0.83758824      -0.19105850
N       -0.07468154       0.40652797      -0.90772978
C        0.47801925      -0.82331451      -0.37607630
C        1.44244488      -0.69590481       0.78338546
O        1.41208175       0.54722728       1.44053109
H       -2.51984436       0.74368527       0.03063027
H       -1.14774821       1.16054494       1.06664029
H       -1.41328468       1.98987502      -0.47786110
H       -1.48441074      -1.31405879      -1.03675544
H       -0.22638397       0.37911557      -1.90711970
H        0.86290951      -1.45305934      -1.17806835
H        2.45787689      -0.90267084       0.41646087
H        1.20739872      -1.45188976       1.53551481
H        1.44974617       1.22500534       0.75997227
15
Frame=5 idx=003105 GeodesicLength=0.31095294361438414 rxn_smarts="[C:1]([C@@:2]1([H:10])[N:3]([H:11])[C@:4]1([C:5]([O:6][H:15])([H:13])[H:14])[H:12])([H:7])([H:8])[H:9]>>[C:1]([N+:3]1([H:11])[C-:2]([H:10])[C@@:4]1([C:5]([O:6][H:15])([H:13])[H:14])[H:12])([H:7])([H:8])[H:9]"
C       -1.46921757       1.01209784       0.05903924
C       -0.97544867      -0.84001334      -0.22239349
N       -0.08682376       0.40132905      -0.91673018
C        0.48313796      -0.81999281      -0.38267704
C        1.42673586      -0.68706086       0.79220466
O        1.43428213       0.57775743       1.40773601
H       -2.52580105       0.74182493       0.05131496
H       -1.14572282       1.12173638       1.08592295
H       -1.41651904       1.99054867      -0.43101316
H       -1.47437067      -1.32191005      -1.06896532
H       -0.22261546       0.38547403      -1.91816282
H        0.88637290      -1.44183842      -1.18192303
H        2.44049229      -0.94477786       0.45439876
H        1.15025428      -1.40667390       1.56562418
H        1.49524362       1.23149892       0.70562427
15
Frame=6 idx=003105 GeodesicLength=0.373842906989322 rxn_smarts="[C:1]([C@@:2]1([H:10])[N:3]([H:11])[C@:4]1([C:5]([O:6][H:15])([H:13])[H:14])[H:12])([H:7])([H:8])[H:9]>>[C:1]([N+:3]1([H:11])[C-:2]([H:10])[C@@:4]1([C:5]([O:6][H:15])([H:13])[H:14])[H:12])([H:7])([H:8])[H:9]"
C       -1.47115711       0.99725298       0.07628728
C       -0.97358798      -0.84192930      -0.25336919
N       -0.09862362       0.39625470      -0.92587259
C        0.48792585      -0.81658878      -0.38904887
C        1.41075914      -0.67742122       0.80067747
O        1.45676182       0.60633843       1.37450649
H       -2.53118507       0.73949513       0.07292192
H       -1.14286437       1.08294251       1.10419784
H       -1.41926330       1.98982669      -0.38414859
H       -1.46418748      -1.32936102      -1.10071545
H       -0.21823632       0.39198644      -1.92902177
H        0.90950329      -1.43039063      -1.18513162
H        2.42034461      -0.98472967       0.49370486
H        1.09362062      -1.35857373       1.59309203
H        1.54018993       1.23489747       0.65192020
15
Frame=7 idx=003105 GeodesicLength=0.43709618899394254 rxn_smarts="[C:1]([C@@:2]1([H:10])[N:3]([H:11])[C@:4]1([C:5]([O:6][H:15])([H:13])[H:14])[H:12])([H:7])([H:8])[H:9]>>[C:1]([N+:3]1([H:11])[C-:2]([H:10])[C@@:4]1([C:5]([O:6][H:15])([H:13])[H:14])[H:12])([H:7])([H:8])[H:9]"
C       -1.47275934       0.98207010       0.09314897
C       -0.97168409      -0.84328596      -0.28383175
N       -0.11005462       0.39130017      -0.93509639
C        0.49237271      -0.81313039      -0.39514911
C        1.39463159      -0.66706572       0.80873799
O        1.47933787       0.63281094       1.34113960
H       -2.53604291       0.73674245       0.09528470
H       -1.13932650       1.04442103       1.12136481
H       -1.42155760       1.98775983      -0.33752126
H       -1.45392167      -1.33640807      -1.13178465
H       -0.21324745       0.39857975      -1.93960821
H        0.93218426      -1.41881397      -1.18764512
H        2.39762128      -1.02219028       0.53397639
H        1.03796307      -1.30804029       1.61767805
H        1.58448341       1.23525040       0.59930598
15
Frame=8 idx=003105 GeodesicLength=0.5007297116656054 rxn_smarts="[C:1]([C@@:2]1([H:10])[N:3]([H:11])[C@:4]1([C:5]([O:6][H:15])([H:13])[H:14])[H:12])([H:7])([H:8])[H:9]>>[C:1]([N+:3]1([H:11])[C-:2]([H:10])[C@@:4]1([C:5]([O:6][H:15])([H:13])[H:14])[H:12])([H:7])([H:8])[H:9]"
C       -1.47409169       0.96666394       0.10950613
C       -0.96973896      -0.84405438      -0.31363440
N       -0.12111069       0.38646706      -0.94436807
C        0.49647040      -0.80964307      -0.40094628
C        1.37846945      -0.65609162       0.81635560
O        1.50183296       0.65707759       1.30796628
H       -2.54040724       0.73362207       0.11824658
H       -1.13525153       1.00644715       1.13737131
H       -1.42347695       1.98442777      -0.29141781
H       -1.44361760      -1.34307135      -1.16197976
H       -0.20769859       0.40518803      -1.94988964
H        0.95429610      -1.40720320      -1.18945717
H        2.37256074      -1.05688340       0.57477687
H        0.98373282      -1.25561209       1.63925920
H        1.62803079       1.23266549       0.54821116
15
Frame=9 idx=003105 GeodesicLength=0.5647683628198801 rxn_smarts="[C:1]([C@@:2]1([H:10])[N:3]([H:11])[C@:4]1([C:5]([O:6][H:15])([H:13])[H:14])[H:12])([H:7])([H:8])[H:9]>>[C:1]([N+:3]1([H:11])[C-:2]([H:10])[C@@:4]1([C:5]([O:6][H:15])([H:13])[H:14])[H:12])([H:7])([H:8])[H:9]"
C       -1.47523620       0.95113071       0.12526760
C       -0.96776750      -0.84422663      -0.34267185
N       -0.13178784       0.38175865      -0.95365195
C        0.50022558      -0.80613987      -0.40642126
C        1.36237717      -0.64458438       0.82350104
O        1.52413079       0.67912921       1.27522637
H       -2.54434463       0.73018768       0.14163910
H       -1.13081637       0.96920580       1.15219669
H       -1.42508462       1.97993222      -0.24602265
H       -1.43332799      -1.34937138      -1.19115289
H       -0.20163357       0.41176196      -1.95982137
H        0.97575761      -1.39563852      -1.19056556
H        2.34544250      -1.08866874       0.61573777
H        0.93127334      -1.20177659       1.65780034
H        1.67079174       1.22729990       0.49893862
15
Frame=10 idx=003105 GeodesicLength=0.6292163043841178 rxn_smarts="[C:1]([C@@:2]1([H:10])[N:3]([H:11])[C@:4]1([C:5]([O:6][H:15])([H:13])[H:14])[H:12])([H:7])([H:8])[H:9]>>[C:1]([N+:3]1([H:11])[C-:2]([H:10])[C@@:4]1([C:5]([O:6][H:15])([H:13])[H:14])[H:12])([H:7])([H:8])[H:9]"
C       -1.47626419       0.93555972       0.14035992
C       -0.96578002      -0.84380661      -0.37086189
N       -0.14209516       0.37717616      -0.96292473
C        0.50364426      -0.80262571      -0.41156228
C        1.34644575      -0.63262409       0.83016358
O        1.54612873       0.69900683       1.24313615
H       -2.54790750       0.72649725       0.16529754
H       -1.12618085       0.93284821       1.16584949
H       -1.42643865       1.97437601      -0.20149813
H       -1.42309869      -1.35533268      -1.21919009
H       -0.19512328       0.41825457      -1.96938060
H        0.99649235      -1.38418444      -1.19098520
H        2.31655955      -1.11746064       0.65651134
H        0.88087663      -1.14701876       1.67334715
H        1.71274106       1.21933418       0.45173776
15
Frame=11 idx=003105 GeodesicLength=0.6940855304692667 rxn_smarts="[C:1]([C@@:2]1([H:10])[N:3]([H:11])[C@:4]1([C:5]([O:6][H:15])([H:13])[H:14])[H:12])([H:7])([H:8])[H:9]>>[C:1]([N+:3]1([H:11])[C-:2]([H:10])[C@@:4]1([C:5]([O:6][H:15])([H:13])[H:14])[H:12])([H:7])([H:8])[H:9]"
C       -1.47724871       0.92001979       0.15474227
C       -0.96378778      -0.84281372      -0.39815868
N       -0.15203867       0.37272244      -0.97216724
C        0.50674496      -0.79909776      -0.41637215
C        1.33074209      -0.62027391       0.83633375
O        1.56776949       0.71680732       1.21182343
H       -2.55116059       0.72259874       0.18908927
H       -1.12150875       0.89745716       1.17836593
H       -1.42759490       1.96786168      -0.15792432
H       -1.41296525      -1.36097704      -1.24602386
H       -0.18822003       0.42463598      -1.97854743
H        1.01646461      -1.37289119      -1.19074571
H        2.28619075      -1.14327278       0.69683682
H        0.83271672      -1.09173625       1.68600835
H        1.75389606       1.20895955       0.40673956
15
Frame=12 idx=003105 GeodesicLength=0.7593509022179991 rxn_smarts="[C:1]([C@@:2]1([H:10])[N:3]([H:11])[C@:4]1([C:5]([O:6][H:15])([H:13])[H:14])[H:12])([H:7])([H:8])[H:9]>>[C:1]([N+:3]1([H:11])[C-:2]([H:10])[C@@:4]1([C:5]([O:6][H:15])([H:13])[H:14])[H:12])([H:7])([H:8])[H:9]"
C       -1.47824855       0.90457916       0.16837873
C       -0.96179910      -0.84127335      -0.42453059
N       -0.16164245       0.36839952      -0.98137383
C        0.50953934      -0.79555040      -0.42085287
C        1.31532994      -0.60759434       0.84202290
O        1.58899665       0.73264559       1.18142075
H       -2.55415003       0.71854895       0.21287802
H       -1.11692718       0.86310366       1.18979240
H       -1.42860208       1.96049066      -0.11539264
H       -1.40296236      -1.36633364      -1.27160828
H       -0.18101523       0.43087789      -1.98732693
H        1.03563258      -1.36179500      -1.18988258
H        2.25461944      -1.16613560       0.73645938
H        0.78696019      -1.03633322       1.69594823
H        1.79426883       1.19637011       0.36406730
15
Frame=13 idx=003105 GeodesicLength=0.825012505686355 rxn_smarts="[C:1]([C@@:2]1([H:10])[N:3]([H:11])[C@:4]1([C:5]([O:6][H:15])([H:13])[H:14])[H:12])([H:7])([H:8])[H:9]>>[C:1]([N+:3]1([H:11])[C-:2]([H:10])[C@@:4]1([C:5]([O:6][H:15])([H:13])[H:14])[H:12])([H:7])([H:8])[H:9]"
C       -1.47931969       0.88928290       0.18126275
C       -0.95981827      -0.83921683      -0.44997542
N       -0.17092124       0.36420808      -0.99053665
C        0.51204936      -0.79197256      -0.42501838
C        1.30024558      -0.59462489       0.84723293
O        1.60979018       0.74666253       1.15197149
H       -2.55692554       0.71438829       0.23657293
H       -1.11255793       0.82980315       1.20018779
H       -1.42950723       1.95234921      -0.07391711
H       -1.39310571      -1.37141965      -1.29593396
H       -0.17356352       0.43696582      -1.99571673
H        1.05399370      -1.35091869      -1.18843971
H        2.22208238      -1.18615203       0.77521416
H        0.74366388      -0.98109823       1.70335588
H        1.83389405       1.18174290       0.32374003
15
Frame=14 idx=003105 GeodesicLength=0.8909825673670223 rxn_smarts="[C:1]([C@@:2]1([H:10])[N:3]([H:11])[C@:4]1([C:5]([O:6][H:15])([H:13])[H:14])[H:12])([H:7])([H:8])[H:9]>>[C:1]([N+:3]1([H:11])[C-:2]([H:10])[C@@:4]1([C:5]([O:6][H:15])([H:13])[H:14])[H:12])([H:7])([H:8])[H:9]"
C       -1.48053609       0.87415436       0.19338200
C       -0.95790694      -0.83671405      -0.47453417
N       -0.17992105       0.36017316      -0.99968883
C        0.51428195      -0.78836290      -0.42888138
C        1.28555833      -0.58139769       0.85201639
O        1.63024766       0.75904169       1.12350053
H       -2.55959442       0.71013888       0.26004616
H       -1.10851434       0.79747293       1.20963945
H       -1.43031793       1.94355095      -0.03345579
H       -1.38349850      -1.37628610      -1.31907164
H       -0.16594160       0.44295465      -2.00378729
H        1.07153579      -1.34027683      -1.18646684
H        2.18883200      -1.20347230       0.81306511
H        0.70288478      -0.92627118       1.70852485
H        1.87289035       1.16529442       0.28571145
15
Frame=15 idx=003105 GeodesicLength=0.9574470146415263 rxn_smarts="[C:1]([C@@:2]1([H:10])[N:3]([H:11])[C@:4]1([C:5]([O:6][H:15])([H:13])[H:14])[H:12])([H:7])([H:8])[H:9]>>[C:1]([N+:3]1([H:11])[C-:2]([H:10])[C@@:4]1([C:5]([O:6][H:15])([H:13])[H:14])[H:12])([H:7])([H:8])[H:9]"
C       -1.48184276       0.85925741       0.20478657
C       -0.95591544      -0.83370805      -0.49814503
N       -0.18860119       0.35622070      -1.00875006
C        0.51628166      -0.78467076      -0.43246895
C        1.27116817      -0.56791747       0.85627416
O        1.65003546       0.76984975       1.09601592
H       -2.56199791       0.70590428       0.28332794
H       -1.10484273       0.76626218       1.21815508
H       -1.43107198       1.93406461       0.00592183
H       -1.37391363      -1.38088896      -1.34086460
H       -0.15819442       0.44864361      -2.01140166
H        1.08829101      -1.32986793      -1.18400215
H        2.15497582      -1.21806987       0.84962089
H        0.66452022      -0.87211037       1.71144043
H        1.91110772       1.14703087       0.25008962
15
Frame=16 idx=003105 GeodesicLength=1.0240488234239458 rxn_smarts="[C:1]([C@@:2]1([H:10])[N:3]([H:11])[C@:4]1([C:5]([O:6][H:15])([H:13])[H:14])[H:12])([H:7])([H:8])[H:9]>>[C:1]([N+:3]1([H:11])[C-:2]([H:10])[C@@:4]1([C:5]([O:6][H:15])([H:13])[H:14])[H:12])([H:7])([H:8])[H:9]"
C       -1.48334095       0.84462657       0.21543014
C       -0.95399688      -0.83031626      -0.52087384
N       -0.19703387       0.35241647      -1.01782120
C        0.51804791      -0.78092176      -0.43579542
C        1.25724120      -0.55425987       0.86011924
O        1.66941807       0.77928084       1.06961964
H       -2.56433495       0.70167647       0.30627411
H       -1.10158062       0.73608216       1.22582484
H       -1.43181494       1.92407672       0.04416076
H       -1.36464146      -1.38531455      -1.36144715
H       -0.15043223       0.45417423      -2.01875598
H        1.10422465      -1.31972870      -1.18111668
H        2.12088230      -1.23017776       0.88498945
H        0.62870143      -0.81893357       1.71253164
H        1.94866033       1.12731903       0.21686045
