16
Frame=0 idx=006151 GeodesicLength=0.0 rxn_smarts="[O:1]([C:2]([C:3]1([H:10])[C:4]([H:11])([H:12])[C:5]([H:13])([H:14])[C:6]1([H:15])[H:16])([H:8])[H:9])[H:7]>>[C:5](=[C:6]([H:15])[H:16])([H:13])[H:14].[O:1]([C:2]([C:3](=[C:4]([H:11])[H:12])[H:10])([H:8])[H:9])[H:7]"
O        2.33586512       0.35770920       0.40144756
C        1.32517867      -0.56938471       0.65239942
C        0.22927396      -0.58797011      -0.37250332
C       -0.90999444      -1.38966509      -0.17973356
C       -1.33481118       0.56301784      -0.19604771
C       -0.25690645       1.51439207      -0.25537415
H        1.86417255       1.16791087       0.15756123
H        1.77239981      -1.56941862       0.60585558
H        0.88516700      -0.46028039       1.65347741
H        0.56578332      -0.44492748      -1.39203033
H       -1.15091321      -1.75887210       0.80699099
H       -1.42894169      -1.81602796      -1.02385118
H       -1.99012071       0.47570514      -1.05453977
H       -1.86253784       0.48423604       0.74616366
H       -0.01261238       2.05005010       0.65222610
H       -0.03100253       1.98352519      -1.20204193
16
Frame=1 idx=006151 GeodesicLength=0.09922646316439573 rxn_smarts="[O:1]([C:2]([C:3]1([H:10])[C:4]([H:11])([H:12])[C:5]([H:13])([H:14])[C:6]1([H:15])[H:16])([H:8])[H:9])[H:7]>>[C:5](=[C:6]([H:15])[H:16])([H:13])[H:14].[O:1]([C:2]([C:3](=[C:4]([H:11])[H:12])[H:10])([H:8])[H:9])[H:7]"
O        2.35148521       0.35034312       0.38165548
C        1.34359190      -0.57848533       0.64439166
C        0.23377719      -0.58964935      -0.36632839
C       -0.91120572      -1.38131863      -0.15894804
C       -1.36109894       0.57822976      -0.22145671
C       -0.26832446       1.51245149      -0.24023019
H        1.87962225       1.16346494       0.14975317
H        1.79273381      -1.57708117       0.59207974
H        0.91711642      -0.46904370       1.65127285
H        0.56707499      -0.46790763      -1.39041151
H       -1.14435419      -1.73729250       0.83512426
H       -1.41925058      -1.84206007      -0.99216927
H       -1.98715955       0.50009135      -1.10266405
H       -1.92817201       0.50336433       0.69816752
H       -0.03363881       2.01910108       0.68687637
H       -0.03219751       2.01579230      -1.16711290
16
Frame=2 idx=006151 GeodesicLength=0.19668063347746695 rxn_smarts="[O:1]([C:2]([C:3]1([H:10])[C:4]([H:11])([H:12])[C:5]([H:13])([H:14])[C:6]1([H:15])[H:16])([H:8])[H:9])[H:7]>>[C:5](=[C:6]([H:15])[H:16])([H:13])[H:14].[O:1]([C:2]([C:3](=[C:4]([H:11])[H:12])[H:10])([H:8])[H:9])[H:7]"
O        2.36664519       0.34325549       0.36164377
C        1.36193591      -0.58758609       0.63612176
C        0.23887158      -0.59195459      -0.36067901
C       -0.91237264      -1.37223692      -0.13801878
C       -1.38672813       0.59338835      -0.24773166
C       -0.28045496       1.50978794      -0.22484110
H        1.89467508       1.15911020       0.14158983
H        1.81316635      -1.58465200       0.57843860
H        0.94881488      -0.47768011       1.64850302
H        0.56848839      -0.49202334      -1.38903038
H       -1.13766082      -1.71395443       0.86349587
H       -1.41023730      -1.86706758      -0.95837431
H       -1.98284421       0.52574890      -1.15060925
H       -1.99173557       0.52150161       0.64786348
H       -0.05628265       1.98613341       0.72126013
H       -0.03428111       2.04822917      -1.12963198
16
Frame=3 idx=006151 GeodesicLength=0.2925480285603732 rxn_smarts="[O:1]([C:2]([C:3]1([H:10])[C:4]([H:11])([H:12])[C:5]([H:13])([H:14])[C:6]1([H:15])[H:16])([H:8])[H:9])[H:7]>>[C:5](=[C:6]([H:15])[H:16])([H:13])[H:14].[O:1]([C:2]([C:3](=[C:4]([H:11])[H:12])[H:10])([H:8])[H:9])[H:7]"
O        2.38133154       0.33644885       0.34146813
C        1.38017461      -0.59665284       0.62765200
C        0.24456046      -0.59492586      -0.35557811
C       -0.91345112      -1.36243946      -0.11707206
C       -1.41164888       0.60851078      -0.27477459
C       -0.29329718       1.50636587      -0.20930119
H        1.90933375       1.15482587       0.13296779
H        1.83368471      -1.59209755       0.56508511
H        0.98014524      -0.48608085       1.64520108
H        0.57006405      -0.51735192      -1.38786537
H       -1.13076113      -1.68896906       0.89190734
H       -1.40194398      -1.89090071      -0.92261902
H       -1.97727799       0.55286766      -1.19815481
H       -2.05300408       0.53857742       0.59554333
H       -0.08052583       1.95120210       0.75511540
H       -0.03738416       2.08061970      -1.08957502
16
Frame=4 idx=006151 GeodesicLength=0.38700315681910613 rxn_smarts="[O:1]([C:2]([C:3]1([H:10])[C:4]([H:11])([H:12])[C:5]([H:13])([H:14])[C:6]1([H:15])[H:16])([H:8])[H:9])[H:7]>>[C:5](=[C:6]([H:15])[H:16])([H:13])[H:14].[O:1]([C:2]([C:3](=[C:4]([H:11])[H:12])[H:10])([H:8])[H:9])[H:7]"
O        2.39554024       0.32991701       0.32119041
C        1.39826974      -0.60564638       0.61905882
C        0.25084071      -0.59859709      -0.35103742
C       -0.91439478      -1.35196468      -0.09625065
C       -1.43582034       0.62361945      -0.30246517
C       -0.30684033       1.50216079      -0.19371945
H        1.92361137       1.15058586       0.12376577
H        1.85427198      -1.59938184       0.55219689
H        1.01098180      -0.49411819       1.64141575
H        0.57184863      -0.54396602      -1.38687815
H       -1.12358641      -1.66249645       0.92013818
H       -1.39439246      -1.91341852      -0.88510950
H       -1.97060303       0.58165028      -1.24505277
H       -2.11178002       0.55453155       0.54154551
H       -0.10631421       1.91440448       0.78816508
H       -0.04163289       2.11271974      -1.04696332
16
Frame=5 idx=006151 GeodesicLength=0.4802102431019475 rxn_smarts="[O:1]([C:2]([C:3]1([H:10])[C:4]([H:11])([H:12])[C:5]([H:13])([H:14])[C:6]1([H:15])[H:16])([H:8])[H:9])[H:7]>>[C:5](=[C:6]([H:15])[H:16])([H:13])[H:14].[O:1]([C:2]([C:3](=[C:4]([H:11])[H:12])[H:10])([H:8])[H:9])[H:7]"
O        2.40927786       0.32364499       0.30087419
C        1.41618351      -0.61452371       0.61042966
C        0.25770212      -0.60299331      -0.34705418
C       -0.91515682      -1.34087033      -0.07570612
C       -1.45921303       0.63874168      -0.33066698
C       -0.32106040       1.49716090      -0.17821411
H        1.93753220       1.14635932       0.11384622
H        1.87490741      -1.60646677       0.53996828
H        1.04119866      -0.50165087       1.63720922
H        0.57389168      -0.57192838      -1.38600960
H       -1.11607403      -1.63474319       0.94795765
H       -1.38758466      -1.93449818      -0.84609482
H       -1.96299446       0.61230756      -1.29104207
H       -2.16791154       0.56931690       0.48623529
H       -0.13355439       1.87587566       0.82013077
H       -0.04714409       2.14426773      -1.00186339
16
Frame=6 idx=006151 GeodesicLength=0.5723198346736021 rxn_smarts="[O:1]([C:2]([C:3]1([H:10])[C:4]([H:11])([H:12])[C:5]([H:13])([H:14])[C:6]1([H:15])[H:16])([H:8])[H:9])[H:7]>>[C:5](=[C:6]([H:15])[H:16])([H:13])[H:14].[O:1]([C:2]([C:3](=[C:4]([H:11])[H:12])[H:10])([H:8])[H:9])[H:7]"
O        2.42255503       0.31760462       0.28058251
C        1.43387668      -0.62324169       0.60186067
C        0.26512541      -0.60812956      -0.34361078
C       -0.91568914      -1.32923269      -0.05559719
C       -1.48181145       0.65391629      -0.35922718
C       -0.33592785       1.49137309      -0.16291508
H        1.95112007       1.14211083       0.10307050
H        1.89556736      -1.61331708       0.52860426
H        1.07067121      -0.50852955       1.63265377
H        0.57624367      -0.60129292      -1.38517985
H       -1.10817015      -1.60595840       0.97512736
H       -1.38148414      -1.95403739      -0.80587372
H       -1.95466442       0.64505137      -1.33583342
H       -2.22127479       0.58290864       0.43000431
H       -0.16213180       1.83580030       0.85073306
H       -0.05400571       2.17497412      -0.95439922
16
Frame=7 idx=006151 GeodesicLength=0.6634779569359592 rxn_smarts="[O:1]([C:2]([C:3]1([H:10])[C:4]([H:11])([H:12])[C:5]([H:13])([H:14])[C:6]1([H:15])[H:16])([H:8])[H:9])[H:7]>>[C:5](=[C:6]([H:15])[H:16])([H:13])[H:14].[O:1]([C:2]([C:3](=[C:4]([H:11])[H:12])[H:10])([H:8])[H:9])[H:7]"
O        2.43539582       0.31176072       0.26037512
C        1.45131562      -0.63175605       0.59345224
C        0.27308625      -0.61400942      -0.34067523
C       -0.91594826      -1.31714524      -0.03607958
C       -1.50361688       0.66918673      -0.38798874
C       -0.35139973       1.48481889      -0.14795329
H        1.96441128       1.13780230       0.09129690
H        1.91622808      -1.61989648       0.51831022
H        1.09928626      -0.51460230       1.62783068
H        0.57895683      -0.63209704      -1.38428999
H       -1.09983518      -1.57642574       1.00141976
H       -1.37603818      -1.97196953      -0.76476761
H       -1.94584992       0.68008946      -1.37914174
H       -2.27181092       0.59530166       0.37323730
H       -0.19189591       1.79439065       0.87971529
H       -0.06228518       2.20455137      -0.90474131
16
Frame=8 idx=006151 GeodesicLength=0.7538403865973716 rxn_smarts="[O:1]([C:2]([C:3]1([H:10])[C:4]([H:11])([H:12])[C:5]([H:13])([H:14])[C:6]1([H:15])[H:16])([H:8])[H:9])[H:7]>>[C:5](=[C:6]([H:15])[H:16])([H:13])[H:14].[O:1]([C:2]([C:3](=[C:4]([H:11])[H:12])[H:10])([H:8])[H:9])[H:7]"
O        2.44783718       0.30606842       0.24030972
C        1.46847543      -0.64002673       0.58530818
C        0.28155796      -0.62062653      -0.33820454
C       -0.91589473      -1.30471684      -0.01730346
C       -1.52465197       0.68460585      -0.41679427
C       -0.36742615       1.47753909      -0.13346163
H        1.97745051       1.13339338       0.07839502
H        1.93687203      -1.62617524       0.50928755
H        1.12694661      -0.51972310       1.62283168
H        0.58208679      -0.66436387      -1.38322885
H       -1.09104387      -1.54645722       1.02662638
H       -1.37117212      -1.98826556      -0.72311954
H       -1.93682225       0.71762376      -1.42068546
H       -2.31951878       0.60651624       0.31630709
H       -0.22267299       1.75189135       0.90684899
H       -0.07202365       2.23271697      -0.85311685
16
Frame=9 idx=006151 GeodesicLength=0.8434516634443519 rxn_smarts="[O:1]([C:2]([C:3]1([H:10])[C:4]([H:11])([H:12])[C:5]([H:13])([H:14])[C:6]1([H:15])[H:16])([H:8])[H:9])[H:7]>>[C:5](=[C:6]([H:15])[H:16])([H:13])[H:14].[O:1]([C:2]([C:3](=[C:4]([H:11])[H:12])[H:10])([H:8])[H:9])[H:7]"
O        2.45990562       0.30048553       0.22044777
C        1.48531227      -0.64800259       0.57752871
C        0.29050384      -0.62795706      -0.33614595
C       -0.91549748      -1.29206930       0.00057689
C       -1.54494158       0.70022000      -0.44546967
C       -0.38393384       1.46958335      -0.11958298
H        1.99028156       1.12884617       0.06425479
H        1.95744634      -1.63210560       0.50173285
H        1.15353960      -0.52373708       1.61772895
H        0.58569079      -0.69808422      -1.38186291
H       -1.08179862      -1.51639761       1.05052506
H       -1.36679139      -2.00291778      -0.68130329
H       -1.92786209       0.75778186      -1.46013032
H       -2.36439144       0.61659082       0.25960339
H       -0.25426427       1.70857963       0.93190883
H       -0.08319930       2.25918388      -0.79981213
16
Frame=10 idx=006151 GeodesicLength=0.9324935376606135 rxn_smarts="[O:1]([C:2]([C:3]1([H:10])[C:4]([H:11])([H:12])[C:5]([H:13])([H:14])[C:6]1([H:15])[H:16])([H:8])[H:9])[H:7]>>[C:5](=[C:6]([H:15])[H:16])([H:13])[H:14].[O:1]([C:2]([C:3](=[C:4]([H:11])[H:12])[H:10])([H:8])[H:9])[H:7]"
O        2.47166619       0.29495105       0.20084386
C        1.50182645      -0.65565550       0.57021684
C        0.29990432      -0.63597770      -0.33444176
C       -0.91472537      -1.27932657       0.01743602
C       -1.56455565       0.71609651      -0.47387779
C       -0.40086536       1.46101796      -0.10644652
H        2.00296855       1.12410920       0.04878298
H        1.97795438      -1.63766910       0.49582888
H        1.17900965      -0.52652379       1.61262419
H        0.58983687      -0.73325227      -1.38006323
H       -1.07210159      -1.48658032       1.07296823
H       -1.36279570      -2.01596689      -0.63967012
H       -1.91930857       0.80075758      -1.49722116
H       -2.40654588       0.62558634       0.20343275
H       -0.28646460       1.66472644       0.95473974
H       -0.09580368       2.28370707      -0.74515291
16
Frame=11 idx=006151 GeodesicLength=1.0210388351653596 rxn_smarts="[O:1]([C:2]([C:3]1([H:10])[C:4]([H:11])([H:12])[C:5]([H:13])([H:14])[C:6]1([H:15])[H:16])([H:8])[H:9])[H:7]>>[C:5](=[C:6]([H:15])[H:16])([H:13])[H:14].[O:1]([C:2]([C:3](=[C:4]([H:11])[H:12])[H:10])([H:8])[H:9])[H:7]"
O        2.48316990       0.28941250       0.18154703
C        1.51800359      -0.66295007       0.56346072
C        0.30973380      -0.64465262      -0.33303093
C       -0.91355722      -1.26661271       0.03315929
C       -1.58356397       0.73229357      -0.50188498
C       -0.41814758       1.45190964      -0.09418057
H        2.01557042       1.11913588       0.03191898
H        1.99836897      -1.64283052       0.49173393
H        1.20329748      -0.52796741       1.60758885
H        0.59459031      -0.76983861      -1.37768632
H       -1.06198109      -1.45733006       1.09381610
H       -1.35907527      -2.02747737      -0.59856289
H       -1.91148544       0.84666875      -1.53167196
H       -2.44609195       0.63357621       0.14807821
H       -0.31906741       1.62060144       0.97520497
H       -0.10976453       2.30606137      -0.68949042
16
Frame=12 idx=006151 GeodesicLength=1.1091797267033074 rxn_smarts="[O:1]([C:2]([C:3]1([H:10])[C:4]([H:11])([H:12])[C:5]([H:13])([H:14])[C:6]1([H:15])[H:16])([H:8])[H:9])[H:7]>>[C:5](=[C:6]([H:15])[H:16])([H:13])[H:14].[O:1]([C:2]([C:3](=[C:4]([H:11])[H:12])[H:10])([H:8])[H:9])[H:7]"
O        2.49448138       0.28381392       0.16260280
C        1.53384714      -0.66986111       0.55733885
C        0.31997629      -0.65394275      -0.33185562
C       -0.91197678      -1.25404397       0.04765317
C       -1.60206019       0.74887445      -0.52938286
C       -0.43571433       1.44232952      -0.08290200
H        2.02815572       1.11387622       0.01363862
H        2.01868100      -1.64756276       0.48957854
H        1.22637308      -0.52797885       1.60269066
H        0.60002244      -0.80780657      -1.37459501
H       -1.05147731      -1.42893812       1.11297241
H       -1.35552180      -2.03754219      -0.55829454
H       -1.90473438       0.89561614      -1.56322190
H       -2.48319270       0.64065020       0.09376091
H       -0.35187843       1.57646027       0.99321593
H       -0.12498114       2.32605557      -0.63319995
16
Frame=13 idx=006151 GeodesicLength=1.1969482072337425 rxn_smarts="[O:1]([C:2]([C:3]1([H:10])[C:4]([H:11])([H:12])[C:5]([H:13])([H:14])[C:6]1([H:15])[H:16])([H:8])[H:9])[H:7]>>[C:5](=[C:6]([H:15])[H:16])([H:13])[H:14].[O:1]([C:2]([C:3](=[C:4]([H:11])[H:12])[H:10])([H:8])[H:9])[H:7]"
O        2.50565643       0.27810319       0.14405513
C        1.54935380      -0.67636501       0.55191676
C        0.33061875      -0.66380403      -0.33086201
C       -0.90997177      -1.24172688       0.06083778
C       -1.62014246       0.76589885      -0.55627524
C       -0.45349486       1.43234367      -0.07272757
H        2.04079089       1.10827720      -0.00605635
H        2.03886432      -1.65183306       0.48947058
H        1.24820556      -0.52648668       1.59797387
H        0.60620847      -0.84710307      -1.37065022
H       -1.04064687      -1.40166295       1.13035888
H       -1.35202141      -2.04626891      -0.51915392
H       -1.89937343       0.94763971      -1.59159794
H       -2.51800648       0.64691015       0.04067547
H       -0.38471705       1.53253730       1.00870181
H       -0.14132388       2.34354050      -0.57666702
16
Frame=14 idx=006151 GeodesicLength=1.284437771706356 rxn_smarts="[O:1]([C:2]([C:3]1([H:10])[C:4]([H:11])([H:12])[C:5]([H:13])([H:14])[C:6]1([H:15])[H:16])([H:8])[H:9])[H:7]>>[C:5](=[C:6]([H:15])[H:16])([H:13])[H:14].[O:1]([C:2]([C:3](=[C:4]([H:11])[H:12])[H:10])([H:8])[H:9])[H:7]"
O        2.51677817       0.27222215       0.12595577
C        1.56454904      -0.68244995       0.54725786
C        0.34166977      -0.67419744      -0.33000613
C       -0.90752943      -1.22975372       0.07264751
C       -1.63793894       0.78342887      -0.58249841
C       -0.47143283       1.42201416      -0.06376802
H        2.05356585       1.10227735      -0.02712524
H        2.05892674      -1.65561935       0.49150917
H        1.26879722      -0.52344117       1.59348843
H        0.61323638      -0.88768726      -1.36572440
H       -1.02954567      -1.37571929       1.14593681
H       -1.34848121      -2.05377524      -0.48140129
H       -1.89578907       1.00281749      -1.61655278
H       -2.55074997       0.65244959      -0.01105122
H       -0.41740771       1.48903889       1.02163165
H       -0.15864833       2.35839493      -0.52029973
16
Frame=15 idx=006151 GeodesicLength=1.3716846879981006 rxn_smarts="[O:1]([C:2]([C:3]1([H:10])[C:4]([H:11])([H:12])[C:5]([H:13])([H:14])[C:6]1([H:15])[H:16])([H:8])[H:9])[H:7]>>[C:5](=[C:6]([H:15])[H:16])([H:13])[H:14].[O:1]([C:2]([C:3](=[C:4]([H:11])[H:12])[H:10])([H:8])[H:9])[H:7]"
O        2.52791977       0.26611626       0.10835498
C        1.57944974      -0.68810498       0.54341302
C        0.35314245      -0.68508441      -0.32925167
C       -0.90463787      -1.21820178       0.08302634
C       -1.65557728       0.80152006      -0.60800359
C       -0.48947161       1.41139065      -0.05613693
H        2.06656931       1.09581003      -0.04951137
H        2.07885771      -1.65889270       0.49577713
H        1.28814477      -0.51880583       1.58925862
H        0.62119709      -0.92951203      -1.35968996
H       -1.01824057      -1.35127252       1.15967672
H       -1.34480762      -2.06018251      -0.44526653
H       -1.89433562       1.06117722      -1.63781519
H       -2.58162193       0.65736521      -0.06131807
H       -0.44979738       1.44613629       1.03198019
H       -0.17679097       2.37054104      -0.46449371
16
Frame=16 idx=006151 GeodesicLength=1.458729110645495 rxn_smarts="[O:1]([C:2]([C:3]1([H:10])[C:4]([H:11])([H:12])[C:5]([H:13])([H:14])[C:6]1([H:15])[H:16])([H:8])[H:9])[H:7]>>[C:5](=[C:6]([H:15])[H:16])([H:13])[H:14].[O:1]([C:2]([C:3](=[C:4]([H:11])[H:12])[H:10])([H:8])[H:9])[H:7]"
O        2.53916255       0.25972975       0.09130790
C        1.59408070      -0.69332465       0.54042649
C        0.36506269      -0.69643063      -0.32857274
C       -0.90128357      -1.20713137       0.09192477
C       -1.67319793       0.82022717      -0.63276265
C       -0.50756417       1.40051276      -0.04994902
H        2.07990243       1.08880251      -0.07313396
H        2.09865223      -1.66162532       0.50234684
H        1.30625404      -0.51255999       1.58529824
H        0.63018775      -0.97253519      -1.35242595
H       -1.00680189      -1.32843437       1.17156386
H       -1.34091937      -2.06561057      -0.41095118
H       -1.89538019       1.12273450      -1.65510039
H       -2.61083475       0.66174705      -0.11006491
H       -0.48175067       1.40396863       1.03973542
H       -0.19556982       2.37992973      -0.40964272
