14
Frame=0 idx=000564 GeodesicLength=0.0 rxn_smarts="[C:1]1([H:7])([H:8])[C@@:2]2([H:9])[C:3]([H:10])([H:11])[C:4]([H:12])([H:13])[O:5][C@@:6]12[H:14]>>[C:1]1([H:7])([H:8])[C:2]([H:9])([H:14])[C:3]([H:10])([H:11])[C:4]([H:12])([H:13])[O+:5]=[C-:6]1"
C        1.37124816      -0.04321952      -0.56964121
C        0.69911736       0.23806098       0.73950559
C       -0.74420492       0.65416384       0.59397629
C       -1.29160975      -0.17958392      -0.57001236
O       -0.59797385      -1.43002765      -0.53551660
C        0.72862652      -1.36514913      -0.21217166
H        0.99092126       0.49240878      -1.43240939
H        2.45471199      -0.07160337      -0.54873353
H        1.28835854       0.61780185       1.56812984
H       -0.82792429       1.71850434       0.36416058
H       -1.29687794       0.46296117       1.51521002
H       -1.13821833       0.32154580      -1.52934678
H       -2.35284678      -0.40364849      -0.47287050
H        0.71667199      -1.01221471       1.08971974
14
Frame=1 idx=000564 GeodesicLength=0.07103370311673371 rxn_smarts="[C:1]1([H:7])([H:8])[C@@:2]2([H:9])[C:3]([H:10])([H:11])[C:4]([H:12])([H:13])[O:5][C@@:6]12[H:14]>>[C:1]1([H:7])([H:8])[C:2]([H:9])([H:14])[C:3]([H:10])([H:11])[C:4]([H:12])([H:13])[O+:5]=[C-:6]1"
C        1.37937421      -0.04751482      -0.56697378
C        0.69738611       0.24002196       0.73610594
C       -0.74784752       0.65103335       0.59489218
C       -1.29856556      -0.17629645      -0.57032748
O       -0.59905428      -1.42446723      -0.55661656
C        0.72245560      -1.36294722      -0.22037169
H        1.01750119       0.49138685      -1.43545477
H        2.46230336      -0.09591737      -0.53401762
H        1.28570611       0.64774326       1.55185919
H       -0.83750836       1.71637769       0.37206566
H       -1.29770176       0.45365390       1.51663220
H       -1.15804612       0.33221938      -1.52756443
H       -2.35709608      -0.40958499      -0.46273521
H        0.73109310      -1.01570831       1.10250638
14
Frame=2 idx=000564 GeodesicLength=0.1420681182948162 rxn_smarts="[C:1]1([H:7])([H:8])[C@@:2]2([H:9])[C:3]([H:10])([H:11])[C:4]([H:12])([H:13])[O:5][C@@:6]12[H:14]>>[C:1]1([H:7])([H:8])[C:2]([H:9])([H:14])[C:3]([H:10])([H:11])[C:4]([H:12])([H:13])[O+:5]=[C-:6]1"
C        1.38762956      -0.05203353      -0.56415438
C        0.69568864       0.24206062       0.73265246
C       -0.75148128       0.64789418       0.59578337
C       -1.30565918      -0.17295399      -0.57059998
O       -0.60003937      -1.41834491      -0.57842006
C        0.71609749      -1.36061572      -0.22858163
H        1.04495488       0.49008735      -1.43823521
H        2.46952084      -0.12061555      -0.51884204
H        1.28264245       0.67782260       1.53469584
H       -0.84715725       1.71418516       0.38008997
H       -1.29837675       0.44420732       1.51803676
H       -1.17859683       0.34314961      -1.52547742
H       -2.36117279      -0.41594735      -0.45240593
H        0.74594960      -1.01889579       1.11545827
14
Frame=3 idx=000564 GeodesicLength=0.21309145329751855 rxn_smarts="[C:1]1([H:7])([H:8])[C@@:2]2([H:9])[C:3]([H:10])([H:11])[C:4]([H:12])([H:13])[O:5][C@@:6]12[H:14]>>[C:1]1([H:7])([H:8])[C:2]([H:9])([H:14])[C:3]([H:10])([H:11])[C:4]([H:12])([H:13])[O+:5]=[C-:6]1"
C        1.39601563      -0.05678116      -0.56117578
C        0.69402677       0.24418754       0.72913944
C       -0.75510547       0.64475316       0.59664594
C       -1.31289362      -0.16955676      -0.57082630
O       -0.60090884      -1.41160418      -0.60095884
C        0.70954464      -1.35814099      -0.23681578
H        1.07331952       0.48847862      -1.44072261
H        2.47633713      -0.14570530      -0.50319808
H        1.27916298       0.70800484       1.51661044
H       -0.85687351       1.71192953       0.38823067
H       -1.29889580       0.43462832       1.51941898
H       -1.19991084       0.35433936      -1.52305241
H       -2.36504923      -0.42277968      -0.44187739
H        0.76123064      -1.02175330       1.12858172
14
Frame=4 idx=000564 GeodesicLength=0.28409814959187335 rxn_smarts="[C:1]1([H:7])([H:8])[C@@:2]2([H:9])[C:3]([H:10])([H:11])[C:4]([H:12])([H:13])[O:5][C@@:6]12[H:14]>>[C:1]1([H:7])([H:8])[C:2]([H:9])([H:14])[C:3]([H:10])([H:11])[C:4]([H:12])([H:13])[O+:5]=[C-:6]1"
C        1.40453480      -0.06176396      -0.55802825
C        0.69240281       0.24641254       0.72556105
C       -0.75871842       0.64161788       0.59747575
C       -1.32027182      -0.16610647      -0.57100174
O       -0.60164068      -1.40418358      -0.62426181
C        0.70279112      -1.35550789      -0.24509440
H        1.10263193       0.48653004      -1.44288674
H        2.48271802      -0.17119356      -0.48707646
H        1.27526287       0.73825240       1.49756719
H       -0.86665859       1.70961400       0.39648459
H       -1.29925074       0.42492634       1.52077433
H       -1.22203057       0.36578962      -1.52025194
H       -2.36869069      -0.43012920      -0.43114737
H        0.77691997      -1.02425816       1.14188580
14
Frame=5 idx=000564 GeodesicLength=0.3550750766451598 rxn_smarts="[C:1]1([H:7])([H:8])[C@@:2]2([H:9])[C:3]([H:10])([H:11])[C:4]([H:12])([H:13])[O:5][C@@:6]12[H:14]>>[C:1]1([H:7])([H:8])[C:2]([H:9])([H:14])[C:3]([H:10])([H:11])[C:4]([H:12])([H:13])[O+:5]=[C-:6]1"
C        1.41318704      -0.06698381      -0.55470584
C        0.69081814       0.24874713       0.72190922
C       -0.76231934       0.63849995       0.59826644
C       -1.32779798      -0.16260691      -0.57111990
O       -0.60221114      -1.39602164      -0.64835155
C        0.69583092      -1.35269891      -0.25344201
H        1.13292401       0.48421397      -1.44469749
H        2.48864120      -0.19708342      -0.47047207
H        1.27094284       0.76851117       1.47755191
H       -0.87651257       1.70724508       0.40484128
H       -1.29943487       0.41511867       1.52209697
H       -1.24500114       0.37749143      -1.51704182
H       -2.37206579      -0.43804468      -0.42021137
H        0.79299868      -1.02638802       1.15537621
14
Frame=6 idx=000564 GeodesicLength=0.4260278492578314 rxn_smarts="[C:1]1([H:7])([H:8])[C@@:2]2([H:9])[C:3]([H:10])([H:11])[C:4]([H:12])([H:13])[O:5][C@@:6]12[H:14]>>[C:1]1([H:7])([H:8])[C:2]([H:9])([H:14])[C:3]([H:10])([H:11])[C:4]([H:12])([H:13])[O+:5]=[C-:6]1"
C        1.42197364      -0.07244487      -0.55119868
C        0.68927511       0.25120124       0.71817496
C       -0.76590593       0.63540932       0.59901223
C       -1.33547590      -0.15906170      -0.57117534
O       -0.60259770      -1.38703770      -0.67325296
C        0.68865811      -1.34969266      -0.26189620
H        1.16424053       0.48149339      -1.44611620
H        2.49407227      -0.22337663      -0.45336748
H        1.26620205       0.79873175       1.45652338
H       -0.88643520       1.70482737       0.41329383
H       -1.29943884       0.40522155       1.52338179
H       -1.26887845       0.38943280      -1.51337634
H       -2.37513073      -0.44658207      -0.40906566
H        0.80944105      -1.02812179       1.16906267
14
Frame=7 idx=000564 GeodesicLength=0.4969474717943951 rxn_smarts="[C:1]1([H:7])([H:8])[C@@:2]2([H:9])[C:3]([H:10])([H:11])[C:4]([H:12])([H:13])[O:5][C@@:6]12[H:14]>>[C:1]1([H:7])([H:8])[C:2]([H:9])([H:14])[C:3]([H:10])([H:11])[C:4]([H:12])([H:13])[O+:5]=[C-:6]1"
C        1.43089383      -0.07814310      -0.54750277
C        0.68777391       0.25378766       0.71434640
C       -0.76947784       0.63235986       0.59970473
C       -1.34331018      -0.15547562      -0.57116232
O       -0.60277894      -1.37715900      -0.69897796
C        0.68127140      -1.34646425      -0.27049752
H        1.19661414       0.47833302      -1.44710783
H        2.49898377      -0.25007523      -0.43576032
H        1.26104876       0.82884818       1.43448057
H       -0.89642559       1.70236961       0.42182804
H       -1.29925778       0.39525943       1.52462174
H       -1.29371449       0.40159315      -1.50921567
H       -2.37784280      -0.45579637      -0.39770886
H        0.82622182      -1.02943734       1.18295177
14
Frame=8 idx=000564 GeodesicLength=0.5678339919857086 rxn_smarts="[C:1]1([H:7])([H:8])[C@@:2]2([H:9])[C:3]([H:10])([H:11])[C:4]([H:12])([H:13])[O:5][C@@:6]12[H:14]>>[C:1]1([H:7])([H:8])[C:2]([H:9])([H:14])[C:3]([H:10])([H:11])[C:4]([H:12])([H:13])[O+:5]=[C-:6]1"
C        1.43994799      -0.08407737      -0.54360980
C        0.68631634       0.25651561       0.71041308
C       -0.77303256       0.62936581       0.60033680
C       -1.35130679      -0.15185456      -0.57107145
O       -0.60273188      -1.36629874      -0.72554025
C        0.67366530      -1.34298666      -0.27929716
H        1.23008473       0.47469456      -1.44762766
H        2.50333434      -0.27717664      -0.41764042
H        1.25548682       0.85879879       1.41139787
H       -0.90647914       1.69988071       0.43043066
H       -1.29888335       0.38525778       1.52581148
H       -1.31956820       0.41394212      -1.50450855
H       -2.38014415      -0.46574430      -0.38614584
H        0.84331055      -1.03031712       1.19705125
14
Frame=9 idx=000564 GeodesicLength=0.638741069245088 rxn_smarts="[C:1]1([H:7])([H:8])[C@@:2]2([H:9])[C:3]([H:10])([H:11])[C:4]([H:12])([H:13])[O:5][C@@:6]12[H:14]>>[C:1]1([H:7])([H:8])[C:2]([H:9])([H:14])[C:3]([H:10])([H:11])[C:4]([H:12])([H:13])[O+:5]=[C-:6]1"
C        1.44914570      -0.09024682      -0.53952560
C        0.68489657       0.25938911       0.70633632
C       -0.77656848       0.62645225       0.60087528
C       -1.35948961      -0.14822539      -0.57089004
O       -0.60243557      -1.35429490      -0.75297633
C        0.66583412      -1.33921366      -0.28841558
H        1.26468534       0.47053432      -1.44761724
H        2.50716037      -0.30467233      -0.39894768
H        1.24956435       0.88847807       1.38734631
H       -0.91657770       1.69737776       0.43903772
H       -1.29830586       0.37528490       1.52692965
H       -1.34659816       0.42637648      -1.49916693
H       -2.38196006      -0.47650123      -0.37435257
H        0.86064900      -1.03073856       1.21136669
14
Frame=10 idx=000564 GeodesicLength=0.7096105700642649 rxn_smarts="[C:1]1([H:7])([H:8])[C@@:2]2([H:9])[C:3]([H:10])([H:11])[C:4]([H:12])([H:13])[O:5][C@@:6]12[H:14]>>[C:1]1([H:7])([H:8])[C:2]([H:9])([H:14])[C:3]([H:10])([H:11])[C:4]([H:12])([H:13])[O+:5]=[C-:6]1"
C        1.45847942      -0.09664739      -0.53522836
C        0.68352114       0.26241520       0.70213036
C       -0.78008189       0.62362532       0.60133451
C       -1.36784260      -0.14457950      -0.57061359
O       -0.60186893      -1.34110880      -0.78126723
C        0.65778072      -1.33512712      -0.29786839
H        1.30045952       0.46582858      -1.44702523
H        2.51035116      -0.33259047      -0.37973589
H        1.24324916       0.91788682       1.36223216
H       -0.92672238       1.69486510       0.44767287
H       -1.29752396       0.36533903       1.52798400
H       -1.37477772       0.43891826      -1.49316585
H       -2.38324051      -0.48812645      -0.36235586
H        0.87821686      -1.03069857       1.22590653
14
Frame=11 idx=000564 GeodesicLength=0.7804456275964256 rxn_smarts="[C:1]1([H:7])([H:8])[C@@:2]2([H:9])[C:3]([H:10])([H:11])[C:4]([H:12])([H:13])[O:5][C@@:6]12[H:14]>>[C:1]1([H:7])([H:8])[C:2]([H:9])([H:14])[C:3]([H:10])([H:11])[C:4]([H:12])([H:13])[O+:5]=[C-:6]1"
C        1.46794827      -0.10327361      -0.53071235
C        0.68218766       0.26559670       0.69778092
C       -0.78357099       0.62090237       0.60170229
C       -1.37637127      -0.14092811      -0.57023417
O       -0.60101320      -1.32663533      -0.81041102
C        0.64950855      -1.33069189      -0.30773645
H        1.33743756       0.46055698      -1.44579014
H        2.51287834      -0.36095661      -0.36001420
H        1.23655373       0.94697661       1.33606426
H       -0.93690162       1.69235574       0.45630753
H       -1.29653428       0.35546091       1.52896614
H       -1.40417613       0.45151448      -1.48644812
H       -2.38391693      -0.50069065      -0.35015750
H        0.89597031      -1.03018760       1.24068281
14
Frame=12 idx=000564 GeodesicLength=0.8512479396009478 rxn_smarts="[C:1]1([H:7])([H:8])[C@@:2]2([H:9])[C:3]([H:10])([H:11])[C:4]([H:12])([H:13])[O:5][C@@:6]12[H:14]>>[C:1]1([H:7])([H:8])[C:2]([H:9])([H:14])[C:3]([H:10])([H:11])[C:4]([H:12])([H:13])[O+:5]=[C-:6]1"
C        1.47755205      -0.11012304      -0.52596846
C        0.68089623       0.26893483       0.69327544
C       -0.78703218       0.61830023       0.60196926
C       -1.38508107      -0.13728384      -0.56973982
O       -0.59985007      -1.31075764      -0.84040468
C        0.64101853      -1.32586718      -0.31810772
H        1.37565316       0.45468959      -1.44384440
H        2.51468753      -0.38978783      -0.33978266
H        1.22948754       0.97570107       1.30882398
H       -0.94710184       1.68986241       0.46491732
H       -1.29533093       0.34568987       1.52987080
H       -1.43485959       0.46410302      -1.47894782
H       -2.38390505      -0.51426143      -0.33776875
H        0.91386570      -1.02920005       1.25570749
14
Frame=13 idx=000564 GeodesicLength=0.9220150317570072 rxn_smarts="[C:1]1([H:7])([H:8])[C@@:2]2([H:9])[C:3]([H:10])([H:11])[C:4]([H:12])([H:13])[O:5][C@@:6]12[H:14]>>[C:1]1([H:7])([H:8])[C:2]([H:9])([H:14])[C:3]([H:10])([H:11])[C:4]([H:12])([H:13])[O+:5]=[C-:6]1"
C        1.48728811      -0.11718963      -0.52099199
C        0.67964595       0.27243086       0.68859986
C       -0.79046336       0.61583608       0.60212430
C       -1.39397526      -0.13365892      -0.56912231
O       -0.59837015      -1.29336473      -0.87123474
C        0.63231802      -1.32060975      -0.32907693
H        1.41512884       0.44819151      -1.44111900
H        2.51574032      -0.41909785      -0.31904983
H        1.22206424       1.00400787       1.28051053
H       -0.95730901       1.68739862       0.47347400
H       -1.29391300       0.33606863       1.53069132
H       -1.46689044       0.47661789      -1.47060084
H       -2.38312444      -0.52890166      -0.32520062
H        0.93186018      -1.02772889       1.27099624
14
Frame=14 idx=000564 GeodesicLength=0.9927532588473343 rxn_smarts="[C:1]1([H:7])([H:8])[C@@:2]2([H:9])[C:3]([H:10])([H:11])[C:4]([H:12])([H:13])[O:5][C@@:6]12[H:14]>>[C:1]1([H:7])([H:8])[C:2]([H:9])([H:14])[C:3]([H:10])([H:11])[C:4]([H:12])([H:13])[O+:5]=[C-:6]1"
C        1.49715157      -0.12447002      -0.51577437
C        0.67843615       0.27608507       0.68374105
C       -0.79386161       0.61352850       0.60215757
C       -1.40305757      -0.13006944      -0.56836865
O       -0.59656206      -1.27431438      -0.90288953
C        0.62341173      -1.31486621      -0.34075305
H        1.45589631       0.44102854      -1.43752650
H        2.51597618      -0.44891827      -0.29783215
H        1.21429947       1.03185312       1.25111371
H       -0.96750706       1.68498068       0.48194577
H       -1.29227775       0.32664341       1.53142346
H       -1.50034006       0.48896696      -1.46132728
H       -2.38147600      -0.54468207      -0.31247876
H        0.94991072      -1.02576590       1.28656874
14
Frame=15 idx=000564 GeodesicLength=1.0634575369615804 rxn_smarts="[C:1]1([H:7])([H:8])[C@@:2]2([H:9])[C:3]([H:10])([H:11])[C:4]([H:12])([H:13])[O:5][C@@:6]12[H:14]>>[C:1]1([H:7])([H:8])[C:2]([H:9])([H:14])[C:3]([H:10])([H:11])[C:4]([H:12])([H:13])[O+:5]=[C-:6]1"
C        1.50713496      -0.13195828      -0.51031036
C        0.67726692       0.27989889       0.67868631
C       -0.79722454       0.61139428       0.60206017
C       -1.41232860      -0.12653088      -0.56746821
O       -0.59442592      -1.25346786      -0.93534306
C        0.61431228      -1.30857904      -0.35324625
H        1.49796867       0.43315514      -1.43298180
H        2.51533614      -0.47927091      -0.27615355
H        1.20621087       1.05918458       1.22063090
H       -0.97768074       1.68262343       0.49030298
H       -1.29042504       0.31745705       1.53206290
H       -1.53526506       0.50104858      -1.45105034
H       -2.37886012      -0.56165642      -0.29963946
H        0.96798020      -1.02329855       1.30244979
14
Frame=16 idx=000564 GeodesicLength=1.134130227098856 rxn_smarts="[C:1]1([H:7])([H:8])[C@@:2]2([H:9])[C:3]([H:10])([H:11])[C:4]([H:12])([H:13])[O:5][C@@:6]12[H:14]>>[C:1]1([H:7])([H:8])[C:2]([H:9])([H:14])[C:3]([H:10])([H:11])[C:4]([H:12])([H:13])[O+:5]=[C-:6]1"
C        1.51722805      -0.13965203      -0.50459362
C        0.67613922       0.28387345       0.67342390
C       -0.80054933       0.60945022       0.60182431
C       -1.42178623      -0.12306035      -0.56640982
O       -0.59196456      -1.23066751      -0.96856545
C        0.60503213      -1.30168317      -0.36667720
H        1.54135570       0.42452033      -1.42738984
H        2.51374901      -0.51018477      -0.25404049
H        1.19781559       1.08595324       1.18904704
H       -0.98781438       1.68034335       0.49851546
H       -1.28835440       0.30855183       1.53260686
H       -1.57172262       0.51274549      -1.43968045
H       -2.37516177      -0.57987848      -0.28673196
H        0.98603360      -1.02031161       1.31867126
