18
Frame=0 idx=001812 GeodesicLength=0.0 rxn_smarts="[C:1]([C:2]([C:3]([H:11])([H:12])[H:13])([C:4]1([H:14])[C:5]([H:15])([H:16])[C:6]1([H:17])[H:18])[H:10])([H:7])([H:8])[H:9]>>[C:1]([C:2](=[C:3]([H:12])[H:13])[C:4]1([H:14])[C:5]([H:15])([H:16])[C:6]1([H:17])[H:18])([H:7])([H:8])[H:9].[H:10][H:11]"
C       -1.58102020       0.97023688       0.47743961
C       -0.68856829      -0.17144022       0.07572805
C       -1.26597571      -1.47414815       0.02559131
C        0.74899295      -0.08143983       0.49329365
C        1.87385270      -0.50837013      -0.39111106
C        1.70688250       0.94013050      -0.02742652
H       -1.13448120       1.93363399       0.23550752
H       -2.55648762       0.89167703      -0.00100078
H       -1.72754380       0.89614163       1.55868688
H       -0.43987714       0.37467562      -1.43066410
H       -0.87957401      -0.62197330      -1.12401516
H       -0.62628674      -2.34406294       0.02000614
H       -2.33974918      -1.58949945       0.03773375
H        0.83549042      -0.34529653       1.54301006
H        2.68938864      -1.06672744       0.04808240
H        1.62281562      -0.78747873      -1.40767362
H        1.35933429       1.60453293      -0.80789840
H        2.40280669       1.37940821       0.67471034
18
Frame=1 idx=001812 GeodesicLength=0.098439869364192 rxn_smarts="[C:1]([C:2]([C:3]([H:11])([H:12])[H:13])([C:4]1([H:14])[C:5]([H:15])([H:16])[C:6]1([H:17])[H:18])[H:10])([H:7])([H:8])[H:9]>>[C:1]([C:2](=[C:3]([H:12])[H:13])[C:4]1([H:14])[C:5]([H:15])([H:16])[C:6]1([H:17])[H:18])([H:7])([H:8])[H:9].[H:10][H:11]"
C       -1.58008567       0.96790090       0.48985623
C       -0.68744431      -0.16639911       0.06537380
C       -1.26354130      -1.46962825       0.00890881
C        0.74781622      -0.07805792       0.49266970
C        1.87757480      -0.51194262      -0.38228502
C        1.70908212       0.93932944      -0.03106374
H       -1.13870322       1.93470252       0.25101911
H       -2.56083079       0.89239334       0.02155492
H       -1.71673428       0.88749685       1.57195166
H       -0.45647398       0.37735455      -1.45147667
H       -0.89094869      -0.62978359      -1.16316175
H       -0.62643234      -2.34124129       0.03795773
H       -2.33761856      -1.58599329       0.02355265
H        0.83216166      -0.33248702       1.54502410
H        2.69131357      -1.06612014       0.06550944
H        1.63361719      -0.80034180      -1.39787092
H        1.36488012       1.59840246      -0.81756421
H        2.40236745       1.38441496       0.67004416
18
Frame=2 idx=001812 GeodesicLength=0.196569251334909 rxn_smarts="[C:1]([C:2]([C:3]([H:11])([H:12])[H:13])([C:4]1([H:14])[C:5]([H:15])([H:16])[C:6]1([H:17])[H:18])[H:10])([H:7])([H:8])[H:9]>>[C:1]([C:2](=[C:3]([H:12])[H:13])[C:4]1([H:14])[C:5]([H:15])([H:16])[C:6]1([H:17])[H:18])([H:7])([H:8])[H:9].[H:10][H:11]"
C       -1.57907985       0.96539169       0.50244777
C       -0.68614413      -0.16102637       0.05541744
C       -1.26074898      -1.46483540      -0.00831015
C        0.74681264      -0.07453882       0.49228453
C        1.88128058      -0.51550082      -0.37323604
C        1.71139617       0.93851986      -0.03478917
H       -1.14295557       1.93565281       0.26694440
H       -2.56484688       0.89265762       0.04407804
H       -1.70610914       0.87852401       1.58522282
H       -0.47380741       0.37976937      -1.47217372
H       -0.90247869      -0.63806653      -1.20311334
H       -0.62730419      -2.33757798       0.05586902
H       -2.33513897      -1.58221471       0.00901406
H        0.82911153      -0.31950914       1.54717688
H        2.69323633      -1.06535173       0.08310299
H        1.64415384      -0.81345506      -1.38757912
H        1.37045536       1.59202450      -0.82738668
H        2.40216737       1.38953669       0.66503028
18
Frame=3 idx=001812 GeodesicLength=0.2945252905009886 rxn_smarts="[C:1]([C:2]([C:3]([H:11])([H:12])[H:13])([C:4]1([H:14])[C:5]([H:15])([H:16])[C:6]1([H:17])[H:18])[H:10])([H:7])([H:8])[H:9]>>[C:1]([C:2](=[C:3]([H:12])[H:13])[C:4]1([H:14])[C:5]([H:15])([H:16])[C:6]1([H:17])[H:18])([H:7])([H:8])[H:9].[H:10][H:11]"
C       -1.57800292       0.96272040       0.51523944
C       -0.68465227      -0.15530796       0.04591963
C       -1.25757334      -1.45973846      -0.02608797
C        0.74600298      -0.07087097       0.49216758
C        1.88498046      -0.51903558      -0.36394662
C        1.71383059       0.93770685      -0.03860549
H       -1.14723757       1.93648767       0.28329727
H       -2.56854007       0.89246914       0.06658322
H       -1.69567167       0.86923419       1.59852926
H       -0.49193536       0.38180301      -1.49272556
H       -0.91418363      -0.64691521      -1.24395320
H       -0.62897306      -2.33303606       0.07364213
H       -2.33228737      -1.57812280      -0.00593844
H        0.82637512      -0.30634216       1.54949912
H        2.69518208      -1.06439885       0.10087210
H        1.65441473      -0.82682691      -1.37676613
H        1.37604790       1.58538383      -0.83737166
H        2.40222341       1.39478987       0.65964531
18
Frame=4 idx=001812 GeodesicLength=0.39243563340521326 rxn_smarts="[C:1]([C:2]([C:3]([H:11])([H:12])[H:13])([C:4]1([H:14])[C:5]([H:15])([H:16])[C:6]1([H:17])[H:18])[H:10])([H:7])([H:8])[H:9]>>[C:1]([C:2](=[C:3]([H:12])[H:13])[C:4]1([H:14])[C:5]([H:15])([H:16])[C:6]1([H:17])[H:18])([H:7])([H:8])[H:9].[H:10][H:11]"
C       -1.57685390       0.95990199       0.52826361
C       -0.68295456      -0.14922925       0.03694891
C       -1.25398943      -1.45430088      -0.04443891
C        0.74540848      -0.06704202       0.49235151
C        1.88868471      -0.52253727      -0.35439815
C        1.71638960       0.93689591      -0.04251505
H       -1.15154796       1.93721380       0.30009452
H       -2.57191331       0.89183049       0.08908750
H       -1.68542092       0.85964662       1.61190594
H       -0.51092364       0.38331712      -1.51309706
H       -0.92607133      -0.65644414      -1.28576938
H       -0.63151200      -2.32757881       0.09115938
H       -2.32904295      -1.57366880      -0.02138183
H        0.82399066      -0.29296262       1.55202442
H        2.69717752      -1.06323557       0.11882345
H        1.66438732      -0.84046305      -1.36539839
H        1.38164036       1.57846502      -0.84752394
H        2.40255135       1.40019147       0.65386346
18
Frame=5 idx=001812 GeodesicLength=0.49032518565290417 rxn_smarts="[C:1]([C:2]([C:3]([H:11])([H:12])[H:13])([C:4]1([H:14])[C:5]([H:15])([H:16])[C:6]1([H:17])[H:18])[H:10])([H:7])([H:8])[H:9]>>[C:1]([C:2](=[C:3]([H:12])[H:13])[C:4]1([H:14])[C:5]([H:15])([H:16])[C:6]1([H:17])[H:18])([H:7])([H:8])[H:9].[H:10][H:11]"
C       -1.57563251       0.95695826       0.54154462
C       -0.68103980      -0.14276980       0.02855241
C       -1.24998695      -1.44848541      -0.06337189
C        0.74504360      -0.06303747       0.49286356
C        1.89240165      -0.52599578      -0.34457010
C        1.71908001       0.93609290      -0.04651510
H       -1.15588484       1.93784459       0.31734937
H       -2.57497258       0.89075310       0.11160998
H       -1.67535069       0.84978248       1.62538114
H       -0.53083088       0.38416836      -1.53326592
H       -0.93817683      -0.66676280      -1.32862826
H       -0.63492954      -2.32119370       0.10825666
H       -2.32539982      -1.56880508      -0.03734378
H        0.82198034      -0.27934862       1.55478293
H        2.69924129      -1.06184477       0.13697199
H        1.67406312      -0.85436843      -1.35344696
H        1.38722791       1.57125674      -0.85784353
H        2.40316654       1.40575544       0.64767288
18
Frame=6 idx=001812 GeodesicLength=0.5883526513284509 rxn_smarts="[C:1]([C:2]([C:3]([H:11])([H:12])[H:13])([C:4]1([H:14])[C:5]([H:15])([H:16])[C:6]1([H:17])[H:18])[H:10])([H:7])([H:8])[H:9]>>[C:1]([C:2](=[C:3]([H:12])[H:13])[C:4]1([H:14])[C:5]([H:15])([H:16])[C:6]1([H:17])[H:18])([H:7])([H:8])[H:9].[H:10][H:11]"
C       -1.57433604       0.95390954       0.55512978
C       -0.67889293      -0.13591101       0.02081956
C       -1.24553003      -1.44223074      -0.08290475
C        0.74493332      -0.05883982       0.49374808
C        1.89614220      -0.52939698      -0.33443292
C        1.72190468       0.93530163      -0.05060794
H       -1.16025044       1.93839208       0.33508128
H       -2.57772004       0.88923384       0.13418295
H       -1.66545231       0.83966622       1.63900610
H       -0.55173179       0.38415054      -1.55319237
H       -0.95050782      -0.67802312      -1.37264528
H       -0.63932095      -2.31383340       0.12472368
H       -2.32132867      -1.56345195      -0.05390386
H        0.82039044      -0.26546182       1.55781847
H        2.70140519      -1.06018726       0.15533281
H        1.68342454      -0.86854917      -1.34085456
H        1.39278373       1.56373428      -0.86833428
H        2.40408691       1.41149713       0.64103324
18
Frame=7 idx=001812 GeodesicLength=0.6865647627201381 rxn_smarts="[C:1]([C:2]([C:3]([H:11])([H:12])[H:13])([C:4]1([H:14])[C:5]([H:15])([H:16])[C:6]1([H:17])[H:18])[H:10])([H:7])([H:8])[H:9]>>[C:1]([C:2](=[C:3]([H:12])[H:13])[C:4]1([H:14])[C:5]([H:15])([H:16])[C:6]1([H:17])[H:18])([H:7])([H:8])[H:9].[H:10][H:11]"
C       -1.57296248       0.95078580       0.56905380
C       -0.67650406      -0.12863270       0.01382520
C       -1.24059347      -1.43547116      -0.10303377
C        0.74509569      -0.05442791       0.49504939
C        1.89991181      -0.53273145      -0.32395615
C        1.72486842       0.93452461      -0.05478952
H       -1.16464457       1.93887724       0.35329845
H       -2.58016296       0.88729222       0.15683481
H       -1.65571487       0.82934149       1.65282015
H       -0.57369237       0.38304851      -1.57284101
H       -0.96313220      -0.69036083      -1.41790192
H       -0.64468253      -2.30548024       0.14028122
H       -2.31680369      -1.55755046      -0.07110449
H        0.81925232      -0.25126648       1.56117524
H        2.70369039      -1.05824206       0.17392425
H        1.69245013      -0.88301407      -1.32756897
H        1.39829355       1.55587818      -0.87899249
H        2.40533089       1.41742930       0.63392581
18
Frame=8 idx=001812 GeodesicLength=0.7849892999544752 rxn_smarts="[C:1]([C:2]([C:3]([H:11])([H:12])[H:13])([C:4]1([H:14])[C:5]([H:15])([H:16])[C:6]1([H:17])[H:18])[H:10])([H:7])([H:8])[H:9]>>[C:1]([C:2](=[C:3]([H:12])[H:13])[C:4]1([H:14])[C:5]([H:15])([H:16])[C:6]1([H:17])[H:18])([H:7])([H:8])[H:9].[H:10][H:11]"
C       -1.57150936       0.94761996       0.58335846
C       -0.67386654      -0.12090946       0.00763240
C       -1.23516432      -1.42812711      -0.12376670
C        0.74554283      -0.04977960       0.49680596
C        1.90371426      -0.53598735      -0.31310603
C        1.72797557       0.93376295      -0.05905132
H       -1.16906898       1.93932463       0.37201602
H       -2.58230684       0.88494355       0.17960321
H       -1.64611865       0.81884688       1.66686914
H       -0.59677082       0.38063121      -1.59218567
H       -0.97610315      -0.70393252      -1.46448623
H       -0.65099222      -2.29612990       0.15463122
H       -2.31181487      -1.55101919      -0.08896533
H        0.81858875      -0.23672225       1.56489149
H        2.70611287      -1.05597981       0.19277007
H        1.70112244      -0.89776343      -1.31353658
H        1.40374526       1.54766603      -0.88980980
H        2.40691377       1.42355542       0.62632970
18
Frame=9 idx=001812 GeodesicLength=0.8837876584927891 rxn_smarts="[C:1]([C:2]([C:3]([H:11])([H:12])[H:13])([C:4]1([H:14])[C:5]([H:15])([H:16])[C:6]1([H:17])[H:18])[H:10])([H:7])([H:8])[H:9]>>[C:1]([C:2](=[C:3]([H:12])[H:13])[C:4]1([H:14])[C:5]([H:15])([H:16])[C:6]1([H:17])[H:18])([H:7])([H:8])[H:9].[H:10][H:11]"
C       -1.56997242       0.94446314       0.59810696
C       -0.67098100      -0.11272629       0.00238080
C       -1.22919856      -1.42009400      -0.14511104
C        0.74629425      -0.04487097       0.49908407
C        1.90754428      -0.53915197      -0.30184064
C        1.73121567       0.93301359      -0.06338686
H       -1.17351716       1.93976855       0.39123772
H       -2.58415441       0.88222379       0.20253567
H       -1.63665008       0.80827046       1.68122512
H       -0.62105639       0.37657759      -1.61116296
H       -0.98944651      -0.71892800      -1.51252598
H       -0.65822203      -2.28577400       0.16736879
H       -2.30632249      -1.54375470      -0.10757574
H        0.81845089      -0.22178353       1.56903158
H        2.70869590      -1.05336977       0.21189011
H        1.70938665      -0.91280763      -1.29868175
H        1.40908614       1.53906060      -0.90077844
H        2.40884726       1.42988315       0.61820263
18
Frame=10 idx=001812 GeodesicLength=0.9826880824951935 rxn_smarts="[C:1]([C:2]([C:3]([H:11])([H:12])[H:13])([C:4]1([H:14])[C:5]([H:15])([H:16])[C:6]1([H:17])[H:18])[H:10])([H:7])([H:8])[H:9]>>[C:1]([C:2](=[C:3]([H:12])[H:13])[C:4]1([H:14])[C:5]([H:15])([H:16])[C:6]1([H:17])[H:18])([H:7])([H:8])[H:9].[H:10][H:11]"
C       -1.56835510       0.94133957       0.61329183
C       -0.66784345      -0.10403355      -0.00198868
C       -1.22272931      -1.41130618      -0.16708969
C        0.74734015      -0.03967456       0.50188540
C        1.91140097      -0.54221920      -0.29014002
C        1.73461537       0.93227550      -0.06776736
H       -1.17800334       1.94024054       0.41098501
H       -2.58571956       0.87915894       0.22564019
H       -1.62729255       0.79760993       1.69587982
H       -0.64654171       0.37072497      -1.62981477
H       -1.00336621      -0.73540776      -1.56201016
H       -0.66615822      -2.27446030       0.17826797
H       -2.30035033      -1.53572627      -0.12678957
H        0.81880056      -0.20642844       1.57359590
H        2.71141967      -1.05042682       0.23130934
H        1.71725024      -0.92812423      -1.28298453
H        1.41437386       1.53007444      -0.91186043
H        2.41115896       1.43638342       0.60958976
18
Frame=11 idx=001812 GeodesicLength=1.0815916166018915 rxn_smarts="[C:1]([C:2]([C:3]([H:11])([H:12])[H:13])([C:4]1([H:14])[C:5]([H:15])([H:16])[C:6]1([H:17])[H:18])[H:10])([H:7])([H:8])[H:9]>>[C:1]([C:2](=[C:3]([H:12])[H:13])[C:4]1([H:14])[C:5]([H:15])([H:16])[C:6]1([H:17])[H:18])([H:7])([H:8])[H:9].[H:10][H:11]"
C       -1.56665715       0.93828369       0.62892672
C       -0.66445724      -0.09479965      -0.00546726
C       -1.21575392      -1.40167981      -0.18969858
C        0.74867683      -0.03416408       0.50522918
C        1.91527491      -0.54518163      -0.27797985
C        1.73818994       0.93154710      -0.07216521
H       -1.18253710       1.94077282       0.43125908
H       -2.58701236       0.87577780       0.24893390
H       -1.61802836       0.78690535       1.71085167
H       -0.67323139       0.36285762      -1.64814543
H       -1.01803323      -0.75346830      -1.61294784
H       -0.67464200      -2.26221546       0.18703135
H       -2.29388343      -1.52689701      -0.14655909
H        0.81963025      -0.19062652       1.57860322
H        2.71426946      -1.04715892       0.25104439
H        1.72468879      -0.94369261      -1.26641324
H        1.41963223       1.52070849      -0.92301835
H        2.41387379       1.44303111       0.60051534
18
Frame=12 idx=001812 GeodesicLength=1.1804298758091347 rxn_smarts="[C:1]([C:2]([C:3]([H:11])([H:12])[H:13])([C:4]1([H:14])[C:5]([H:15])([H:16])[C:6]1([H:17])[H:18])[H:10])([H:7])([H:8])[H:9]>>[C:1]([C:2](=[C:3]([H:12])[H:13])[C:4]1([H:14])[C:5]([H:15])([H:16])[C:6]1([H:17])[H:18])([H:7])([H:8])[H:9].[H:10][H:11]"
C       -1.56488047       0.93532278       0.64501290
C       -0.66082278      -0.08498295      -0.00807914
C       -1.20827387      -1.39113735      -0.21295393
C        0.75029705      -0.02831124       0.50912389
C        1.91915797      -0.54802927      -0.26534210
C        1.74195954       0.93082466      -0.07654381
H       -1.18713116       1.94139568       0.45207221
H       -2.58804276       0.87210833       0.27242039
H       -1.60884448       0.77617512       1.72614191
H       -0.70109456       0.35276234      -1.66618427
H       -1.03368384      -0.77318082      -1.66533536
H       -0.68347305      -2.24907185       0.19339128
H       -2.28691772      -1.51722319      -0.16677587
H        0.82091897      -0.17435382       1.58405815
H        2.71722558      -1.04357678       0.27111395
H        1.73168663      -0.95948267      -1.24893943
H        1.42490088       1.51097239      -0.93420233
H        2.41701808       1.44978863       0.59102156
18
Frame=13 idx=001812 GeodesicLength=1.2791342319314982 rxn_smarts="[C:1]([C:2]([C:3]([H:11])([H:12])[H:13])([C:4]1([H:14])[C:5]([H:15])([H:16])[C:6]1([H:17])[H:18])[H:10])([H:7])([H:8])[H:9]>>[C:1]([C:2](=[C:3]([H:12])[H:13])[C:4]1([H:14])[C:5]([H:15])([H:16])[C:6]1([H:17])[H:18])([H:7])([H:8])[H:9].[H:10][H:11]"
C       -1.56302695       0.93248008       0.66153099
C       -0.65694434      -0.07454901      -0.00986556
C       -1.20028806      -1.37960407      -0.23684976
C        0.75218773      -0.02208877       0.51357263
C        1.92303670      -0.55075784      -0.25221093
C        1.74594880       0.93010250      -0.08086001
H       -1.19180243       1.94213555       0.47341247
H       -2.58882050       0.86816998       0.29608385
H       -1.59972868       0.76544551       1.74173356
H       -0.73006532       0.34026785      -1.68397379
H       -1.05062906      -0.79456591      -1.71911159
H       -0.69240451      -2.23506761       0.19709833
H       -2.27943327      -1.50670386      -0.18731947
H        0.82263578      -0.15759124       1.58996019
H        2.72025454      -1.03971200       0.29153075
H        1.73822493      -0.97545691      -1.23055138
H        1.43023279       1.50088779      -0.94535152
H        2.42062185       1.45660796       0.58117124
18
Frame=14 idx=001812 GeodesicLength=1.3776400909765902 rxn_smarts="[C:1]([C:2]([C:3]([H:11])([H:12])[H:13])([C:4]1([H:14])[C:5]([H:15])([H:16])[C:6]1([H:17])[H:18])[H:10])([H:7])([H:8])[H:9]>>[C:1]([C:2](=[C:3]([H:12])[H:13])[C:4]1([H:14])[C:5]([H:15])([H:16])[C:6]1([H:17])[H:18])([H:7])([H:8])[H:9].[H:10][H:11]"
C       -1.56110111       0.92976377       0.67844261
C       -0.65282669      -0.06345725      -0.01092293
C       -1.19180165      -1.36702401      -0.26136951
C        0.75432718      -0.01546816       0.51855130
C        1.92689642      -0.55335775      -0.23857894
C        1.75019318       0.92937462      -0.08506590
H       -1.19657489       1.94300960       0.49527553
H       -2.58935760       0.86396964       0.31989172
H       -1.59067026       0.75471064       1.75758627
H       -0.76002203       0.32526332      -1.70158768
H       -1.06923796      -0.81761107      -1.77415579
H       -0.70117939      -2.22024682       0.19797418
H       -2.27141569      -1.49535886      -0.20803259
H        0.82473025      -0.14032203       1.59628472
H        2.72330805      -1.03560144       0.31230937
H        1.74429702      -0.99156096      -1.21125040
H        1.43571183       1.49048873      -0.95639771
H        2.42472333       1.46342802       0.57104576
18
Frame=15 idx=001812 GeodesicLength=1.475947425375688 rxn_smarts="[C:1]([C:2]([C:3]([H:11])([H:12])[H:13])([C:4]1([H:14])[C:5]([H:15])([H:16])[C:6]1([H:17])[H:18])[H:10])([H:7])([H:8])[H:9]>>[C:1]([C:2](=[C:3]([H:12])[H:13])[C:4]1([H:14])[C:5]([H:15])([H:16])[C:6]1([H:17])[H:18])([H:7])([H:8])[H:9].[H:10][H:11]"
C       -1.55910679       0.92717378       0.69568355
C       -0.64847542      -0.05167741      -0.01136551
C       -1.18281663      -1.35335630      -0.28648646
C        0.75668951      -0.00842488       0.52402842
C        1.93072087      -0.55582574      -0.22444592
C        1.75472962       0.92863613      -0.08910524
H       -1.20147278       1.94402593       0.51763159
H       -2.58966400       0.85950942       0.34378349
H       -1.58166521       0.74396521       1.77363476
H       -0.79080026       0.30770407      -1.71911148
H       -1.08996424      -0.84225062      -1.83029662
H       -0.70949774      -2.20465815       0.19588624
H       -2.26284025      -1.48324810      -0.22872940
H        0.82714338      -0.12254174       1.60299921
H        2.72633057      -1.03129840       0.33346117
H        1.74990087      -1.00773568      -1.19105278
H        1.44143114       1.47982079      -0.96726313
H        2.42935735       1.47018168       0.56074810
18
Frame=16 idx=001812 GeodesicLength=1.5741129149388828 rxn_smarts="[C:1]([C:2]([C:3]([H:11])([H:12])[H:13])([C:4]1([H:14])[C:5]([H:15])([H:16])[C:6]1([H:17])[H:18])[H:10])([H:7])([H:8])[H:9]>>[C:1]([C:2](=[C:3]([H:12])[H:13])[C:4]1([H:14])[C:5]([H:15])([H:16])[C:6]1([H:17])[H:18])([H:7])([H:8])[H:9].[H:10][H:11]"
C       -1.55704961       0.92469644       0.71316907
C       -0.64389529      -0.03918129      -0.01133819
C       -1.17333336      -1.33857906      -0.31216414
C        0.75924474      -0.00093537       0.52995775
C        1.93449351      -0.55815911      -0.20981617
C        1.75960097       0.92788173      -0.09291832
H       -1.20652576       1.94518118       0.54044420
H       -2.58974930       0.85477694       0.36767449
H       -1.57271378       0.73318857       1.78979202
H       -0.82218570       0.28762167      -1.73665423
H       -1.11332806      -0.86838311      -1.88730331
H       -0.71705067      -2.18835443       0.19076769
H       -2.25367629      -1.47046227      -0.24920698
H        0.82980573      -0.10424977       1.61005623
H        2.72925831      -1.02686251       0.35499902
H        1.75504226      -1.02391446      -1.16998858
H        1.44750117       1.46893939      -0.97786668
H        2.43456114       1.47679545       0.55039615
