14
Frame=0 idx=009414 GeodesicLength=0.0 rxn_smarts="[O:1]([C@@:2]1([H:9])[C:3]([H:10])([H:11])[O:4][C:5]([H:12])=[N:6][C:7]1([H:13])[H:14])[H:8]>>[O:1]([C@@:2]([C:3]([O:4][H:12])([H:10])[H:11])([C:7]([N+:6]#[C-:5])([H:13])[H:14])[H:9])[H:8]"
O       -0.99896774      -0.73542005       1.32907002
C       -0.92768979      -0.05072431       0.10482120
C       -0.06416744       1.22087352       0.30056172
O        1.06348263       0.90859139       1.05007615
C        1.88430804      -0.47644457      -0.24055635
N        1.09492447      -1.02692051      -0.90844242
C       -0.36723674      -0.96465252      -0.98126753
H       -0.21782561      -0.43761639       1.82181255
H       -1.94269599       0.22422230      -0.19933502
H        0.17790510       1.65602503      -0.68447817
H       -0.66605705       1.96316149       0.83882936
H        2.31789961       0.31400182       0.42168210
H       -0.61122457      -0.61453225      -1.98539469
H       -0.74265498      -1.98056501      -0.86737895
14
Frame=1 idx=009414 GeodesicLength=0.07138237947254479 rxn_smarts="[O:1]([C@@:2]1([H:9])[C:3]([H:10])([H:11])[O:4][C:5]([H:12])=[N:6][C:7]1([H:13])[H:14])[H:8]>>[O:1]([C@@:2]([C:3]([O:4][H:12])([H:10])[H:11])([C:7]([N+:6]#[C-:5])([H:13])[H:14])[H:9])[H:8]"
O       -1.00532858      -0.73029621       1.33075278
C       -0.92888621      -0.04909391       0.10467165
C       -0.06730285       1.22272237       0.29578035
O        1.07039523       0.91018455       1.03290114
C        1.89225958      -0.47004919      -0.25423552
N        1.09331607      -1.03788646      -0.89887873
C       -0.36625163      -0.96528383      -0.97835308
H       -0.21354199      -0.45354282       1.81779420
H       -1.94335016       0.22572287      -0.20118185
H        0.16471379       1.66256490      -0.68896690
H       -0.66235469       1.96203299       0.84467545
H        2.32160271       0.31503065       0.44420868
H       -0.60639873      -0.61327786      -1.98289142
H       -0.74887253      -1.97882804      -0.86627672
14
Frame=2 idx=009414 GeodesicLength=0.14276777564357604 rxn_smarts="[O:1]([C@@:2]1([H:9])[C:3]([H:10])([H:11])[O:4][C:5]([H:12])=[N:6][C:7]1([H:13])[H:14])[H:8]>>[O:1]([C@@:2]([C:3]([O:4][H:12])([H:10])[H:11])([C:7]([N+:6]#[C-:5])([H:13])[H:14])[H:9])[H:8]"
O       -1.01128089      -0.72504386       1.33252132
C       -0.93000439      -0.04743637       0.10455491
C       -0.07048305       1.22469788       0.29093502
O        1.07735251       0.91207999       1.01526513
C        1.89999801      -0.46336377      -0.26857087
N        1.09183051      -1.04850080      -0.88910664
C       -0.36511070      -0.96587865      -0.97538052
H       -0.20943874      -0.46944583       1.81368128
H       -1.94398714       0.22707363      -0.20291634
H        0.15115762       1.66928950      -0.69343827
H       -0.65851754       1.96091811       0.85049168
H        2.32469521       0.31473918       0.46739125
H       -0.60145343      -0.61207163      -1.98032798
H       -0.75475799      -1.97705739      -0.86509999
14
Frame=3 idx=009414 GeodesicLength=0.21409108685682737 rxn_smarts="[O:1]([C@@:2]1([H:9])[C:3]([H:10])([H:11])[O:4][C:5]([H:12])=[N:6][C:7]1([H:13])[H:14])[H:8]>>[O:1]([C@@:2]([C:3]([O:4][H:12])([H:10])[H:11])([C:7]([N+:6]#[C-:5])([H:13])[H:14])[H:9])[H:8]"
O       -1.01679927      -0.71970586       1.33436498
C       -0.93103224      -0.04575783       0.10447551
C       -0.07369399       1.22679284       0.28603748
O        1.08437976       0.91428843       0.99715661
C        1.90749201      -0.45660667      -0.28330890
N        1.09049821      -1.05866311      -0.87922431
C       -0.36380130      -0.96642142      -0.97236854
H       -0.20554561      -0.48526517       1.80952829
H       -1.94460038       0.22826742      -0.20452171
H        0.13726640       1.67617533      -0.69787722
H       -0.65452528       1.95981765       0.85627560
H        2.32703595       0.31322538       0.49104408
H       -0.59641917      -0.61088758      -1.97771271
H       -0.76025507      -1.97525942      -0.86386915
14
Frame=4 idx=009414 GeodesicLength=0.2854087452725539 rxn_smarts="[O:1]([C@@:2]1([H:9])[C:3]([H:10])([H:11])[O:4][C:5]([H:12])=[N:6][C:7]1([H:13])[H:14])[H:8]>>[O:1]([C@@:2]([C:3]([O:4][H:12])([H:10])[H:11])([C:7]([N+:6]#[C-:5])([H:13])[H:14])[H:9])[H:8]"
O       -1.02190436      -0.71429866       1.33627392
C       -0.93196447      -0.04405979       0.10443174
C       -0.07691474       1.22899578       0.28110584
O        1.09149693       0.91679684       0.97857920
C        1.91473076      -0.44999956      -0.29821138
N        1.08933824      -1.06833857      -0.86929725
C       -0.36231986      -0.96691042      -0.96932892
H       -0.20188665      -0.50101189       1.80536450
H       -1.94518140       0.22932048      -0.20600566
H        0.12308002       1.68320260      -0.70225765
H       -0.65034254       1.95872304       0.86205217
H        2.32853295       0.31073495       0.51494889
H       -0.59130622      -0.60971475      -1.97505461
H       -0.76535866      -1.97344006      -0.86260079
14
Frame=5 idx=009414 GeodesicLength=0.3567046497362619 rxn_smarts="[O:1]([C@@:2]1([H:9])[C:3]([H:10])([H:11])[O:4][C:5]([H:12])=[N:6][C:7]1([H:13])[H:14])[H:8]>>[O:1]([C@@:2]([C:3]([O:4][H:12])([H:10])[H:11])([C:7]([N+:6]#[C-:5])([H:13])[H:14])[H:9])[H:8]"
O       -1.02660103      -0.70885140       1.33823268
C       -0.93279237      -0.04234579       0.10442524
C       -0.08012918       1.23128884       0.27614790
O        1.09870800       0.91958733       0.95952827
C        1.92170405      -0.44374085      -0.31305639
N        1.08835161      -1.07749970      -0.85940160
C       -0.36067179      -0.96733628      -0.96627404
H       -0.19848018      -0.51668667       1.80121370
H       -1.94571790       0.23024362      -0.20735866
H        0.10863076       1.69033970      -0.70656261
H       -0.64593933       1.95762297       0.86782130
H        2.32914095       0.30749960       0.53895180
H       -0.58613556      -0.60852590      -1.97235595
H       -0.77006804      -1.97159548      -0.86131162
14
Frame=6 idx=009414 GeodesicLength=0.42799664145347316 rxn_smarts="[O:1]([C@@:2]1([H:9])[C:3]([H:10])([H:11])[O:4][C:5]([H:12])=[N:6][C:7]1([H:13])[H:14])[H:8]>>[O:1]([C@@:2]([C:3]([O:4][H:12])([H:10])[H:11])([C:7]([N+:6]#[C-:5])([H:13])[H:14])[H:9])[H:8]"
O       -1.03092579      -0.70338003       1.34023153
C       -0.93351436      -0.04061773       0.10445512
C       -0.08331184       1.23365003       0.27117753
O        1.10601977       0.92261796       0.94001723
C        1.92843516      -0.43800200      -0.32765818
N        1.08752604      -1.08617327      -0.84957737
C       -0.35887206      -0.96769952      -0.96321079
H       -0.19534407      -0.53234255       1.79708276
H       -1.94620055       0.23106284      -0.20858961
H        0.09396500       1.69755883      -0.71076875
H       -0.64127165       1.95650388       0.87359222
H        2.32883090       0.30384717       0.56288710
H       -0.58091802      -0.60730176      -1.96962043
H       -0.77441851      -1.96972384      -0.86001836
14
Frame=7 idx=009414 GeodesicLength=0.4992414953489945 rxn_smarts="[O:1]([C@@:2]1([H:9])[C:3]([H:10])([H:11])[O:4][C:5]([H:12])=[N:6][C:7]1([H:13])[H:14])[H:8]>>[O:1]([C@@:2]([C:3]([O:4][H:12])([H:10])[H:11])([C:7]([N+:6]#[C-:5])([H:13])[H:14])[H:9])[H:8]"
O       -1.03490440      -0.69789999       1.34226523
C       -0.93413002      -0.03887804       0.10452299
C       -0.08644682       1.23606151       0.26619886
O        1.11343188       0.92586111       0.92004590
C        1.93495395      -0.43288227      -0.34190920
N        1.08684402      -1.09439089      -0.83986127
C       -0.35693841      -0.96800018      -0.96014745
H       -0.19249025      -0.54801461       1.79297730
H       -1.94662455       0.23179565      -0.20969592
H        0.07910855       1.70483332      -0.71486694
H       -0.63630717       1.95535369       0.87936722
H        2.32761503       0.30000773       0.58669094
H       -0.57566712      -0.60602447      -1.96685318
H       -0.77844470      -1.96782257      -0.85873448
14
Frame=8 idx=009414 GeodesicLength=0.5704903826750762 rxn_smarts="[O:1]([C@@:2]1([H:9])[C:3]([H:10])([H:11])[O:4][C:5]([H:12])=[N:6][C:7]1([H:13])[H:14])[H:8]>>[O:1]([C@@:2]([C:3]([O:4][H:12])([H:10])[H:11])([C:7]([N+:6]#[C-:5])([H:13])[H:14])[H:9])[H:8]"
O       -1.03856889      -0.69241477       1.34432652
C       -0.93463976      -0.03712859       0.10462861
C       -0.08951553       1.23850656       0.26121780
O        1.12093990       0.92927995       0.89960948
C        1.94128368      -0.42844155      -0.35576023
N        1.08628149      -1.10221191      -0.83026345
C       -0.35489125      -0.96824656      -0.95708684
H       -0.18992805      -0.56376330       1.78888374
H       -1.94698190       0.23246388      -0.21068103
H        0.06408668       1.71214238      -0.71883888
H       -0.63100483       1.95416263       0.88515007
H        2.32552485       0.29622924       0.61033957
H       -0.57038652      -0.60468709      -1.96405351
H       -0.78219986      -1.96589088      -0.85747185
14
Frame=9 idx=009414 GeodesicLength=0.6417226501930687 rxn_smarts="[O:1]([C@@:2]1([H:9])[C:3]([H:10])([H:11])[O:4][C:5]([H:12])=[N:6][C:7]1([H:13])[H:14])[H:8]>>[O:1]([C@@:2]([C:3]([O:4][H:12])([H:10])[H:11])([C:7]([N+:6]#[C-:5])([H:13])[H:14])[H:9])[H:8]"
O       -1.04192413      -0.68692640       1.34642295
C       -0.93504174      -0.03537040       0.10477535
C       -0.09250944       1.24097832       0.25622634
O        1.12854871       0.93286535       0.87868042
C        1.94747074      -0.42468037      -0.36922437
N        1.08582208      -1.10967959      -0.82079639
C       -0.35274590      -0.96844090      -0.95403375
H       -0.18764363      -0.57962249       1.78479707
H       -1.94727287       0.23307490      -0.21153682
H        0.04889475       1.71947584      -0.72269114
H       -0.62533879       1.95292429       0.89093702
H        2.32254702       0.29260631       0.63390834
H       -0.56508505      -0.60328026      -1.96122739
H       -0.78572175      -1.96392461      -0.85623764
14
Frame=10 idx=009414 GeodesicLength=0.7130548976034695 rxn_smarts="[O:1]([C@@:2]1([H:9])[C:3]([H:10])([H:11])[O:4][C:5]([H:12])=[N:6][C:7]1([H:13])[H:14])[H:8]>>[O:1]([C@@:2]([C:3]([O:4][H:12])([H:10])[H:11])([C:7]([N+:6]#[C-:5])([H:13])[H:14])[H:9])[H:8]"
O       -1.04500230      -0.68144495       1.34854618
C       -0.93533705      -0.03360685       0.10496330
C       -0.09540417       1.24345331       0.25123501
O        1.13625896       0.93655376       0.85725925
C        1.95354168      -0.42166334      -0.38227788
N        1.08543903      -1.11686979      -0.81144840
C       -0.35052273      -0.96859100      -0.95099133
H       -0.18566166      -0.59565084       1.78070774
H       -1.94749091       0.23365667      -0.21226494
H        0.03357258       1.72681409      -0.72639842
H       -0.61926669       1.95162190       0.89673159
H        2.31870237       0.28943810       0.65736217
H       -0.55976066      -0.60179240      -1.95837412
H       -0.78906846      -1.96191866      -0.85505014
14
Frame=11 idx=009414 GeodesicLength=0.784341468872392 rxn_smarts="[O:1]([C@@:2]1([H:9])[C:3]([H:10])([H:11])[O:4][C:5]([H:12])=[N:6][C:7]1([H:13])[H:14])[H:8]>>[O:1]([C@@:2]([C:3]([O:4][H:12])([H:10])[H:11])([C:7]([N+:6]#[C-:5])([H:13])[H:14])[H:9])[H:8]"
O       -1.04779570      -0.67596483       1.35070504
C       -0.93551948      -0.03183813       0.10519583
C       -0.09819663       1.24592872       0.24623520
O        1.14406725       0.94035131       0.83530665
C        1.95951868      -0.41934531      -0.39496684
N        1.08511826      -1.12380799      -0.80222070
C       -0.34822872      -0.96869672      -0.94796178
H       -0.18397071      -0.61186638       1.77660970
H       -1.94762851       0.23420637      -0.21285757
H        0.01809827       1.73415106      -0.72996424
H       -0.61276282       1.95024906       0.90252972
H        2.31397205       0.28672134       0.68079692
H       -0.55441294      -0.60022215      -1.95549851
H       -0.79225900      -1.95986636      -0.85390943
14
Frame=12 idx=009414 GeodesicLength=0.8556605606041149 rxn_smarts="[O:1]([C@@:2]1([H:9])[C:3]([H:10])([H:11])[O:4][C:5]([H:12])=[N:6][C:7]1([H:13])[H:14])[H:8]>>[O:1]([C@@:2]([C:3]([O:4][H:12])([H:10])[H:11])([C:7]([N+:6]#[C-:5])([H:13])[H:14])[H:9])[H:8]"
O       -1.05032834      -0.67049059       1.35289805
C       -0.93559042      -0.03006588       0.10547404
C       -0.10086607       1.24839303       0.24123438
O        1.15198027       0.94421277       0.81281016
C        1.96543558      -0.41773366      -0.40732738
N        1.08484445      -1.13055609      -0.79309833
C       -0.34587823      -0.96876968      -0.94494601
H       -0.18259151      -0.62831760       1.77249274
H       -1.94768516       0.23474343      -0.21331524
H        0.00250002       1.74148323      -0.73336629
H       -0.60578765       1.94879831       0.90833683
H        2.30834372       0.28464555       0.70423163
H       -0.54904089      -0.59857013      -1.95260028
H       -0.79533576      -1.95777267      -0.85282430
14
Frame=13 idx=009414 GeodesicLength=0.9269986031950956 rxn_smarts="[O:1]([C@@:2]1([H:9])[C:3]([H:10])([H:11])[O:4][C:5]([H:12])=[N:6][C:7]1([H:13])[H:14])[H:8]>>[O:1]([C@@:2]([C:3]([O:4][H:12])([H:10])[H:11])([C:7]([N+:6]#[C-:5])([H:13])[H:14])[H:9])[H:8]"
O       -1.05261123      -0.66502590       1.35512485
C       -0.93554649      -0.02829161       0.10579937
C       -0.10339647       1.25083245       0.23623824
O        1.15999594       0.94810030       0.78975470
C        1.97130881      -0.41682227      -0.41939902
N        1.08460086      -1.13715516      -0.78406820
C       -0.34348082      -0.96881501      -0.94194508
H       -0.18154547      -0.64503255       1.76835387
H       -1.94765241       0.23528025      -0.21363752
H       -0.01320424       1.74880017      -0.73658587
H       -0.59830580       1.94725612       0.91415435
H        2.30180522       0.28334338       0.72769150
H       -0.54364282      -0.59683580      -1.94968055
H       -0.79832508      -1.95563437      -0.85180062
14
Frame=14 idx=009414 GeodesicLength=0.9983589516059976 rxn_smarts="[O:1]([C@@:2]1([H:9])[C:3]([H:10])([H:11])[O:4][C:5]([H:12])=[N:6][C:7]1([H:13])[H:14])[H:8]>>[O:1]([C@@:2]([C:3]([O:4][H:12])([H:10])[H:11])([C:7]([N+:6]#[C-:5])([H:13])[H:14])[H:9])[H:8]"
O       -1.05465760      -0.65957322       1.35738573
C       -0.93538504      -0.02651624       0.10617303
C       -0.10576931       1.25323557       0.23125387
O        1.16811589       0.95197355       0.76612556
C        1.97715663      -0.41660204      -0.43122885
N        1.08437498      -1.14364585      -0.77511415
C       -0.34104452      -0.96884028      -0.93895843
H       -0.18085625      -0.66204617       1.76418643
H       -1.94752359       0.23583132      -0.21382552
H       -0.02899230       1.75609759      -0.73960112
H       -0.59027956       1.94561018       0.91998609
H        2.29432869       0.28294976       0.75119742
H       -0.53821636      -0.59502180      -1.94673889
H       -0.80125164      -1.95345239      -0.85084117
14
Frame=15 idx=009414 GeodesicLength=1.0697327885680883 rxn_smarts="[O:1]([C@@:2]1([H:9])[C:3]([H:10])([H:11])[O:4][C:5]([H:12])=[N:6][C:7]1([H:13])[H:14])[H:8]>>[O:1]([C@@:2]([C:3]([O:4][H:12])([H:10])[H:11])([C:7]([N+:6]#[C-:5])([H:13])[H:14])[H:9])[H:8]"
O       -1.05647901      -0.65413474       1.35968056
C       -0.93510276      -0.02474054       0.10659616
C       -0.10796565       1.25559066       0.22628989
O        1.17634009       0.95579125       0.74191057
C        1.98299203      -0.41706166      -0.44286746
N        1.08415560      -1.15006252      -0.76622003
C       -0.33857572      -0.96885289      -0.93598532
H       -0.18055162      -0.67938908       1.75998473
H       -1.94729081       0.23641030      -0.21388100
H       -0.04484050       1.76337073      -0.74238775
H       -0.58167123       1.94384699       0.92583623
H        2.28588374       0.28359221       0.77476587
H       -0.53275921      -0.59313291      -1.94377483
H       -0.80413497      -1.95122780      -0.84994761
14
Frame=16 idx=009414 GeodesicLength=1.1411156188404148 rxn_smarts="[O:1]([C@@:2]1([H:9])[C:3]([H:10])([H:11])[O:4][C:5]([H:12])=[N:6][C:7]1([H:13])[H:14])[H:8]>>[O:1]([C@@:2]([C:3]([O:4][H:12])([H:10])[H:11])([C:7]([N+:6]#[C-:5])([H:13])[H:14])[H:9])[H:8]"
O       -1.05808735      -0.64871308       1.36200903
C       -0.93469608      -0.02296518       0.10706979
C       -0.10996444       1.25788577       0.22135651
O        1.18466842       0.95950780       0.71710195
C        1.98882514      -0.41819076      -0.45436720
N        1.08393314      -1.15643628      -0.75736885
C       -0.33607970      -0.96886089      -0.93302418
H       -0.18066375      -0.69709419       1.75574213
H       -1.94694549       0.23703199      -0.21380684
H       -0.06071977       1.77061621      -0.74491877
H       -0.57244166       1.94195188       0.93170940
H        2.27643266       0.28540504       0.79840385
H       -0.52726923      -0.59117537      -1.94078709
H       -0.80699191      -1.94896292      -0.84911975
