19
Frame=0 idx=009168 GeodesicLength=0.0 rxn_smarts="[C:1]([C:2]([O:3][C:4]([C:5]([O:6][C:7]([H:17])([H:18])[H:19])([H:15])[H:16])([H:13])[H:14])([H:11])[H:12])([H:8])([H:9])[H:10]>>[C-:2]([O+:3]=[C:4]([C:5]([O:6][C:7]([H:17])([H:18])[H:19])([H:15])[H:16])[H:13])([H:11])[H:12].[C:1]([H:8])([H:9])([H:10])[H:14]"
C        2.26871663       0.96563832       0.60829907
C        2.26956957      -0.96169185      -0.82420375
O        1.00405311      -0.84300903      -1.09720055
C        0.17917170      -0.64423983      -0.03806983
C       -1.23245999      -0.34768879      -0.45033613
O       -1.87113162       0.25481690       0.64718729
C       -3.22747554       0.51424980       0.40461498
H        1.79682278       1.58564697       1.37776483
H        2.54362018       1.61353775      -0.22114995
H        3.16329548       0.53224339       1.04850735
H        2.56699461      -1.56371448       0.02711639
H        2.92509481      -0.87660744      -1.68093292
H        0.28778802      -1.38707709       0.75608117
H        1.11562058       0.32770772       0.45316105
H       -1.22493401       0.32264044      -1.32209388
H       -1.78215427      -1.25895957      -0.74134500
H       -3.77987895      -0.40768276       0.17790720
H       -3.36091590       1.21254081      -0.43232346
H       -3.64179723       0.96164883       1.30701605
19
Frame=1 idx=009168 GeodesicLength=0.08086072034540082 rxn_smarts="[C:1]([C:2]([O:3][C:4]([C:5]([O:6][C:7]([H:17])([H:18])[H:19])([H:15])[H:16])([H:13])[H:14])([H:11])[H:12])([H:8])([H:9])[H:10]>>[C-:2]([O+:3]=[C:4]([C:5]([O:6][C:7]([H:17])([H:18])[H:19])([H:15])[H:16])[H:13])([H:11])[H:12].[C:1]([H:8])([H:9])([H:10])[H:14]"
C        2.28215652       0.97048640       0.60002065
C        2.27173710      -0.95674912      -0.80996786
O        1.00393992      -0.84142334      -1.08926435
C        0.17132846      -0.65373047      -0.03482072
C       -1.23576363      -0.34727959      -0.45255305
O       -1.87845269       0.24689030       0.64785165
C       -3.23328928       0.51066875       0.40170943
H        1.83875676       1.58155787       1.39296400
H        2.53329944       1.63195982      -0.22687363
H        3.19763104       0.54926211       1.00927433
H        2.56568468      -1.56408435       0.03943340
H        2.92270080      -0.89736732      -1.67255575
H        0.27538494      -1.40542668       0.75138732
H        1.09424973       0.33729084       0.47542614
H       -1.22345721       0.33255748      -1.31680012
H       -1.78541461      -1.25417509      -0.75611449
H       -3.78685179      -0.40683920       0.16021798
H       -3.36122288       1.21987571      -0.42691288
H       -3.65241730       0.94652589       1.30757798
19
Frame=2 idx=009168 GeodesicLength=0.16158353147393514 rxn_smarts="[C:1]([C:2]([O:3][C:4]([C:5]([O:6][C:7]([H:17])([H:18])[H:19])([H:15])[H:16])([H:13])[H:14])([H:11])[H:12])([H:8])([H:9])[H:10]>>[C-:2]([O+:3]=[C:4]([C:5]([O:6][C:7]([H:17])([H:18])[H:19])([H:15])[H:16])[H:13])([H:11])[H:12].[C:1]([H:8])([H:9])([H:10])[H:14]"
C        2.29551401       0.97529713       0.59160262
C        2.27394389      -0.95191004      -0.79571990
O        1.00387114      -0.83980284      -1.08122049
C        0.16362527      -0.66301294      -0.03159229
C       -1.23888814      -0.34670004      -0.45467870
O       -1.88571518       0.23891334       0.64857119
C       -3.23902170       0.50703567       0.39886675
H        1.88078072       1.57685000       1.40676745
H        2.52315395       1.65025818      -0.23182532
H        3.23062311       0.56650483       0.96924178
H        2.56443056      -1.56411441       0.05203954
H        2.92019157      -0.91827820      -1.66347848
H        0.26295766      -1.42391973       0.74615959
H        1.07283832       0.34680655       0.49800080
H       -1.22182578       0.34267529      -1.31119395
H       -1.78835492      -1.24907439      -0.77089432
H       -3.79358672      -0.40584781       0.14247505
H       -3.36146509       1.22715616      -0.42117362
H       -3.66307267       0.93116327       1.30805229
19
Frame=3 idx=009168 GeodesicLength=0.2421940034850615 rxn_smarts="[C:1]([C:2]([O:3][C:4]([C:5]([O:6][C:7]([H:17])([H:18])[H:19])([H:15])[H:16])([H:13])[H:14])([H:11])[H:12])([H:8])([H:9])[H:10]>>[C-:2]([O+:3]=[C:4]([C:5]([O:6][C:7]([H:17])([H:18])[H:19])([H:15])[H:16])[H:13])([H:11])[H:12].[C:1]([H:8])([H:9])([H:10])[H:14]"
C        2.30884629       0.98009710       0.58302206
C        2.27619333      -0.94715517      -0.78145720
O        1.00384735      -0.83814839      -1.07307068
C        0.15605289      -0.67210985      -0.02838578
C       -1.24184229      -0.34596824      -0.45671055
O       -1.89292008       0.23089506       0.64933305
C       -3.24467367       0.50336277       0.39607654
H        1.92287172       1.57144646       1.41925957
H        2.51319566       1.66847835      -0.23603637
H        3.26229919       0.58393379       0.92842257
H        2.56323286      -1.56378965       0.06494470
H        2.91757010      -0.93929702      -1.65370457
H        0.25051842      -1.44254412       0.74039355
H        1.05134209       0.35625550       0.52087656
H       -1.22005433       0.35295155      -1.30528715
H       -1.79098797      -1.24367715      -0.78565589
H       -3.80008798      -0.40470217       0.12471143
H       -3.36165233       1.23435671      -0.41514147
H       -3.67375126       0.91561446       1.30840961
19
Frame=4 idx=009168 GeodesicLength=0.3227271702503227 rxn_smarts="[C:1]([C:2]([O:3][C:4]([C:5]([O:6][C:7]([H:17])([H:18])[H:19])([H:15])[H:16])([H:13])[H:14])([H:11])[H:12])([H:8])([H:9])[H:10]>>[C-:2]([O+:3]=[C:4]([C:5]([O:6][C:7]([H:17])([H:18])[H:19])([H:15])[H:16])[H:13])([H:11])[H:12].[C:1]([H:8])([H:9])([H:10])[H:14]"
C        2.32221349       0.98491552       0.57423717
C        2.27848541      -0.94246819      -0.76716431
O        1.00386897      -0.83645529      -1.06480788
C        0.14860046      -0.68104029      -0.02519589
C       -1.24463494      -0.34509602      -0.45864253
O       -1.90008104       0.22281912       0.65013633
C       -3.25025251       0.49964994       0.39332734
H        1.96504026       1.56529856       1.43048568
H        2.50344591       1.68665911      -0.23955098
H        3.29268976       0.60151363       0.88681243
H        2.56208587      -1.56309058       0.07817580
H        2.91483543      -0.96040960      -1.64322050
H        0.23807532      -1.46128716       0.73409073
H        1.02971087       0.36564266       0.54406036
H       -1.21815214       0.36337030      -1.29907029
H       -1.79332108      -1.23798925      -0.80039346
H       -3.80636590      -0.40338501       0.10690546
H       -3.36178277       1.24148172      -0.40881372
H       -3.68446138       0.89987081       1.30862826
19
Frame=5 idx=009168 GeodesicLength=0.4031967608259994 rxn_smarts="[C:1]([C:2]([O:3][C:4]([C:5]([O:6][C:7]([H:17])([H:18])[H:19])([H:15])[H:16])([H:13])[H:14])([H:11])[H:12])([H:8])([H:9])[H:10]>>[C-:2]([O+:3]=[C:4]([C:5]([O:6][C:7]([H:17])([H:18])[H:19])([H:15])[H:16])[H:13])([H:11])[H:12].[C:1]([H:8])([H:9])([H:10])[H:14]"
C        2.33567619       0.98978137       0.56521443
C        2.28082188      -0.93782993      -0.75283884
O        1.00393590      -0.83470547      -1.05643387
C        0.14125964      -0.68980592      -0.02202535
C       -1.24727548      -0.34408834      -0.46047596
O       -1.90720722       0.21469836       0.65096717
C       -3.25577288       0.49589356       0.39061228
H        2.00731425       1.55833810       1.44047997
H        2.49397212       1.70484743      -0.24237990
H        3.32179893       0.61918194       0.84445294
H        2.56097732      -1.56200738       0.09174381
H        2.91199078      -0.98158995      -1.63202567
H        0.22563715      -1.48012086       0.72724418
H        1.00789565       0.37498437       0.56754846
H       -1.21613703       0.37390828      -1.29255719
H       -1.79536160      -1.23202321      -0.81508754
H       -3.81242941      -0.40192746       0.08910404
H       -3.36188663       1.24849005      -0.40223626
H       -3.69520955       0.88397507       1.30869328
19
Frame=6 idx=009168 GeodesicLength=0.48365610316676955 rxn_smarts="[C:1]([C:2]([O:3][C:4]([C:5]([O:6][C:7]([H:17])([H:18])[H:19])([H:15])[H:16])([H:13])[H:14])([H:11])[H:12])([H:8])([H:9])[H:10]>>[C-:2]([O+:3]=[C:4]([C:5]([O:6][C:7]([H:17])([H:18])[H:19])([H:15])[H:16])[H:13])([H:11])[H:12].[C:1]([H:8])([H:9])([H:10])[H:14]"
C        2.34929740       0.99472353       0.55589398
C        2.28319927      -0.93322552      -0.73845221
O        1.00404826      -0.83288079      -1.04793270
C        0.13401724      -0.69842176      -0.01886318
C       -1.24977390      -0.34295014      -0.46220137
O       -1.91432401       0.20649643       0.65183262
C       -3.26124970       0.49208048       0.38791886
H        2.04973908       1.55053232       1.44924236
H        2.48481730       1.72307756      -0.24457268
H        3.34966675       0.63691076       0.80132134
H        2.55989410      -1.56051311       0.10569058
H        2.90903198      -1.00284038      -1.62009053
H        0.21320528      -1.49903880       0.71985249
H        0.98583542       0.38427761       0.59138026
H       -1.21401658       0.38457088      -1.28572045
H       -1.79711180      -1.22577022      -0.82975283
H       -3.81829197      -0.40030457       0.07124876
H       -3.36196250       1.25539728      -0.39537811
H       -3.70602163       0.86787843       1.30858280
19
Frame=7 idx=009168 GeodesicLength=0.5641102366218806 rxn_smarts="[C:1]([C:2]([O:3][C:4]([C:5]([O:6][C:7]([H:17])([H:18])[H:19])([H:15])[H:16])([H:13])[H:14])([H:11])[H:12])([H:8])([H:9])[H:10]>>[C-:2]([O+:3]=[C:4]([C:5]([O:6][C:7]([H:17])([H:18])[H:19])([H:15])[H:16])[H:13])([H:11])[H:12].[C:1]([H:8])([H:9])([H:10])[H:14]"
C        2.36312878       0.99976420       0.54623294
C        2.28561592      -0.92864300      -0.72398927
O        1.00420438      -0.83096254      -1.03929667
C        0.12686335      -0.70688949      -0.01570529
C       -1.25213930      -0.34168134      -0.46381699
O       -1.92145157       0.19820197       0.65273051
C       -3.26670237       0.48819737       0.38524154
H        2.09236260       1.54186102       1.45675491
H        2.47606506       1.74138749      -0.24614443
H        3.37631279       0.65464494       0.75743740
H        2.55881816      -1.55859612       0.12004122
H        2.90595830      -1.02414771      -1.60739861
H        0.20078173      -1.51802096       0.71190742
H        0.96347537       0.39352535       0.61557753
H       -1.21180116       0.39536256      -1.27855257
H       -1.79857325      -1.21922514      -0.84439480
H       -3.82396620      -0.39853691       0.05333622
H       -3.36203237       1.26218465      -0.38824856
H       -3.71692022       0.85157367       1.30828751
19
Frame=8 idx=009168 GeodesicLength=0.6445925534852625 rxn_smarts="[C:1]([C:2]([O:3][C:4]([C:5]([O:6][C:7]([H:17])([H:18])[H:19])([H:15])[H:16])([H:13])[H:14])([H:11])[H:12])([H:8])([H:9])[H:10]>>[C-:2]([O+:3]=[C:4]([C:5]([O:6][C:7]([H:17])([H:18])[H:19])([H:15])[H:16])[H:13])([H:11])[H:12].[C:1]([H:8])([H:9])([H:10])[H:14]"
C        2.37722270       1.00493317       0.53616370
C        2.28807087      -0.92407001      -0.70942080
O        1.00440320      -0.82892307      -1.03050665
C        0.11978613      -0.71521113      -0.01253902
C       -1.25438000      -0.34027334      -0.46531305
O       -1.92861988       0.18977554       0.65366731
C       -3.27215346       0.48422125       0.38256963
H        2.13525009       1.53230819       1.46296221
H        2.46779771       1.75981876      -0.24713439
H        3.40176246       0.67233163       0.71278856
H        2.55773068      -1.55623270       0.13484186
H        2.90276619      -1.04552660      -1.59391176
H        0.18836450      -1.53705416       0.70340213
H        0.94075403       0.40272140       0.64019975
H       -1.20949609       0.40630993      -1.27101564
H       -1.79974298      -1.21236310      -0.85903634
H       -3.82946583      -0.39661566       0.03530702
H       -3.36210557       1.26885826      -0.38081471
H       -3.72794475       0.83499164       1.30779021
19
Frame=9 idx=009168 GeodesicLength=0.7250264466664919 rxn_smarts="[C:1]([C:2]([O:3][C:4]([C:5]([O:6][C:7]([H:17])([H:18])[H:19])([H:15])[H:16])([H:13])[H:14])([H:11])[H:12])([H:8])([H:9])[H:10]>>[C-:2]([O+:3]=[C:4]([C:5]([O:6][C:7]([H:17])([H:18])[H:19])([H:15])[H:16])[H:13])([H:11])[H:12].[C:1]([H:8])([H:9])([H:10])[H:14]"
C        2.39167347       1.01016864       0.52570915
C        2.29054979      -0.91952546      -0.69477555
O        1.00463707      -0.82671114      -1.02159672
C        0.11278351      -0.72336140      -0.00938974
C       -1.25650577      -0.33871164      -0.46669868
O       -1.93583680       0.18124224       0.65462628
C       -3.27763491       0.48011416       0.37992631
H        2.17821238       1.52224654       1.46765661
H        2.46046424       1.77834213      -0.24742547
H        3.42598362       0.68977528       0.66765603
H        2.55657613      -1.55350198       0.15001768
H        2.89943359      -1.06693892      -1.57972179
H        0.17596052      -1.55609270       0.69429517
H        0.91763728       0.41188520       0.66523390
H       -1.20713269       0.41741735      -1.26312155
H       -1.80062138      -1.20517459      -0.87366774
H       -3.83479439      -0.39464924       0.01728675
H       -3.36227523       1.27531434      -0.37312470
H       -3.73911043       0.81816117       1.30711405
19
Frame=10 idx=009168 GeodesicLength=0.805507337745897 rxn_smarts="[C:1]([C:2]([O:3][C:4]([C:5]([O:6][C:7]([H:17])([H:18])[H:19])([H:15])[H:16])([H:13])[H:14])([H:11])[H:12])([H:8])([H:9])[H:10]>>[C-:2]([O+:3]=[C:4]([C:5]([O:6][C:7]([H:17])([H:18])[H:19])([H:15])[H:16])[H:13])([H:11])[H:12].[C:1]([H:8])([H:9])([H:10])[H:14]"
C        2.40648327       1.01557992       0.51471801
C        2.29305944      -0.91496765      -0.67997891
O        1.00491135      -0.82432908      -1.01250069
C        0.10583787      -0.73136823      -0.00621396
C       -1.25852152      -0.33699729      -0.46794920
O       -1.94314720       0.17252318       0.65562591
C       -3.28315818       0.47587426       0.37726785
H        2.22152683       1.51127590       1.47098804
H        2.45380159       1.79705461      -0.24720513
H        3.44908860       0.70707555       0.62175231
H        2.55537437      -1.55027268       0.16571743
H        2.89596361      -1.08842881      -1.56468313
H        0.16356316      -1.57515124       0.68460268
H        0.89403053       0.42096520       0.69080467
H       -1.20469056       0.42872102      -1.25479838
H       -1.80119899      -1.19762583      -0.88833125
H       -3.83997026      -0.39253967      -0.00091600
H       -3.36248532       1.28163872      -0.36510264
H       -3.75046858       0.80097214       1.30620237
19
Frame=11 idx=009168 GeodesicLength=0.8860441299343794 rxn_smarts="[C:1]([C:2]([O:3][C:4]([C:5]([O:6][C:7]([H:17])([H:18])[H:19])([H:15])[H:16])([H:13])[H:14])([H:11])[H:12])([H:8])([H:9])[H:10]>>[C-:2]([O+:3]=[C:4]([C:5]([O:6][C:7]([H:17])([H:18])[H:19])([H:15])[H:16])[H:13])([H:11])[H:12].[C:1]([H:8])([H:9])([H:10])[H:14]"
C        2.42169179       1.02120546       0.50313233
C        2.29559693      -0.91037616      -0.66500184
O        1.00522648      -0.82174187      -1.00319938
C        0.09893830      -0.73922680      -0.00300515
C       -1.26043361      -0.33511600      -0.46906236
O       -1.95058182       0.16360002       0.65666235
C       -3.28875340       0.47147769       0.37458506
H        2.26527754       1.49932690       1.47293751
H        2.44790914       1.81598915      -0.24651514
H        3.47112428       0.72418707       0.57503733
H        2.55410359      -1.54650932       0.18199184
H        2.89234417      -1.10999411      -1.54875246
H        0.15117105      -1.59420810       0.67430710
H        0.86986278       0.42994266       0.71698285
H       -1.20217409       0.44024838      -1.24602115
H       -1.80146779      -1.18969523      -0.90304629
H       -3.84500628      -0.39031510      -0.01931756
H       -3.36276681       1.28780988      -0.35675517
H       -3.76206226       0.78339549       1.30504015
19
Frame=12 idx=009168 GeodesicLength=0.9666545101265382 rxn_smarts="[C:1]([C:2]([O:3][C:4]([C:5]([O:6][C:7]([H:17])([H:18])[H:19])([H:15])[H:16])([H:13])[H:14])([H:11])[H:12])([H:8])([H:9])[H:10]>>[C-:2]([O+:3]=[C:4]([C:5]([O:6][C:7]([H:17])([H:18])[H:19])([H:15])[H:16])[H:13])([H:11])[H:12].[C:1]([H:8])([H:9])([H:10])[H:14]"
C        2.43733605       1.02707219       0.49087310
C        2.29815774      -0.90573623      -0.64980144
O        1.00558154      -0.81892120      -0.99366151
C        0.09207347      -0.74693420       0.00025610
C       -1.26224768      -0.33305244      -0.47002236
O       -1.95818207       0.15441727       0.65774045
C       -3.29444999       0.46689393       0.37186173
H        2.30955698       1.48638358       1.47342117
H        2.44289147       1.83518365      -0.24539582
H        3.49213533       0.74105729       0.52744051
H        2.55274243      -1.54216266       0.19890922
H        2.88855733      -1.13165403      -1.53187039
H        0.13878029      -1.61324981       0.66339514
H        0.84505267       0.43878081       0.74386287
H       -1.19958051       0.45204820      -1.23672248
H       -1.80141024      -1.18133326      -0.91784981
H       -3.84990971      -0.38795771      -0.03800677
H       -3.36313344       1.29383425      -0.34802612
H       -3.77395167       0.76533037       1.30359641
19
Frame=13 idx=009168 GeodesicLength=1.0473256718543056 rxn_smarts="[C:1]([C:2]([O:3][C:4]([C:5]([O:6][C:7]([H:17])([H:18])[H:19])([H:15])[H:16])([H:13])[H:14])([H:11])[H:12])([H:8])([H:9])[H:10]>>[C-:2]([O+:3]=[C:4]([C:5]([O:6][C:7]([H:17])([H:18])[H:19])([H:15])[H:16])[H:13])([H:11])[H:12].[C:1]([H:8])([H:9])([H:10])[H:14]"
C        2.45346757       1.03319785       0.47789225
C        2.30073601      -0.90103296      -0.63435241
O        1.00597298      -0.81582288      -0.98387057
C        0.08523219      -0.75447139       0.00357352
C       -1.26397159      -0.33078046      -0.47082606
O       -1.96598120       0.14496352       0.65885522
C       -3.30028592       0.46208460       0.36909099
H        2.35443746       1.47243544       1.47235691
H        2.43891824       1.85466379      -0.24386615
H        3.51216505       0.75760817       0.47896815
H        2.55125937      -1.53720560       0.21650890
H        2.88458759      -1.15340626      -1.51400026
H        0.12638888      -1.63223841       0.65184482
H        0.81952425       0.44745842       0.77151396
H       -1.19691881       0.46416429      -1.22687127
H       -1.80101345      -1.17250103      -0.93276603
H       -3.85469423      -0.38552690      -0.05698406
H       -3.36363888       1.29967063      -0.33893137
H       -3.78618549       0.74673918       1.30186346
19
Frame=14 idx=009168 GeodesicLength=1.128075662775279 rxn_smarts="[C:1]([C:2]([O:3][C:4]([C:5]([O:6][C:7]([H:17])([H:18])[H:19])([H:15])[H:16])([H:13])[H:14])([H:11])[H:12])([H:8])([H:9])[H:10]>>[C-:2]([O+:3]=[C:4]([C:5]([O:6][C:7]([H:17])([H:18])[H:19])([H:15])[H:16])[H:13])([H:11])[H:12].[C:1]([H:8])([H:9])([H:10])[H:14]"
C        2.47013203       1.03959995       0.46410092
C        2.30332512      -0.89625106      -0.61860198
O        1.00639920      -0.81241179      -0.97378578
C        0.07840220      -0.76182884       0.00697170
C       -1.26560906      -0.32826986      -0.47145079
O       -1.97403436       0.13516128       0.66001459
C       -3.30630025       0.45700467       0.36625212
H        2.40003463       1.45750039       1.46962704
H        2.43613617       1.87445131      -0.24198357
H        3.53125382       0.77377728       0.42951829
H        2.54962692      -1.53157401       0.23487788
H        2.88040337      -1.17529275      -1.49505697
H        0.11399208      -1.65115150       0.63964284
H        0.79318750       0.45593403       0.80004785
H       -1.19418525       0.47666881      -1.21636852
H       -1.80024729      -1.16312021      -0.94784589
H       -3.85936317      -0.38298273      -0.07638695
H       -3.36430380       1.30533260      -0.32936621
H       -3.79884987       0.72745242       1.29979344
19
Frame=15 idx=009168 GeodesicLength=1.2089012620435837 rxn_smarts="[C:1]([C:2]([O:3][C:4]([C:5]([O:6][C:7]([H:17])([H:18])[H:19])([H:15])[H:16])([H:13])[H:14])([H:11])[H:12])([H:8])([H:9])[H:10]>>[C-:2]([O+:3]=[C:4]([C:5]([O:6][C:7]([H:17])([H:18])[H:19])([H:15])[H:16])[H:13])([H:11])[H:12].[C:1]([H:8])([H:9])([H:10])[H:14]"
C        2.48739559       1.04628581       0.44943761
C        2.30591969      -0.89137854      -0.60251259
O        1.00685687      -0.80863695      -0.96337903
C        0.07157181      -0.76898308       0.01046210
C       -1.26716541      -0.32548251      -0.47188471
O       -1.98238712       0.12497527       0.66121507
C       -3.31253916       0.45160435       0.36333376
H        2.44644737       1.44159789       1.46511659
H        2.43472682       1.89456221      -0.23978341
H        3.54943714       0.78948294       0.37905085
H        2.54780832      -1.52522860       0.25407785
H        2.87598208      -1.19733130      -1.47497999
H        0.10158676      -1.66994673       0.62676577
H        0.76595605       0.46416635       0.82956369
H       -1.19138236       0.48963275      -1.20514450
H       -1.79908586      -1.15311730      -0.96312946
H       -3.86392548      -0.38036256      -0.09626489
H       -3.36518404       1.31078818      -0.31930549
H       -3.81201907       0.70737181       1.29736079
19
Frame=16 idx=009168 GeodesicLength=1.289794271243525 rxn_smarts="[C:1]([C:2]([O:3][C:4]([C:5]([O:6][C:7]([H:17])([H:18])[H:19])([H:15])[H:16])([H:13])[H:14])([H:11])[H:12])([H:8])([H:9])[H:10]>>[C-:2]([O+:3]=[C:4]([C:5]([O:6][C:7]([H:17])([H:18])[H:19])([H:15])[H:16])[H:13])([H:11])[H:12].[C:1]([H:8])([H:9])([H:10])[H:14]"
C        2.50531364       1.05326045       0.43382060
C        2.30851587      -0.88641097      -0.58603172
O        1.00734398      -0.80446320      -0.95260822
C        0.06473004      -0.77592144       0.01406789
C       -1.26864041      -0.32237685      -0.47210331
O       -1.99109631       0.11432868       0.66246347
C       -3.31904654       0.44582933       0.36031619
H        2.49378268       1.42478386       1.45867988
H        2.43484910       1.91501281      -0.23731223
H        3.56674331       0.80466407       0.32745273
H        2.54576996      -1.51811275       0.27419864
H        2.87129332      -1.21957577      -1.45367862
H        0.08916873      -1.68859405       0.61319336
H        0.73773909       0.47209002       0.86018287
H       -1.18849906       0.50314804      -1.19308321
H       -1.79749008      -1.14239134      -0.97867548
H       -3.86838395      -0.37764029      -0.11675950
H       -3.36630402       1.31604874      -0.30864715
H       -3.82578935       0.68632065       1.29452382
