16
Frame=0 idx=007611 GeodesicLength=0.0 rxn_smarts="[C:1]([C@@:2]1([H:11])[N:3]([H:12])[C@:4]1([C:5]([C:6](=[O:7])[H:16])([H:14])[H:15])[H:13])([H:8])([H:9])[H:10]>>[C:1]([C@@:2]1([H:11])[N:3]([H:12])[C:4]1([H:13])[H:14])([H:8])([H:9])[H:10].[C:5](=[C:6]=[O:7])([H:15])[H:16]"
C       -1.43156674      -0.19640013       1.22385463
C       -1.37623258       0.12141101      -0.24081881
N       -1.20471535       1.52889082      -0.61253810
C       -0.14671525       0.58967772      -0.89331633
C        2.14776627       0.22064651      -0.01539901
C        2.07260523      -1.12734062       0.25740201
O        1.32787016      -2.03395779       0.51864088
H       -0.76511933       0.46403774       1.78009326
H       -2.44394867      -0.06335422       1.60941847
H       -1.11699149      -1.22697253       1.39361804
H       -2.02788097      -0.47565142      -0.87321838
H       -1.70381302       1.78319727      -1.45534534
H        0.10097054       0.30578149      -1.90756738
H        0.73877272       0.79455935      -0.20741729
H        2.60795633       0.52157269      -0.95573888
H        3.22104222      -1.20609795       0.37833222
16
Frame=1 idx=007611 GeodesicLength=0.09586924097782769 rxn_smarts="[C:1]([C@@:2]1([H:11])[N:3]([H:12])[C@:4]1([C:5]([C:6](=[O:7])[H:16])([H:14])[H:15])[H:13])([H:8])([H:9])[H:10]>>[C:1]([C@@:2]1([H:11])[N:3]([H:12])[C:4]1([H:13])[H:14])([H:8])([H:9])[H:10].[C:5](=[C:6]=[O:7])([H:15])[H:16]"
C       -1.43312195      -0.18361688       1.23093409
C       -1.36354098       0.11633476      -0.23711673
N       -1.21096847       1.52222136      -0.62196587
C       -0.13441361       0.59651135      -0.88338288
C        2.13617248       0.19607015      -0.01653442
C        2.06053552      -1.16002240       0.21259789
O        1.32245107      -2.06882591       0.47626087
H       -0.78044467       0.49065649       1.78688970
H       -2.45124391      -0.05699996       1.60331429
H       -1.10985890      -1.20855527       1.41805100
H       -2.00066605      -0.49702695      -0.86871488
H       -1.70861352       1.75807718      -1.47092877
H        0.11222336       0.31339317      -1.89873614
H        0.74400628       0.83216545      -0.17193040
H        2.59838893       0.53370641      -0.94261794
H        3.21909441      -1.18408894       0.38388020
16
Frame=2 idx=007611 GeodesicLength=0.19171141266849928 rxn_smarts="[C:1]([C@@:2]1([H:11])[N:3]([H:12])[C@:4]1([C:5]([C:6](=[O:7])[H:16])([H:14])[H:15])[H:13])([H:8])([H:9])[H:10]>>[C:1]([C@@:2]1([H:11])[N:3]([H:12])[C:4]1([H:13])[H:14])([H:8])([H:9])[H:10].[C:5](=[C:6]=[O:7])([H:15])[H:16]"
C       -1.43292421      -0.17097771       1.23812340
C       -1.35071677       0.11139276      -0.23304122
N       -1.21612725       1.51504262      -0.63164224
C       -0.12246114       0.60236327      -0.87474587
C        2.12288738       0.17306241      -0.01689126
C        2.04821327      -1.18948418       0.17145547
O        1.31491643      -2.10264845       0.42495300
H       -0.79362182       0.51709280       1.79273374
H       -2.45619013      -0.05113997       1.59854838
H       -1.10058320      -1.18986064       1.44218678
H       -1.97424746      -0.51773698      -0.86271177
H       -1.71268766       1.73263392      -1.48609859
H        0.12229534       0.31861658      -1.89103660
H        0.74939599       0.86789925      -0.13907307
H        2.58926219       0.54553681      -0.92675554
H        3.21258904      -1.16179250       0.39399539
16
Frame=3 idx=007611 GeodesicLength=0.2876707226387299 rxn_smarts="[C:1]([C@@:2]1([H:11])[N:3]([H:12])[C@:4]1([C:5]([C:6](=[O:7])[H:16])([H:14])[H:15])[H:13])([H:8])([H:9])[H:10]>>[C:1]([C@@:2]1([H:11])[N:3]([H:12])[C:4]1([H:13])[H:14])([H:8])([H:9])[H:10].[C:5](=[C:6]=[O:7])([H:15])[H:16]"
C       -1.43138262      -0.15853916       1.24522975
C       -1.33786728       0.10661425      -0.22872653
N       -1.22023857       1.50749819      -0.64137535
C       -0.11084448       0.60735071      -0.86718953
C        2.10820020       0.15131355      -0.01674029
C        2.03596091      -1.21639054       0.13293495
O        1.30605744      -2.13494459       0.36800327
H       -0.80527589       0.54332173       1.79764799
H       -2.45928787      -0.04597587       1.59466335
H       -1.08946794      -1.17090994       1.46577599
H       -1.94864300      -0.53769398      -0.85556269
H       -1.71598093       1.70712314      -1.50066997
H        0.13132832       0.32187143      -1.88424877
H        0.75489650       0.90187207      -0.10830265
H        2.58025101       0.55710673      -0.90862750
H        3.20229419      -1.13961772       0.40718796
16
Frame=4 idx=007611 GeodesicLength=0.3836550929896784 rxn_smarts="[C:1]([C@@:2]1([H:11])[N:3]([H:12])[C@:4]1([C:5]([C:6](=[O:7])[H:16])([H:14])[H:15])[H:13])([H:8])([H:9])[H:10]>>[C:1]([C@@:2]1([H:11])[N:3]([H:12])[C:4]1([H:13])[H:14])([H:8])([H:9])[H:10].[C:5](=[C:6]=[O:7])([H:15])[H:16]"
C       -1.42809936      -0.14617494       1.25229750
C       -1.32478645       0.10191240      -0.22417811
N       -1.22367405       1.49947159      -0.65119781
C       -0.09958639       0.61169265      -0.86080717
C        2.09208221       0.13057247      -0.01613108
C        2.02345961      -1.24118424       0.09573320
O        1.29564414      -2.16542490       0.30456508
H       -0.81535461       0.56977773       1.80158426
H       -2.46013635      -0.04166374       1.59181672
H       -1.07571177      -1.15137605       1.48898154
H       -1.92329784      -0.55735674      -0.84722887
H       -1.71900859       1.68112912      -1.51463027
H        0.13941694       0.32352251      -1.87846944
H        0.76048035       0.93455038      -0.07967379
H        2.57152388       0.56842473      -0.88798762
H        3.18704828      -1.11787297       0.42532585
16
Frame=5 idx=007611 GeodesicLength=0.4797166792035205 rxn_smarts="[C:1]([C@@:2]1([H:11])[N:3]([H:12])[C@:4]1([C:5]([C:6](=[O:7])[H:16])([H:14])[H:15])[H:13])([H:8])([H:9])[H:10]>>[C:1]([C@@:2]1([H:11])[N:3]([H:12])[C:4]1([H:13])[H:14])([H:8])([H:9])[H:10].[C:5](=[C:6]=[O:7])([H:15])[H:16]"
C       -1.42408989      -0.13432218       1.25905178
C       -1.31197885       0.09747146      -0.21965386
N       -1.22610251       1.49133794      -0.66069992
C       -0.08868337       0.61522804      -0.85532951
C        2.07517200       0.11079323      -0.01566542
C        2.01152974      -1.26394033       0.06044495
O        1.28540156      -2.19343128       0.24013904
H       -0.82425516       0.59514856       1.80478344
H       -2.45977113      -0.03791482       1.58959144
H       -1.06131102      -1.13214022       1.51102786
H       -1.89914642      -0.57580021      -0.83847749
H       -1.72116597       1.65575419      -1.52767770
H        0.14657196       0.32370324      -1.87353439
H        0.76618966       0.96555487      -0.05250075
H        2.56258348       0.57897002      -0.86640756
H        3.16905594      -1.09641250       0.44490808
16
Frame=6 idx=007611 GeodesicLength=0.575916408526935 rxn_smarts="[C:1]([C@@:2]1([H:11])[N:3]([H:12])[C@:4]1([C:5]([C:6](=[O:7])[H:16])([H:14])[H:15])[H:13])([H:8])([H:9])[H:10]>>[C:1]([C@@:2]1([H:11])[N:3]([H:12])[C:4]1([H:13])[H:14])([H:8])([H:9])[H:10].[C:5](=[C:6]=[O:7])([H:15])[H:16]"
C       -1.41921094      -0.12275804       1.26564255
C       -1.29932272       0.09319809      -0.21509074
N       -1.22789589       1.48306724      -0.67011984
C       -0.07810145       0.61817490      -0.85076581
C        2.05757172       0.09180074      -0.01513074
C        1.99995257      -1.28506624       0.02635733
O        1.27514543      -2.21917067       0.17352425
H       -0.83227420       0.62017359       1.80723540
H       -2.45819136      -0.03491913       1.58803151
H       -1.04556698      -1.11278524       1.53244965
H       -1.87574155      -0.59358672      -0.82912229
H       -1.72294253       1.63061427      -1.54009398
H        0.15296870       0.32268832      -1.86939942
H        0.77206964       0.99529186      -0.02671778
H        2.55374070       0.58897892      -0.84340774
H        3.14779888      -1.07570189       0.46660766
16
Frame=7 idx=007611 GeodesicLength=0.6723817797142084 rxn_smarts="[C:1]([C@@:2]1([H:11])[N:3]([H:12])[C@:4]1([C:5]([C:6](=[O:7])[H:16])([H:14])[H:15])[H:13])([H:8])([H:9])[H:10]>>[C:1]([C@@:2]1([H:11])[N:3]([H:12])[C:4]1([H:13])[H:14])([H:8])([H:9])[H:10].[C:5](=[C:6]=[O:7])([H:15])[H:16]"
C       -1.41349379      -0.11139127       1.27211482
C       -1.28680469       0.08907827      -0.21050112
N       -1.22916415       1.47463686      -0.67948220
C       -0.06782376       0.62057743      -0.84707211
C        2.03935075       0.07347125      -0.01453326
C        1.98871839      -1.30472777      -0.00668221
O        1.26505142      -2.24260777       0.10452285
H       -0.83961132       0.64504492       1.80900495
H       -2.45545772      -0.03271454       1.58713042
H       -1.02832906      -1.09310345       1.55334018
H       -1.85296629      -0.61082042      -0.81921567
H       -1.72445484       1.60559535      -1.55194830
H        0.15869401       0.32057184      -1.86602498
H        0.77812653       1.02387675      -0.00211440
H        2.54492687       0.59836675      -0.81905893
H        3.12323767      -1.05585419       0.49051997
16
Frame=8 idx=007611 GeodesicLength=0.7693062874004652 rxn_smarts="[C:1]([C@@:2]1([H:11])[N:3]([H:12])[C@:4]1([C:5]([C:6](=[O:7])[H:16])([H:14])[H:15])[H:13])([H:8])([H:9])[H:10]>>[C:1]([C@@:2]1([H:11])[N:3]([H:12])[C:4]1([H:13])[H:14])([H:8])([H:9])[H:10].[C:5](=[C:6]=[O:7])([H:15])[H:16]"
C       -1.40697358      -0.10015856       1.27851266
C       -1.27447200       0.08510194      -0.20589378
N       -1.23003920       1.46607563      -0.68887674
C       -0.05785161       0.62251963      -0.84423426
C        2.02064505       0.05570105      -0.01384176
C        1.97781961      -1.32311104      -0.03867968
O        1.25525562      -2.26376963       0.03294895
H       -0.84641244       0.66995075       1.81010791
H       -2.45164816      -0.03140162       1.58689197
H       -1.00944321      -1.07292667       1.57381988
H       -1.83083719      -0.62762053      -0.80875969
H       -1.72588631       1.58064361      -1.56337277
H        0.16377772       0.31747569      -1.86338689
H        0.78443339       1.05145106       0.02146538
H        2.53617751       0.60712632      -0.79341289
H        3.09545478      -1.03705763       0.51671170
16
Frame=9 idx=007611 GeodesicLength=0.8666634106793487 rxn_smarts="[C:1]([C@@:2]1([H:11])[N:3]([H:12])[C@:4]1([C:5]([C:6](=[O:7])[H:16])([H:14])[H:15])[H:13])([H:8])([H:9])[H:10]>>[C:1]([C@@:2]1([H:11])[N:3]([H:12])[C:4]1([H:13])[H:14])([H:8])([H:9])[H:10].[C:5](=[C:6]=[O:7])([H:15])[H:16]"
C       -1.39926789      -0.08883265       1.28480687
C       -1.26190854       0.08114488      -0.20120684
N       -1.23053551       1.45707121      -0.69823516
C       -0.04809811       0.62398900      -0.84215462
C        2.00110412       0.03843013      -0.01297762
C        1.96680429      -1.34018463      -0.07030160
O        1.24554835      -2.28204964      -0.04233277
H       -0.85290165       0.69545107       1.81040223
H       -2.44626844      -0.03114037       1.58725033
H       -0.98812756      -1.05166310       1.59398630
H       -1.80846514      -0.64440692      -0.79761325
H       -1.72715676       1.55510276      -1.57421828
H        0.16841829       0.31336558      -1.86130242
H        0.79082696       1.07817408       0.04412945
H        2.52723963       0.61509823      -0.76600676
H        3.06278796      -1.01954962       0.54577414
16
Frame=10 idx=007611 GeodesicLength=0.9643111283141362 rxn_smarts="[C:1]([C@@:2]1([H:11])[N:3]([H:12])[C@:4]1([C:5]([C:6](=[O:7])[H:16])([H:14])[H:15])[H:13])([H:8])([H:9])[H:10]>>[C:1]([C@@:2]1([H:11])[N:3]([H:12])[C:4]1([H:13])[H:14])([H:8])([H:9])[H:10].[C:5](=[C:6]=[O:7])([H:15])[H:16]"
C       -1.39117577      -0.07774214       1.29095320
C       -1.24972021       0.07737891      -0.19658050
N       -1.23058276       1.44808253      -0.70748026
C       -0.03864511       0.62490446      -0.84077443
C        1.98143615       0.02167008      -0.01228826
C        1.95637186      -1.35612236      -0.10066921
O        1.23723509      -2.29786941      -0.11840416
H       -0.85896291       0.72044841       1.81013914
H       -2.44020055      -0.03136761       1.58817506
H       -0.96615156      -1.03022696       1.61349230
H       -1.78704623      -0.66048038      -0.78619662
H       -1.72819020       1.53002792      -1.58455008
H        0.17242878       0.30830530      -1.85981281
H        0.79748554       1.10380330       0.06620664
H        2.51815040       0.62216477      -0.73814025
H        3.02756749      -1.00297682       0.57593024
16
Frame=11 idx=007611 GeodesicLength=1.0624584484690567 rxn_smarts="[C:1]([C@@:2]1([H:11])[N:3]([H:12])[C@:4]1([C:5]([C:6](=[O:7])[H:16])([H:14])[H:15])[H:13])([H:8])([H:9])[H:10]>>[C:1]([C@@:2]1([H:11])[N:3]([H:12])[C:4]1([H:13])[H:14])([H:8])([H:9])[H:10].[C:5](=[C:6]=[O:7])([H:15])[H:16]"
C       -1.38244982      -0.06660826       1.29703244
C       -1.23761146       0.07368597      -0.19192170
N       -1.23029675       1.43887751      -0.71672076
C       -0.02940028       0.62532443      -0.84003655
C        1.96145585       0.00529820      -0.01155323
C        1.94619554      -1.37103076      -0.13043900
O        1.22997982      -2.31089484      -0.19663331
H       -0.86501775       0.74573862       1.80921541
H       -2.43320258      -0.03239120       1.58963793
H       -0.94266744      -1.00791248       1.63273103
H       -1.76587552      -0.67635469      -0.77427134
H       -1.72909376       1.50478598      -1.59445259
H        0.17601312       0.30233271      -1.85879669
H        0.80437398       1.12852200       0.08780965
H        2.50893777       0.62837514      -0.70913209
H        2.98865929      -0.98774831       0.60753082
16
Frame=12 idx=007611 GeodesicLength=1.1608849458277948 rxn_smarts="[C:1]([C@@:2]1([H:11])[N:3]([H:12])[C@:4]1([C:5]([C:6](=[O:7])[H:16])([H:14])[H:15])[H:13])([H:8])([H:9])[H:10]>>[C:1]([C@@:2]1([H:11])[N:3]([H:12])[C:4]1([H:13])[H:14])([H:8])([H:9])[H:10].[C:5](=[C:6]=[O:7])([H:15])[H:16]"
C       -1.37344514      -0.05553479       1.30298445
C       -1.22578746       0.07014053      -0.18728463
N       -1.22955631       1.42960894      -0.72581115
C       -0.02039964       0.62511859      -0.83985064
C        1.94135340      -0.01069050      -0.01099005
C        1.93651402      -1.38497664      -0.15921393
O        1.22467609      -2.32133453      -0.27571340
H       -0.87092514       0.77072503       1.80775636
H       -2.42558965      -0.03370074       1.59159746
H       -0.91868296      -0.98515406       1.65140540
H       -1.74540964      -0.69164961      -0.76205650
H       -1.72967913       1.47981859      -1.60381773
H        0.17909109       0.29535566      -1.85818933
H        0.81146816       1.15216472       0.10917870
H        2.49939754       0.63359465      -0.67970551
H        2.94697477      -0.97348583       0.63971050
16
Frame=13 idx=007611 GeodesicLength=1.2595581915484018 rxn_smarts="[C:1]([C@@:2]1([H:11])[N:3]([H:12])[C@:4]1([C:5]([C:6](=[O:7])[H:16])([H:14])[H:15])[H:13])([H:8])([H:9])[H:10]>>[C:1]([C@@:2]1([H:11])[N:3]([H:12])[C:4]1([H:13])[H:14])([H:8])([H:9])[H:10].[C:5](=[C:6]=[O:7])([H:15])[H:16]"
C       -1.36432487      -0.04446380       1.30882818
C       -1.21427430       0.06672002      -0.18264625
N       -1.22836123       1.42028670      -0.73475752
C       -0.01161249       0.62423617      -0.84013492
C        1.92127839      -0.02636182      -0.01059502
C        1.92740749      -1.39807559      -0.18716398
O        1.22152919      -2.32915997      -0.35539177
H       -0.87684918       0.79546920       1.80578860
H       -2.41756476      -0.03518741       1.59397616
H       -0.89444883      -0.96190315       1.66964368
H       -1.72569609      -0.70639914      -0.74954447
H       -1.72995123       1.45513151      -1.61267194
H        0.18168786       0.28736412      -1.85790185
H        0.81880538       1.17469944       0.13050822
H        2.48955773       0.63785036      -0.64991844
H        2.90281695      -0.96020662       0.67198131
16
Frame=14 idx=007611 GeodesicLength=1.3583834564409036 rxn_smarts="[C:1]([C@@:2]1([H:11])[N:3]([H:12])[C@:4]1([C:5]([C:6](=[O:7])[H:16])([H:14])[H:15])[H:13])([H:8])([H:9])[H:10]>>[C:1]([C@@:2]1([H:11])[N:3]([H:12])[C:4]1([H:13])[H:14])([H:8])([H:9])[H:10].[C:5](=[C:6]=[O:7])([H:15])[H:16]"
C       -1.35526530      -0.03338476       1.31455476
C       -1.20314930       0.06344150      -0.17800506
N       -1.22665551       1.41096771      -0.74349355
C       -0.00304773       0.62258521      -0.84082264
C        1.90131308      -0.04175506      -0.01045447
C        1.91897306      -1.41042273      -0.21424069
O        1.22105011      -2.33454975      -0.43525177
H       -0.88272736       0.81979316       1.80338109
H       -2.40930323      -0.03652967       1.59674140
H       -0.87046386      -0.93832076       1.68737891
H       -1.70693816      -0.72048020      -0.73679824
H       -1.72983766       1.43088318      -1.62096421
H        0.18376451       0.27827408      -1.85786528
H        0.82637626       1.19606112       0.15196236
H        2.47932857       0.64112066      -0.62006051
H        2.85658252      -0.94768368       0.70393791
16
Frame=15 idx=007611 GeodesicLength=1.4573085680811808 rxn_smarts="[C:1]([C@@:2]1([H:11])[N:3]([H:12])[C@:4]1([C:5]([C:6](=[O:7])[H:16])([H:14])[H:15])[H:13])([H:8])([H:9])[H:10]>>[C:1]([C@@:2]1([H:11])[N:3]([H:12])[C:4]1([H:13])[H:14])([H:8])([H:9])[H:10].[C:5](=[C:6]=[O:7])([H:15])[H:16]"
C       -1.34640985      -0.02226406       1.32017725
C       -1.19246886       0.06031017      -0.17334641
N       -1.22441237       1.40169016      -0.75199212
C        0.00529147       0.62009239      -0.84186057
C        1.88153734      -0.05693029      -0.01060641
C        1.91128750      -1.42211938      -0.24049603
O        1.22362088      -2.33764277      -0.51506423
H       -0.88854807       0.84363925       1.80059159
H       -2.40097417      -0.03749285       1.59986003
H       -0.84707385      -0.91448987       1.70463961
H       -1.68929178      -0.73383204      -0.72383972
H       -1.72931884       1.40717046      -1.62868478
H        0.18528822       0.26802789      -1.85802396
H        0.83419052       1.21620114       0.17368834
H        2.46867394       0.64341497      -0.59030264
H        2.80860792      -0.93577517       0.73526005
16
Frame=16 idx=007611 GeodesicLength=1.5562919892525986 rxn_smarts="[C:1]([C@@:2]1([H:11])[N:3]([H:12])[C@:4]1([C:5]([C:6](=[O:7])[H:16])([H:14])[H:15])[H:13])([H:8])([H:9])[H:10]>>[C:1]([C@@:2]1([H:11])[N:3]([H:12])[C:4]1([H:13])[H:14])([H:8])([H:9])[H:10].[C:5](=[C:6]=[O:7])([H:15])[H:16]"
C       -1.33787523      -0.01107244       1.32570684
C       -1.18228699       0.05733304      -0.16865642
N       -1.22161116       1.39249577      -0.76022512
C        0.01339190       0.61668637      -0.84320962
C        1.86200821      -0.07194655      -0.01109073
C        1.90441868      -1.43326427      -0.26597378
O        1.22963521      -2.33859644      -0.59464717
H       -0.89423846       0.86694227       1.79747847
H       -2.39272354      -0.03782173       1.60330866
H       -0.82460386      -0.89052655       1.72143808
H       -1.67292310      -0.74639099      -0.71068824
H       -1.72839304       1.38409640      -1.63581736
H        0.18620885       0.25656187      -1.85833336
H        0.84225581       1.23508147       0.19580679
H        2.45755155       0.64474776      -0.56080975
H        2.75918517      -0.92432598       0.76571271
