14
Frame=0 idx=009545 GeodesicLength=0.0 rxn_smarts="[C:1]([C@@:2]1([H:11])[O:3][C:4]([H:12])([H:13])/[C:5](=[N:6]/[H:14])[O:7]1)([H:8])([H:9])[H:10]>>[C:1]([C:2](=[O:3])[H:11])([H:8])([H:9])[H:10].[C:4]1([H:12])([H:13])[C:5](=[O:7])[N:6]1[H:14]"
C       -2.41616496       0.50558630      -0.14541029
C       -1.17289588      -0.26454007       0.09356460
O       -0.53783061      -0.79057860      -0.80885609
C        1.33805090      -0.90780611      -0.35887569
C        1.62872769       0.44165034       0.17338114
N        2.90767929       0.22940377       0.02405545
O        0.86310453       1.24111659       0.70387117
H       -2.22851727       1.52993556       0.18782782
H       -3.22490404       0.10834752       0.47186625
H       -2.69268054       0.49803250      -1.19722489
H       -0.84187797      -0.36902630       1.13315897
H        1.64539709      -1.17229840      -1.35713874
H        1.22081085      -1.70983148       0.36078889
H        3.51110088       0.66000832       0.71899142
14
Frame=1 idx=009545 GeodesicLength=0.06640301239649109 rxn_smarts="[C:1]([C@@:2]1([H:11])[O:3][C:4]([H:12])([H:13])/[C:5](=[N:6]/[H:14])[O:7]1)([H:8])([H:9])[H:10]>>[C:1]([C:2](=[O:3])[H:11])([H:8])([H:9])[H:10].[C:4]1([H:12])([H:13])[C:5](=[O:7])[N:6]1[H:14]"
C       -2.39934610       0.52225761      -0.14896191
C       -1.16877595      -0.26251770       0.11058476
O       -0.54195559      -0.82338163      -0.78243588
C        1.34424546      -0.92130818      -0.35124661
C        1.61354239       0.43132449       0.18257916
N        2.89157161       0.24869365      -0.00153108
O        0.82979492       1.22212318       0.70411722
H       -2.22255919       1.53393481       0.22589669
H       -3.23346129       0.10775937       0.42129335
H       -2.63433604       0.55407099      -1.21048274
H       -0.87419184      -0.40012097       1.15760132
H        1.63459609      -1.18548346      -1.35496696
H        1.26015008      -1.72544381       0.37153742
H        3.50072544       0.69809165       0.67601527
14
Frame=2 idx=009545 GeodesicLength=0.13298366095271408 rxn_smarts="[C:1]([C@@:2]1([H:11])[O:3][C:4]([H:12])([H:13])/[C:5](=[N:6]/[H:14])[O:7]1)([H:8])([H:9])[H:10]>>[C:1]([C:2](=[O:3])[H:11])([H:8])([H:9])[H:10].[C:4]1([H:12])([H:13])[C:5](=[O:7])[N:6]1[H:14]"
C       -2.38182825       0.53840945      -0.15258569
C       -1.16502715      -0.26147076       0.12853865
O       -0.54621028      -0.85490857      -0.75503416
C        1.35013106      -0.93412527      -0.34379780
C        1.59884547       0.42053367       0.19333366
N        2.87404705       0.26792211      -0.02776565
O        0.79761691       1.20218954       0.70682406
H       -2.21754337       1.53676749       0.26128110
H       -3.23987900       0.10954278       0.36936076
H       -2.57392400       0.60741727      -1.22105721
H       -0.90832094      -0.42965283       1.18144773
H        1.62264477      -1.19768128      -1.35297760
H        1.30047256      -1.74038958       0.38065443
H        3.48897516       0.73544597       0.63177771
14
Frame=3 idx=009545 GeodesicLength=0.19975539050726498 rxn_smarts="[C:1]([C@@:2]1([H:11])[O:3][C:4]([H:12])([H:13])/[C:5](=[N:6]/[H:14])[O:7]1)([H:8])([H:9])[H:10]>>[C:1]([C:2](=[O:3])[H:11])([H:8])([H:9])[H:10].[C:4]1([H:12])([H:13])[C:5](=[O:7])[N:6]1[H:14]"
C       -2.36355846       0.55405866      -0.15624991
C       -1.16165584      -0.26131474       0.14736226
O       -0.55054242      -0.88524155      -0.72678893
C        1.35572252      -0.94627004      -0.33661017
C        1.58465286       0.40931816       0.20548867
N        2.85495548       0.28716938      -0.05450185
O        0.76655048       1.18127883       0.71198006
H       -2.21315772       1.53876799       0.29369559
H       -3.24390912       0.11374985       0.31658344
H       -2.51180196       0.65775233      -1.22900028
H       -0.94424698      -0.45777835       1.20465561
H        1.60961538      -1.20893106      -1.35117776
H        1.34179640      -1.75460847       0.38795494
H        3.47557938       0.77204903       0.58660833
14
Frame=4 idx=009545 GeodesicLength=0.2667554047312648 rxn_smarts="[C:1]([C@@:2]1([H:11])[O:3][C:4]([H:12])([H:13])/[C:5](=[N:6]/[H:14])[O:7]1)([H:8])([H:9])[H:10]>>[C:1]([C:2](=[O:3])[H:11])([H:8])([H:9])[H:10].[C:4]1([H:12])([H:13])[C:5](=[O:7])[N:6]1[H:14]"
C       -2.34448849       0.56923503      -0.15993269
C       -1.15865892      -0.26196423       0.16700384
O       -0.55491973      -0.91451168      -0.69780331
C        1.36103374      -0.95778952      -0.32974411
C        1.57097196       0.39773394       0.21883392
N        2.83416197       0.30647726      -0.08159425
O        0.73659459       1.15934294       0.71963015
H       -2.20910291       1.54027624       0.32300159
H       -3.24538346       0.12032959       0.26337574
H       -2.44826624       0.70490820      -1.23445370
H       -0.98196128      -0.48463268       1.22717798
H        1.59556464      -1.21934615      -1.34956853
H        1.38415121      -1.76804863       0.39331129
H        3.46030293       0.80798970       0.54076208
14
Frame=5 idx=009545 GeodesicLength=0.3339601129005654 rxn_smarts="[C:1]([C@@:2]1([H:11])[O:3][C:4]([H:12])([H:13])/[C:5](=[N:6]/[H:14])[O:7]1)([H:8])([H:9])[H:10]>>[C:1]([C:2](=[O:3])[H:11])([H:8])([H:9])[H:10].[C:4]1([H:12])([H:13])[C:5](=[O:7])[N:6]1[H:14]"
C       -2.32456262       0.58392581      -0.16359594
C       -1.15601258      -0.26331709       0.18739968
O       -0.55931931      -0.94280344      -0.66815117
C        1.36605310      -0.96867645      -0.32326995
C        1.55777915       0.38591340       0.23304379
N        2.81156191       0.32583472      -0.10887369
O        0.70775561       1.13639277       0.72974293
H       -2.20502770       1.54160138       0.34905579
H       -3.24413419       0.12914143       0.21020444
H       -2.38365623       0.74866768      -1.23754933
H       -1.02143150      -0.51029319       1.24889257
H        1.58054388      -1.22900576      -1.34814351
H        1.42751678      -1.78055964       0.39660868
H        3.44293371       0.84317838       0.49463572
14
Frame=6 idx=009545 GeodesicLength=0.40145164380589876 rxn_smarts="[C:1]([C@@:2]1([H:11])[O:3][C:4]([H:12])([H:13])/[C:5](=[N:6]/[H:14])[O:7]1)([H:8])([H:9])[H:10]>>[C:1]([C:2](=[O:3])[H:11])([H:8])([H:9])[H:10].[C:4]1([H:12])([H:13])[C:5](=[O:7])[N:6]1[H:14]"
C       -2.30369955       0.59816015      -0.16724117
C       -1.15372054      -0.26532429       0.20856234
O       -0.56373891      -0.97031838      -0.63779958
C        1.37078344      -0.97898165      -0.31721128
C        1.54502156       0.37394461       0.24781274
N        2.78701148       0.34534449      -0.13633906
O        0.68002932       1.11233836       0.74242762
H       -2.20069482       1.54295823       0.37199970
H       -3.24011145       0.14001522       0.15718930
H       -2.31797131       0.78909712      -1.23850060
H       -1.06270108      -0.53480653       1.26976871
H        1.56455139      -1.23808623      -1.34686445
H        1.47194860      -1.79199422       0.39781614
H        3.42329185       0.87765313       0.44837958
14
Frame=7 idx=009545 GeodesicLength=0.4692928926856644 rxn_smarts="[C:1]([C@@:2]1([H:11])[O:3][C:4]([H:12])([H:13])/[C:5](=[N:6]/[H:14])[O:7]1)([H:8])([H:9])[H:10]>>[C:1]([C:2](=[O:3])[H:11])([H:8])([H:9])[H:10].[C:4]1([H:12])([H:13])[C:5](=[O:7])[N:6]1[H:14]"
C       -2.28180303       0.61192696      -0.17084845
C       -1.15177898      -0.26792959       0.23050038
O       -0.56818609      -0.99721534      -0.60669084
C        1.37519891      -0.98870224      -0.31160703
C        1.53262460       0.36193139       0.26279552
N        2.76037887       0.36507416      -0.16395158
O        0.65340430       1.08712482       0.75765288
H       -2.19585422       1.54449930       0.39194052
H       -3.23323136       0.15275715       0.10448647
H       -2.25121004       0.82618245      -1.23745754
H       -1.10579678      -0.55815226       1.28972782
H        1.54756193      -1.24669256      -1.34568139
H        1.51744817      -1.80211435       0.39686285
H        3.40124372       0.91131008       0.40227038
14
Frame=8 idx=009545 GeodesicLength=0.5375454882523931 rxn_smarts="[C:1]([C@@:2]1([H:11])[O:3][C:4]([H:12])([H:13])/[C:5](=[N:6]/[H:14])[O:7]1)([H:8])([H:9])[H:10]>>[C:1]([C:2](=[O:3])[H:11])([H:8])([H:9])[H:10].[C:4]1([H:12])([H:13])[C:5](=[O:7])[N:6]1[H:14]"
C       -2.25877251       0.62522548      -0.17441717
C       -1.15019590      -0.27110649       0.25323486
O       -0.57267230      -1.02365393      -0.57475862
C        1.37927310      -0.99787644      -0.30647970
C        1.52050231       0.34995767       0.27779696
N        2.73155147       0.38501158      -0.19161724
O        0.62786072       1.06072707       0.77549299
H       -2.19021337       1.54641082       0.40895555
H       -3.22341970       0.16718841       0.05221085
H       -2.18338011       0.85993383      -1.23459467
H       -1.15074918      -0.58034351       1.30869753
H        1.52954668      -1.25492388      -1.34458414
H        1.56399099      -1.81079988       0.39365358
H        3.37667779       0.94424928       0.35640923
14
Frame=9 idx=009545 GeodesicLength=0.6062965863211182 rxn_smarts="[C:1]([C@@:2]1([H:11])[O:3][C:4]([H:12])([H:13])/[C:5](=[N:6]/[H:14])[O:7]1)([H:8])([H:9])[H:10]>>[C:1]([C:2](=[O:3])[H:11])([H:8])([H:9])[H:10].[C:4]1([H:12])([H:13])[C:5](=[O:7])[N:6]1[H:14]"
C       -2.23446457       0.63804294      -0.17794238
C       -1.14897830      -0.27484441       0.27678899
O       -0.57719613      -1.04976765      -0.54189942
C        1.38295800      -1.00652284      -0.30181491
C        1.50853503       0.33808389       0.29267210
N        2.70036026       0.40513375      -0.21929873
O        0.60336522       1.03311423       0.79598889
H       -2.18350118       1.54878891       0.42319125
H       -3.21056912       0.18310532       0.00035871
H       -2.11433875       0.89043630      -1.23000626
H       -1.19761098      -0.60138432       1.32655311
H        1.51045405      -1.26287061      -1.34351096
H        1.61152400      -1.81787279       0.38812311
H        3.34946247       0.97655728       0.31079650
14
Frame=10 idx=009545 GeodesicLength=0.6757244990475729 rxn_smarts="[C:1]([C@@:2]1([H:11])[O:3][C:4]([H:12])([H:13])/[C:5](=[N:6]/[H:14])[O:7]1)([H:8])([H:9])[H:10]>>[C:1]([C:2](=[O:3])[H:11])([H:8])([H:9])[H:10].[C:4]1([H:12])([H:13])[C:5](=[O:7])[N:6]1[H:14]"
C       -2.20870406       0.65036459      -0.18143618
C       -1.14815773      -0.27914550       0.30125362
O       -0.58179473      -1.07577785      -0.50792186
C        1.38620165      -1.01466343      -0.29763555
C        1.49663252       0.32629113       0.30737052
N        2.66660856       0.42553923      -0.24695941
O        0.57989126       1.00415992       0.81916393
H       -2.17545011       1.55171381       0.43475952
H       -3.19455900       0.20038653      -0.05112977
H       -2.04382165       0.91767199      -1.22381890
H       -1.24646113      -0.62116561       1.34327026
H        1.49014790      -1.27054451      -1.34243735
H        1.66001275      -1.82317994       0.38006793
H        3.31945377       1.00834965       0.26545323
14
Frame=11 idx=009545 GeodesicLength=0.7460640113207353 rxn_smarts="[C:1]([C@@:2]1([H:11])[O:3][C:4]([H:12])([H:13])/[C:5](=[N:6]/[H:14])[O:7]1)([H:8])([H:9])[H:10]>>[C:1]([C:2](=[O:3])[H:11])([H:8])([H:9])[H:10].[C:4]1([H:12])([H:13])[C:5](=[O:7])[N:6]1[H:14]"
C       -2.18123456       0.66217402      -0.18491761
C       -1.14776486      -0.28404946       0.32672621
O       -0.58649177      -1.10191277      -0.47258763
C        1.38892020      -1.02231081      -0.29393587
C        1.48466116       0.31455615       0.32190056
N        2.62998060       0.44630263      -0.27459975
O        0.55741501       0.97369310       0.84514566
H       -2.16572620       1.55524721       0.44375968
H       -3.17517490       0.21893118      -0.10241448
H       -1.97142219       0.94165176      -1.21608421
H       -1.29741567      -0.63961784       1.35877733
H        1.46844748      -1.27796145      -1.34131085
H        1.70940765      -1.82653798       0.36928657
H        3.28639806       1.03983424       0.22025440
14
Frame=12 idx=009545 GeodesicLength=0.8175632931923136 rxn_smarts="[C:1]([C@@:2]1([H:11])[O:3][C:4]([H:12])([H:13])/[C:5](=[N:6]/[H:14])[O:7]1)([H:8])([H:9])[H:10]>>[C:1]([C:2](=[O:3])[H:11])([H:8])([H:9])[H:10].[C:4]1([H:12])([H:13])[C:5](=[O:7])[N:6]1[H:14]"
C       -2.15180629       0.67342285      -0.18840189
C       -1.14782357      -0.28956081       0.35328832
O       -0.59130410      -1.12832701      -0.43567562
C        1.39102884      -1.02948116      -0.29073035
C        1.47251884       0.30285408       0.33635348
N        2.59021943       0.46740940      -0.30208442
O        0.53592208       0.94163753       0.87398280
H       -2.15394338       1.55946019       0.45021191
H       -3.15216467       0.23859165      -0.15355494
H       -1.89684762       0.96228394      -1.20684354
H       -1.35051215      -0.65661157       1.37296096
H        1.44518249      -1.28509201      -1.34012240
H        1.75955193      -1.82784268       0.35550555
H        3.24997817       1.07125560       0.17511016
14
Frame=13 idx=009545 GeodesicLength=0.8906100755907616 rxn_smarts="[C:1]([C@@:2]1([H:11])[O:3][C:4]([H:12])([H:13])/[C:5](=[N:6]/[H:14])[O:7]1)([H:8])([H:9])[H:10]>>[C:1]([C:2](=[O:3])[H:11])([H:8])([H:9])[H:10].[C:4]1([H:12])([H:13])[C:5](=[O:7])[N:6]1[H:14]"
C       -2.12008620       0.68404637      -0.19189875
C       -1.14836406      -0.29569658       0.38102064
O       -0.59624475      -1.15517600      -0.39691520
C        1.39241134      -1.03616404      -0.28801706
C        1.46007944       0.29113917       0.35082495
N        2.54696505       0.48884854      -0.32931655
O        0.51540052       0.90785294       0.90573380
H       -2.13967309       1.56435891       0.45415312
H       -3.12518151       0.25923407      -0.20468437
H       -1.81962858       0.97947507      -1.19604258
H       -1.40582230      -0.67199941       1.38564440
H        1.42013230      -1.29190896      -1.33881003
H        1.81025485      -1.82689646       0.33843739
H        3.20975699       1.10288637       0.12987025
14
Frame=14 idx=009545 GeodesicLength=0.9658355602486838 rxn_smarts="[C:1]([C@@:2]1([H:11])[O:3][C:4]([H:12])([H:13])/[C:5](=[N:6]/[H:14])[O:7]1)([H:8])([H:9])[H:10]>>[C:1]([C:2](=[O:3])[H:11])([H:8])([H:9])[H:10].[C:4]1([H:12])([H:13])[C:5](=[O:7])[N:6]1[H:14]"
C       -2.08564381       0.69395058      -0.19545259
C       -1.14942716      -0.30250928       0.41010373
O       -0.60136072      -1.18279788      -0.35586552
C        1.39289757      -1.04230407      -0.28588793
C        1.44719225       0.27936690       0.36540074
N        2.49970581       0.51081171      -0.35620747
O        0.49585932       0.87206852       0.94053197
H       -2.12236401       1.57001596       0.45548784
H       -3.09376295       0.28078568      -0.25599038
H       -1.73916134       0.99289416      -1.18370586
H       -1.46342392      -0.68549625       1.39680890
H        1.39287145      -1.29827356      -1.33739937
H        1.86136000      -1.82343492       0.31759037
H        3.16525748       1.13492247       0.08458558
14
Frame=15 idx=009545 GeodesicLength=1.0440976773455128 rxn_smarts="[C:1]([C@@:2]1([H:11])[O:3][C:4]([H:12])([H:13])/[C:5](=[N:6]/[H:14])[O:7]1)([H:8])([H:9])[H:10]>>[C:1]([C:2](=[O:3])[H:11])([H:8])([H:9])[H:10].[C:4]1([H:12])([H:13])[C:5](=[O:7])[N:6]1[H:14]"
C       -2.04794631       0.70298951      -0.19910137
C       -1.15105521      -0.31002987       0.44069770
O       -0.60668408      -1.21144743      -0.31203259
C        1.39226395      -1.04780723      -0.28442416
C        1.43368558       0.26750407       0.38020259
N        2.44785347       0.53340689      -0.38261660
O        0.47732023       0.83401355       0.97853578
H       -2.10133882       1.57643198       0.45408628
H       -3.05730060       0.30310391      -0.30769056
H       -1.65472562       1.00215133      -1.16973985
H       -1.52340019      -0.69678550       1.40630910
H        1.36292072      -1.30402667      -1.33586856
H        1.91257314      -1.81712673       0.29242090
H        3.11583371       1.16762217       0.03922135
14
Frame=16 idx=009545 GeodesicLength=1.126379387672384 rxn_smarts="[C:1]([C@@:2]1([H:11])[O:3][C:4]([H:12])([H:13])/[C:5](=[N:6]/[H:14])[O:7]1)([H:8])([H:9])[H:10]>>[C:1]([C:2](=[O:3])[H:11])([H:8])([H:9])[H:10].[C:4]1([H:12])([H:13])[C:5](=[O:7])[N:6]1[H:14]"
C       -2.00658862       0.71098209      -0.20283162
C       -1.15323814      -0.31817715       0.47281304
O       -0.61219507      -1.24115253      -0.26517539
C        1.39030422      -1.05260616      -0.28369104
C        1.41947488       0.25553686       0.39533284
N        2.39108174       0.55652505      -0.40818082
O        0.45982311       0.79369696       1.01952175
H       -2.07598645       1.58356105       0.44989106
H       -3.01524173       0.32585926      -0.35975011
H       -1.56599605       1.00688361      -1.15402713
H       -1.58554442      -0.70554721       1.41382848
H        1.32992334      -1.30909021      -1.33415691
H        1.96331734      -1.80772881       0.26251025
H        3.06086585       1.20125719      -0.00608440
