12
Frame=0 idx=010068 GeodesicLength=0.0 rxn_smarts="[N:1]([C:2](=[O:3])[C:4]([O:5][C:6](=[O:7])[H:12])([H:10])[H:11])([H:8])[H:9]>>[N:1]1([H:9])[C:2](=[O:3])[C:4]([H:10])([H:11])[O:5][C@@:6]1([O:7][H:8])[H:12]"
N       -0.61710270      -1.14599300       0.08750062
C       -0.73139093      -0.21974619       1.03835286
O       -1.42098858      -0.15620956       2.04293585
C        0.16512754       0.99743737       0.71365087
O        1.28081375       0.53674109      -0.07973440
C        1.01913585      -0.17334641      -1.11274090
O        0.05068441       0.02461633      -1.95112061
H       -0.73821833      -0.28391231      -1.38977211
H       -1.08319780      -2.00934925       0.33734160
H       -0.39786008       1.75389379       0.16296571
H        0.59676148       1.42259828       1.61255598
H        1.87623534      -0.74673010      -1.46193543
12
Frame=1 idx=010068 GeodesicLength=0.07406326147480612 rxn_smarts="[N:1]([C:2](=[O:3])[C:4]([O:5][C:6](=[O:7])[H:12])([H:10])[H:11])([H:8])[H:9]>>[N:1]1([H:9])[C:2](=[O:3])[C:4]([H:10])([H:11])[O:5][C@@:6]1([O:7][H:8])[H:12]"
N       -0.62163296      -1.13428591       0.07935392
C       -0.72809708      -0.21521177       1.04025146
O       -1.41094747      -0.16637273       2.04913182
C        0.16537752       1.00220792       0.71505479
O        1.27825251       0.54796145      -0.08338540
C        1.01576822      -0.18247444      -1.10768598
O        0.05673650       0.01972303      -1.95581294
H       -0.74923485      -0.29638801      -1.39219270
H       -1.07950365      -2.00358994       0.32221455
H       -0.40050569       1.75941192       0.16843944
H        0.59779506       1.42432529       1.61535292
H        1.87599188      -0.75530682      -1.45072188
12
Frame=2 idx=010068 GeodesicLength=0.1481331465477616 rxn_smarts="[N:1]([C:2](=[O:3])[C:4]([O:5][C:6](=[O:7])[H:12])([H:10])[H:11])([H:8])[H:9]>>[N:1]1([H:9])[C:2](=[O:3])[C:4]([H:10])([H:11])[O:5][C@@:6]1([O:7][H:8])[H:12]"
N       -0.62628405      -1.12250184       0.07124721
C       -0.72499749      -0.21058034       1.04196250
O       -1.40074812      -0.17667175       2.05511312
C        0.16562093       1.00698756       0.71643864
O        1.27550205       0.55915264      -0.08721989
C        1.01232424      -0.19142347      -1.10259710
O        0.06304296       0.01477147      -1.96065398
H       -0.76052347      -0.30879804      -1.39463105
H       -1.07538318      -1.99783948       0.30724188
H       -0.40309144       1.76507614       0.17405950
H        0.59897553       1.42584404       1.61814375
H        1.87556206      -0.76401694      -1.43910458
12
Frame=3 idx=010068 GeodesicLength=0.2222096643224998 rxn_smarts="[N:1]([C:2](=[O:3])[C:4]([O:5][C:6](=[O:7])[H:12])([H:10])[H:11])([H:8])[H:9]>>[N:1]1([H:9])[C:2](=[O:3])[C:4]([H:10])([H:11])[O:5][C@@:6]1([O:7][H:8])[H:12]"
N       -0.63104384      -1.11064680       0.06318511
C       -0.72208854      -0.20585188       1.04349470
O       -1.39039508      -0.18710065       2.06086603
C        0.16586135       1.01177584       0.71780327
O        1.27256450       0.57031335      -0.09123422
C        1.00879963      -0.20019626      -1.09747555
O        0.06960661       0.00975203      -1.96563836
H       -0.77210097      -0.32116460      -1.39706927
H       -1.07084895      -1.99208406       0.29240204
H       -0.40561337       1.77088432       0.17982766
H        0.60030799       1.42715561       1.62092498
H        1.87495068      -0.77283691      -1.42708638
12
Frame=4 idx=010068 GeodesicLength=0.29629304139181123 rxn_smarts="[N:1]([C:2](=[O:3])[C:4]([O:5][C:6](=[O:7])[H:12])([H:10])[H:11])([H:8])[H:9]>>[N:1]1([H:9])[C:2](=[O:3])[C:4]([H:10])([H:11])[O:5][C@@:6]1([O:7][H:8])[H:12]"
N       -0.63590062      -1.09872691       0.05517087
C       -0.71936715      -0.20102664       1.04485578
O       -1.37988660      -0.19765741       2.06638071
C        0.16610125       1.01657253       0.71914871
O        1.26944156       0.58144341      -0.09542499
C        1.00519149      -0.20879564      -1.09232215
O        0.07643281       0.00465479      -1.97076113
H       -0.78398397      -0.33350862      -1.39948945
H       -1.06591856      -1.98630731       0.27767290
H       -0.40806927       1.77683382       0.18574462
H        0.60179596       1.42826240       1.62369191
H        1.87416310      -0.78174443      -1.41466777
12
Frame=5 idx=010068 GeodesicLength=0.37038325559149776 rxn_smarts="[N:1]([C:2](=[O:3])[C:4]([O:5][C:6](=[O:7])[H:12])([H:10])[H:11])([H:8])[H:9]>>[N:1]1([H:9])[C:2](=[O:3])[C:4]([H:10])([H:11])[O:5][C@@:6]1([O:7][H:8])[H:12]"
N       -0.64083716      -1.08675169       0.04720985
C       -0.71682712      -0.19610704       1.04605454
O       -1.36923121      -0.20833380       2.07164015
C        0.16634460       1.02137614       0.72047579
O        1.26613578       0.59254281      -0.09978944
C        1.00149755      -0.21722283      -1.08713928
O        0.08352536      -0.00052881      -1.97601601
H       -0.79618955      -0.34585474      -1.40187015
H       -1.06061219      -1.98049257       0.26303560
H       -0.41045562       1.78292089       0.19181281
H        0.60344453       1.42916447       1.62644082
H        1.87320503      -0.79071283      -1.40185466
12
Frame=6 idx=010068 GeodesicLength=0.4444827480109901 rxn_smarts="[N:1]([C:2](=[O:3])[C:4]([O:5][C:6](=[O:7])[H:12])([H:10])[H:11])([H:8])[H:9]>>[N:1]1([H:9])[C:2](=[O:3])[C:4]([H:10])([H:11])[O:5][C@@:6]1([O:7][H:8])[H:12]"
N       -0.64584340      -1.07472774       0.03930330
C       -0.71446802      -0.19109389       1.04709788
O       -1.35842407      -0.21913157       2.07663986
C        0.16659275       1.02618614       0.72178381
O        1.26265017       0.60361207      -0.10432483
C        0.99771827      -0.22548013      -1.08192886
O        0.09089360      -0.00580664      -1.98140088
H       -0.80873613      -0.35822153      -1.40419453
H       -1.05495183      -1.97462254       0.24847347
H       -0.41277202       1.78914279       0.19803093
H        0.60525600       1.42986393       1.62916699
H        1.87208468      -0.79972090      -1.38864714
12
Frame=7 idx=010068 GeodesicLength=0.5185836123184706 rxn_smarts="[N:1]([C:2](=[O:3])[C:4]([O:5][C:6](=[O:7])[H:12])([H:10])[H:11])([H:8])[H:9]>>[N:1]1([H:9])[C:2](=[O:3])[C:4]([H:10])([H:11])[O:5][C@@:6]1([O:7][H:8])[H:12]"
N       -0.65088315      -1.06267404       0.03145917
C       -0.71226540      -0.18599760       1.04799511
O       -1.34749252      -0.23002482       2.08133707
C        0.16685365       1.03099903       0.72307551
O        1.25898401       0.61465522      -0.10902901
C        0.99384924      -0.23356397      -1.07669428
O        0.09853521      -0.01118660      -1.98690029
H       -0.82163728      -0.37064539      -1.40642696
H       -1.04897090      -1.96867838       0.23396513
H       -0.41501285       1.79549073       0.20440995
H        0.60723860       1.43035978       1.63186611
H        1.87080139      -0.80873396      -1.37505753
12
Frame=8 idx=010068 GeodesicLength=0.5926925275361457 rxn_smarts="[N:1]([C:2](=[O:3])[C:4]([O:5][C:6](=[O:7])[H:12])([H:10])[H:11])([H:8])[H:9]>>[N:1]1([H:9])[C:2](=[O:3])[C:4]([H:10])([H:11])[O:5][C@@:6]1([O:7][H:8])[H:12]"
N       -0.65594589      -1.05060218       0.02368448
C       -0.71022316      -0.18082202       1.04875716
O       -1.33649426      -0.24098198       2.08570502
C        0.16713528       1.03580451       0.72435256
O        1.25514848       0.62565756      -0.11389735
C        0.98989209      -0.24147731      -1.07144442
O        0.10645577      -0.01666563      -1.99251125
H       -0.83492130      -0.38314028      -1.40854214
H       -1.04265446      -1.96265892       0.21953178
H       -0.41716245       1.80195868       0.21094886
H        0.60940022       1.43063475       1.63453943
H        1.86936969      -0.81770719      -1.36112415
12
Frame=9 idx=010068 GeodesicLength=0.66681067241416 rxn_smarts="[N:1]([C:2](=[O:3])[C:4]([O:5][C:6](=[O:7])[H:12])([H:10])[H:11])([H:8])[H:9]>>[N:1]1([H:9])[C:2](=[O:3])[C:4]([H:10])([H:11])[O:5][C@@:6]1([O:7][H:8])[H:12]"
N       -0.66101697      -1.03852055       0.01597169
C       -0.70832897      -0.17557341       1.04938699
O       -1.32536962      -0.25203647       2.08976245
C        0.16743316       1.04061056       0.72561029
O        1.25114106       0.63664059      -0.11893221
C        0.98585353      -0.24921772      -1.06617774
O        0.11467498      -0.02225595      -1.99823533
H       -0.84860151      -0.39572794      -1.41052559
H       -1.03608208      -1.95653327       0.20512968
H       -0.41923975       1.80854503       0.21764602
H        0.61173817       1.43071081       1.63717395
H        1.86779801      -0.82664167      -1.34681020
12
Frame=10 idx=010068 GeodesicLength=0.7409400055687115 rxn_smarts="[N:1]([C:2](=[O:3])[C:4]([O:5][C:6](=[O:7])[H:12])([H:10])[H:11])([H:8])[H:9]>>[N:1]1([H:9])[C:2](=[O:3])[C:4]([H:10])([H:11])[O:5][C@@:6]1([O:7][H:8])[H:12]"
N       -0.66610760      -1.02641240       0.00829772
C       -0.70659171      -0.17024246       1.04987677
O       -1.31401364      -0.26324080       2.09354408
C        0.16773170       1.04542234       0.72684038
O        1.24694587       0.64761624      -0.12413541
C        0.98173472      -0.25679295      -1.06088584
O        0.12323404      -0.02798163      -2.00407506
H       -0.86268994      -0.40839920      -1.41236901
H       -1.02929493      -1.95026294       0.19072127
H       -0.42126186       1.81524277       0.22449610
H        0.61423326       1.43060204       1.63975190
H        1.86608008      -0.83555102      -1.33206289
12
Frame=11 idx=010068 GeodesicLength=0.8150876046036488 rxn_smarts="[N:1]([C:2](=[O:3])[C:4]([O:5][C:6](=[O:7])[H:12])([H:10])[H:11])([H:8])[H:9]>>[N:1]1([H:9])[C:2](=[O:3])[C:4]([H:10])([H:11])[O:5][C@@:6]1([O:7][H:8])[H:12]"
N       -0.67119461      -1.01429899       0.00066862
C       -0.70499702      -0.16484399       1.05023800
O       -1.30245299      -0.27458848       2.09702726
C        0.16803893       1.05023869       0.72804120
O        1.24257427       0.65859236      -0.12950879
C        0.97754432      -0.26419619      -1.05557611
O        0.13214229      -0.03383783      -2.01002851
H       -0.87721474      -0.42117964      -1.41404395
H       -1.02234247      -1.94384197       0.17630670
H       -0.42322870       1.82205007       0.23149729
H        0.61689799       1.43030979       1.64226764
H        1.86423274      -0.84440382      -1.31688936
12
Frame=12 idx=010068 GeodesicLength=0.88925016698043 rxn_smarts="[N:1]([C:2](=[O:3])[C:4]([O:5][C:6](=[O:7])[H:12])([H:10])[H:11])([H:8])[H:9]>>[N:1]1([H:9])[C:2](=[O:3])[C:4]([H:10])([H:11])[O:5][C@@:6]1([O:7][H:8])[H:12]"
N       -0.67624474      -1.00219532      -0.00691550
C       -0.70352122      -0.15938925       1.05047771
O       -1.29071951      -0.28604746       2.10017027
C        0.16836057       1.05505225       0.72921552
O        1.23802234       0.66956919      -0.13505108
C        0.97328146      -0.27142352      -1.05025642
O        0.14140912      -0.03982571      -2.01608536
H       -0.89219465      -0.43409721      -1.41551248
H       -1.01524915      -1.93725571       0.16188187
H       -0.42513455       1.82895280       0.23866168
H        0.61973622       1.42982780       1.64471815
H        1.86225411      -0.85316786      -1.30130435
12
Frame=13 idx=010068 GeodesicLength=0.9634362417654709 rxn_smarts="[N:1]([C:2](=[O:3])[C:4]([O:5][C:6](=[O:7])[H:12])([H:10])[H:11])([H:8])[H:9]>>[N:1]1([H:9])[C:2](=[O:3])[C:4]([H:10])([H:11])[O:5][C@@:6]1([O:7][H:8])[H:12]"
N       -0.68128339      -0.99008507      -0.01448206
C       -0.70218044      -0.15387231       1.05058642
O       -1.27869373      -0.29769160       2.10301551
C        0.16868103       1.05987210       0.73035082
O        1.23328234       0.68056545      -0.14076920
C        0.96895554      -0.27848229      -1.04491721
O        0.15108647      -0.04596839      -2.02225463
H       -0.90765716      -0.44712778      -1.41677013
H       -1.00807353      -1.93047870       0.14742238
H       -0.42700224       1.83595392       0.24597692
H        0.62273341       1.42917346       1.64708246
H        1.86015170      -0.86185878      -1.28524128
12
Frame=14 idx=010068 GeodesicLength=1.0376413285221129 rxn_smarts="[N:1]([C:2](=[O:3])[C:4]([O:5][C:6](=[O:7])[H:12])([H:10])[H:11])([H:8])[H:9]>>[N:1]1([H:9])[C:2](=[O:3])[C:4]([H:10])([H:11])[O:5][C@@:6]1([O:7][H:8])[H:12]"
N       -0.68627008      -0.97799715      -0.02202095
C       -0.70095239      -0.14831232       1.05057636
O       -1.26648874      -0.30944892       2.10549383
C        0.16901752       1.06468357       0.73145326
O        1.22836628       0.69156543      -0.14665549
C        0.96456776      -0.28536401      -1.03957647
O        0.16117186      -0.05224268      -2.02852425
H       -0.92363412      -0.46030599      -1.41776745
H       -1.00080502      -1.92352459       0.13296196
H       -0.42880843       1.84303937       0.25345186
H        0.62590572       1.42832779       1.64936611
H        1.85792963      -0.87042050      -1.26875879
12
Frame=15 idx=010068 GeodesicLength=1.1118719812905078 rxn_smarts="[N:1]([C:2](=[O:3])[C:4]([O:5][C:6](=[O:7])[H:12])([H:10])[H:11])([H:8])[H:9]>>[N:1]1([H:9])[C:2](=[O:3])[C:4]([H:10])([H:11])[O:5][C@@:6]1([O:7][H:8])[H:12]"
N       -0.69121072      -0.96592307      -0.02955443
C       -0.69982883      -0.14271447       1.05044465
O       -1.25401987      -0.32136758       2.10761967
C        0.16935954       1.06949226       0.73251300
O        1.22325892       0.70259418      -0.15272274
C        0.96012631      -0.29207312      -1.03422831
O        0.17171269      -0.05867990      -2.03490177
H       -0.94015784      -0.47360706      -1.41848138
H       -0.99350483      -1.91636964       0.11847157
H       -0.43057554       1.85020604       0.26108522
H        0.62924637       1.42730114       1.65154941
H        1.85559379      -0.87885877      -1.25179490
12
Frame=16 idx=010068 GeodesicLength=1.186124819415232 rxn_smarts="[N:1]([C:2](=[O:3])[C:4]([O:5][C:6](=[O:7])[H:12])([H:10])[H:11])([H:8])[H:9]>>[N:1]1([H:9])[C:2](=[O:3])[C:4]([H:10])([H:11])[O:5][C@@:6]1([O:7][H:8])[H:12]"
N       -0.69608428      -0.95388025      -0.03708530
C       -0.69880156      -0.13709056       1.05019423
O       -1.24137143      -0.33339113       2.10934203
C        0.16971812       1.07428501       0.73353373
O        1.21797329       0.71363052      -0.15895853
C        0.95563286      -0.29860640      -1.02888811
O        0.18272038      -0.06525519      -2.04137560
H       -0.95726835      -0.48704711      -1.41886728
H       -0.98614313      -1.90903267       0.10398949
H       -0.43228275       1.85744062       0.26887999
H        0.63276173       1.42607886       1.65363464
H        1.85314511      -0.88713168      -1.23439928
