18
Frame=0 idx=008240 GeodesicLength=0.0 rxn_smarts="[C:1]([C:2]([C:3]([N:4]([C:5](=[O:6])[C:7]([H:16])([H:17])[H:18])[H:15])([H:13])[H:14])([H:11])[H:12])([H:8])([H:9])[H:10]>>[C:1]([C@:2]1([H:11])[C:3]([H:13])([H:14])[N:4]([H:15])[C@@:5]1([O:6][H:12])[C:7]([H:16])([H:17])[H:18])([H:8])([H:9])[H:10]"
C       -2.47320546       0.08685050      -0.66727434
C       -1.02926329      -0.26485643      -0.38027948
C       -0.67345034      -0.40936470       1.09979282
N        0.78206200      -0.45483774       1.04737642
C        1.27458779       0.37766372       0.12411844
O        0.94135496       1.67062660       0.06260555
C        2.59974277       0.08811221      -0.48663768
H       -2.63500183       0.20782170      -1.74136532
H       -3.20047240      -0.66797876      -0.32407318
H       -2.76617062       1.03232884      -0.19370726
H       -0.75810681      -1.19921445      -0.88631704
H       -0.02032738       1.63680322      -0.08712742
H       -1.00135487       0.45430777       1.68903268
H       -1.02810549      -1.30152986       1.64363966
H        1.20665007      -1.36702618       1.06985025
H        2.48741661       0.11949997      -1.57075301
H        2.99156524      -0.88426715      -0.19321483
H        3.30207900       0.87506067      -0.20566623
18
Frame=1 idx=008240 GeodesicLength=0.12476210884971883 rxn_smarts="[C:1]([C:2]([C:3]([N:4]([C:5](=[O:6])[C:7]([H:16])([H:17])[H:18])[H:15])([H:13])[H:14])([H:11])[H:12])([H:8])([H:9])[H:10]>>[C:1]([C@:2]1([H:11])[C:3]([H:13])([H:14])[N:4]([H:15])[C@@:5]1([O:6][H:12])[C:7]([H:16])([H:17])[H:18])([H:8])([H:9])[H:10]"
C       -2.46407876       0.08687791      -0.66587363
C       -1.01751306      -0.24657081      -0.37342233
C       -0.67336866      -0.40605074       1.10746733
N        0.78205875      -0.44181485       1.06361711
C        1.26835070       0.37911264       0.12175173
O        0.93512912       1.66983252       0.04572959
C        2.59017098       0.07589096      -0.49257550
H       -2.61712865       0.23736187      -1.73738687
H       -3.17288438      -0.69677203      -0.35183144
H       -2.77907881       1.01102626      -0.16597767
H       -0.73520549      -1.16200407      -0.90684981
H       -0.05204227       1.63364063      -0.11242605
H       -1.00354181       0.44951475       1.70699675
H       -1.02734359      -1.30423779       1.64012305
H        1.21468789      -1.34925139       1.11045045
H        2.48111891       0.11874891      -1.57664679
H        2.96757875      -0.90544085      -0.20978043
H        3.30309037       0.85013609      -0.20336549
18
Frame=2 idx=008240 GeodesicLength=0.24954060460189348 rxn_smarts="[C:1]([C:2]([C:3]([N:4]([C:5](=[O:6])[C:7]([H:16])([H:17])[H:18])[H:15])([H:13])[H:14])([H:11])[H:12])([H:8])([H:9])[H:10]>>[C:1]([C@:2]1([H:11])[C:3]([H:13])([H:14])[N:4]([H:15])[C@@:5]1([O:6][H:12])[C:7]([H:16])([H:17])[H:18])([H:8])([H:9])[H:10]"
C       -2.45492752       0.08654084      -0.66464429
C       -1.00600956      -0.22881049      -0.36666338
C       -0.67313390      -0.40270161       1.11479941
N        0.78208359      -0.42842060       1.07931967
C        1.26212549       0.38082949       0.11924025
O        0.92981792       1.66942138       0.02990454
C        2.58044311       0.06349512      -0.49850830
H       -2.60038632       0.26572442      -1.73266783
H       -3.14436015      -0.72410886      -0.37944703
H       -2.79129845       0.98868604      -0.13994047
H       -0.71298683      -1.12457252      -0.92673800
H       -0.08423192       1.63088379      -0.13629824
H       -1.00587169       0.44450986       1.72450690
H       -1.02587802      -1.30682705       1.63649048
H        1.22289159      -1.33029172       1.15037881
H        2.47516474       0.11828368      -1.58242971
H        2.94236024      -0.92685314      -0.22658999
H        3.30419768       0.82421137      -0.20071282
18
Frame=3 idx=008240 GeodesicLength=0.3743358938915675 rxn_smarts="[C:1]([C:2]([C:3]([N:4]([C:5](=[O:6])[C:7]([H:16])([H:17])[H:18])[H:15])([H:13])[H:14])([H:11])[H:12])([H:8])([H:9])[H:10]>>[C:1]([C@:2]1([H:11])[C:3]([H:13])([H:14])[N:4]([H:15])[C@@:5]1([O:6][H:12])[C:7]([H:16])([H:17])[H:18])([H:8])([H:9])[H:10]"
C       -2.44576947       0.08584163      -0.66355956
C       -0.99472960      -0.21148134      -0.36003290
C       -0.67273453      -0.39931257       1.12177788
N        0.78214521      -0.41467021       1.09449066
C        1.25593788       0.38280625       0.11658544
O        0.92545544       1.66941395       0.01504952
C        2.57058312       0.05089985      -0.50440038
H       -2.58478337       0.29294917      -1.72725708
H       -3.11493977      -0.75011154      -0.40688324
H       -2.80289041       0.96534177      -0.11544469
H       -0.69144324      -1.08682720      -0.94607130
H       -0.11698168       1.62856195      -0.15881774
H       -1.00830905       0.43928072       1.74158025
H       -1.02371330      -1.30931453       1.63269482
H        1.23124002      -1.31017526       1.18959749
H        2.46960441       0.11794293      -1.58805623
H        2.91595817      -0.94843019      -0.24349066
H        3.30537018       0.79728462      -0.19776229
18
Frame=4 idx=008240 GeodesicLength=0.4991484230187572 rxn_smarts="[C:1]([C:2]([C:3]([N:4]([C:5](=[O:6])[C:7]([H:16])([H:17])[H:18])[H:15])([H:13])[H:14])([H:11])[H:12])([H:8])([H:9])[H:10]>>[C:1]([C@:2]1([H:11])[C:3]([H:13])([H:14])[N:4]([H:15])[C@@:5]1([O:6][H:12])[C:7]([H:16])([H:17])[H:18])([H:8])([H:9])[H:10]"
C       -2.43661653       0.08477866      -0.66259870
C       -0.98364994      -0.19448967      -0.35355534
C       -0.67215995      -0.39587495       1.12839398
N        0.78225138      -0.40057752       1.10913894
C        1.24981308       0.38503702       0.11379165
O        0.92208425       1.66982891       0.00109902
C        2.56060875       0.03808077      -0.51022193
H       -2.57032777       0.31906569      -1.72119967
H       -3.08464933      -0.77488952      -0.43411682
H       -2.81390596       0.94101036      -0.09236036
H       -0.67056636      -1.04867269      -0.96492298
H       -0.15038086       1.62670400      -0.18003879
H       -1.01081976       0.43381919       1.75823263
H       -1.02085520      -1.31170848       1.62869393
H        1.23970741      -1.28893493       1.22806856
H        2.46447252       0.11757884      -1.59348949
H        2.88841855      -0.97010701      -0.26035096
H        3.30657572       0.76935133      -0.19456367
18
Frame=5 idx=008240 GeodesicLength=0.6239787417890758 rxn_smarts="[C:1]([C:2]([C:3]([N:4]([C:5](=[O:6])[C:7]([H:16])([H:17])[H:18])[H:15])([H:13])[H:14])([H:11])[H:12])([H:8])([H:9])[H:10]>>[C:1]([C@:2]1([H:11])[C:3]([H:13])([H:14])[N:4]([H:15])[C@@:5]1([O:6][H:12])[C:7]([H:16])([H:17])[H:18])([H:8])([H:9])[H:10]"
C       -2.42747544       0.08334610      -0.66174641
C       -0.97274774      -0.17774042      -0.34724977
C       -0.67140009      -0.39237560       1.13464082
N        0.78240948      -0.38615566       1.12327442
C        1.24377614       0.38751749       0.11086508
O        0.91975623       1.67068286      -0.01199897
C        2.55053230       0.02501406      -0.51594790
H       -2.55702760       0.34408841      -1.71453889
H       -3.05350179      -0.79854049      -0.46113172
H       -2.82438761       0.91569588      -0.07057980
H       -0.65034708      -1.01000933      -0.98335134
H       -0.18452459       1.62533910      -0.19999548
H       -1.01336973       0.42812201       1.77447857
H       -1.01731080      -1.31400803       1.62445006
H        1.24826229      -1.26661089       1.26575112
H        2.45979092       0.11705739      -1.59869996
H        2.85978422      -0.99182684      -0.27705861
H        3.30778090       0.74040396      -0.19116123
18
Frame=6 idx=008240 GeodesicLength=0.7488279150449053 rxn_smarts="[C:1]([C:2]([C:3]([N:4]([C:5](=[O:6])[C:7]([H:16])([H:17])[H:18])[H:15])([H:13])[H:14])([H:11])[H:12])([H:8])([H:9])[H:10]>>[C:1]([C@:2]1([H:11])[C:3]([H:13])([H:14])[N:4]([H:15])[C@@:5]1([O:6][H:12])[C:7]([H:16])([H:17])[H:18])([H:8])([H:9])[H:10]"
C       -2.41834887       0.08153584      -0.66099213
C       -0.96200158      -0.16113599      -0.34113178
C       -0.67044669      -0.38879857       1.14051183
N        0.78262566      -0.37142211       1.13690609
C        1.23785227       0.39024349       0.10781458
O        0.91853248       1.67199093      -0.02427521
C        2.54036337       0.01167832      -0.52155611
H       -2.54489524       0.36801345      -1.70731877
H       -3.02150045      -0.82114750      -0.48790829
H       -2.83436485       0.88939712      -0.05001685
H       -0.63077852      -0.97073292      -1.00140312
H       -0.21951369       1.62449444      -0.21871268
H       -1.01592441       0.42218900       1.79033170
H       -1.01309209      -1.31620536       1.61992767
H        1.25686643      -1.24325783       1.30259679
H        2.45556826       0.11624834      -1.60366424
H        2.83010731      -1.01353338      -0.29350733
H        3.30895063       0.71044273      -0.18760215
18
Frame=7 idx=008240 GeodesicLength=0.8736981497829475 rxn_smarts="[C:1]([C:2]([C:3]([N:4]([C:5](=[O:6])[C:7]([H:16])([H:17])[H:18])[H:15])([H:13])[H:14])([H:11])[H:12])([H:8])([H:9])[H:10]>>[C:1]([C@:2]1([H:11])[C:3]([H:13])([H:14])[N:4]([H:15])[C@@:5]1([O:6][H:12])[C:7]([H:16])([H:17])[H:18])([H:8])([H:9])[H:10]"
C       -2.40923313       0.07933272      -0.66033121
C       -0.95138943      -0.14457246      -0.33521061
C       -0.66929155      -0.38511900       1.14600393
N        0.78290647      -0.35638769       1.15004710
C        1.23206768       0.39321446       0.10465057
O        0.91848634       1.67376888      -0.03575480
C        2.53010345      -0.00195198      -0.52703168
H       -2.53393660       0.39083458      -1.69958214
H       -2.98862687      -0.84279800      -0.51445134
H       -2.84387042       0.86208681      -0.03059496
H       -0.61184896      -0.93073171      -1.01910877
H       -0.25545938       1.62420257      -0.23619084
H       -1.01844961       0.41602997       1.80580521
H       -1.00821223      -1.31827983       1.61509726
H        1.26548069      -1.21893036       1.33856653
H        2.45180016       0.11503707      -1.60836780
H        2.79942252      -1.03518763      -0.30961989
H        3.31005087       0.67945160      -0.18392657
18
Frame=8 idx=008240 GeodesicLength=0.9985935101229283 rxn_smarts="[C:1]([C:2]([C:3]([N:4]([C:5](=[O:6])[C:7]([H:16])([H:17])[H:18])[H:15])([H:13])[H:14])([H:11])[H:12])([H:8])([H:9])[H:10]>>[C:1]([C@:2]1([H:11])[C:3]([H:13])([H:14])[N:4]([H:15])[C@@:5]1([O:6][H:12])[C:7]([H:16])([H:17])[H:18])([H:8])([H:9])[H:10]"
C       -2.40011847       0.07671496      -0.65976453
C       -0.94088931      -0.12793783      -0.32949044
C       -0.66792712      -0.38130411       1.15111621
N        0.78325856      -0.34105958       1.16271313
C        1.22645003       0.39643315       0.10138609
O        0.91970394       1.67603344      -0.04645006
C        2.51974721      -0.01590513      -0.53236529
H       -2.52415740       0.41253455      -1.69137216
H       -2.95484069      -0.86357878      -0.54077716
H       -2.85293430       0.83371716      -0.01225185
H       -0.59354373      -0.88988464      -1.03648558
H       -0.29248401       1.62449911      -0.25241504
H       -1.02091120       0.40966345       1.82091217
H       -1.00268693      -1.32019987       1.60993320
H        1.27406465      -1.19368651       1.37362685
H        2.44847159       0.11332298      -1.61280281
H        2.76774865      -1.05676334      -0.32534305
H        3.31104853       0.64740099      -0.18016967
18
Frame=9 idx=008240 GeodesicLength=1.1235222567675387 rxn_smarts="[C:1]([C:2]([C:3]([N:4]([C:5](=[O:6])[C:7]([H:16])([H:17])[H:18])[H:15])([H:13])[H:14])([H:11])[H:12])([H:8])([H:9])[H:10]>>[C:1]([C@:2]1([H:11])[C:3]([H:13])([H:14])[N:4]([H:15])[C@@:5]1([O:6][H:12])[C:7]([H:16])([H:17])[H:18])([H:8])([H:9])[H:10]"
C       -2.39098835       0.07365324      -0.65929763
C       -0.93047972      -0.11111080      -0.32397065
C       -0.66634600      -0.37731224       1.15584934
N        0.78368915      -0.32543974       1.17492164
C        1.22102838       0.39990587       0.09803476
O        0.92228607       1.67880316      -0.05636304
C        2.50928164      -0.03021359      -0.53755277
H       -2.51556258       0.43308971      -1.68272974
H       -2.92007726      -0.88357759      -0.56691907
H       -2.86158472       0.80421394       0.00506595
H       -0.57584583      -0.84806157      -1.05353758
H       -0.33072486       1.62542320      -0.26735713
H       -1.02327439       0.40311785       1.83566459
H       -0.99653394      -1.32192198       1.60441318
H        1.28257942      -1.16758388       1.40775267
H        2.44555909       0.11101857      -1.61696715
H        2.73508391      -1.07824722      -0.34064810
H        3.31190998       0.61424308      -0.17635926
18
Frame=10 idx=008240 GeodesicLength=1.2484874877944405 rxn_smarts="[C:1]([C:2]([C:3]([N:4]([C:5](=[O:6])[C:7]([H:16])([H:17])[H:18])[H:15])([H:13])[H:14])([H:11])[H:12])([H:8])([H:9])[H:10]>>[C:1]([C@:2]1([H:11])[C:3]([H:13])([H:14])[N:4]([H:15])[C@@:5]1([O:6][H:12])[C:7]([H:16])([H:17])[H:18])([H:8])([H:9])[H:10]"
C       -2.38181600       0.07011077      -0.65894450
C       -0.92013851      -0.09395348      -0.31864402
C       -0.66454088      -0.37309325       1.16020662
N        0.78420656      -0.30952576       1.18669404
C        1.21583437       0.40364575       0.09461645
O        0.92634742       1.68209974      -0.06548207
C        2.49868351      -0.04491373      -0.54259656
H       -2.50815879       0.45244681      -1.67370527
H       -2.88424143      -0.90287784      -0.59290910
H       -2.86984042       0.77348745       0.02138406
H       -0.55873301      -0.80511257      -1.07025639
H       -0.37033749       1.62701933      -0.28095751
H       -1.02550544       0.39642792       1.85007773
H       -0.98977135      -1.32339436       1.59851585
H        1.29098402      -1.14068623       1.44091800
H        2.44302509       0.10804266      -1.62086506
H        2.70140155      -1.09963502      -0.35552443
H        3.31260081       0.57991181      -0.17252784
18
Frame=11 idx=008240 GeodesicLength=1.3734963446950263 rxn_smarts="[C:1]([C:2]([C:3]([N:4]([C:5](=[O:6])[C:7]([H:16])([H:17])[H:18])[H:15])([H:13])[H:14])([H:11])[H:12])([H:8])([H:9])[H:10]>>[C:1]([C@:2]1([H:11])[C:3]([H:13])([H:14])[N:4]([H:15])[C@@:5]1([O:6][H:12])[C:7]([H:16])([H:17])[H:18])([H:8])([H:9])[H:10]"
C       -2.37256632       0.06604122      -0.65872392
C       -0.90984571      -0.07631247      -0.31349685
C       -0.66250366      -0.36858574       1.16419322
N        0.78482091      -0.29330607       1.19805300
C        1.21090211       0.40767020       0.09114868
O        0.93202281       1.68594545      -0.07379521
C        2.48791984      -0.06004942      -0.54750435
H       -2.50195034       0.47055025      -1.66434572
H       -2.84720451      -0.92156704      -0.61880559
H       -2.87772216       0.74140967       0.03672347
H       -0.54218024      -0.76087076      -1.08662120
H       -0.41150175       1.62933773      -0.29313251
H       -1.02756925       0.38963987       1.86416717
H       -0.98241735      -1.32455225       1.59222204
H        1.29924200      -1.11305108       1.47310803
H        2.44082674       0.10431930      -1.62450605
H        2.66664506      -1.12093389      -0.36998218
H        3.31308181       0.54431503      -0.16870203
18
Frame=12 idx=008240 GeodesicLength=1.4985612816112672 rxn_smarts="[C:1]([C:2]([C:3]([N:4]([C:5](=[O:6])[C:7]([H:16])([H:17])[H:18])[H:15])([H:13])[H:14])([H:11])[H:12])([H:8])([H:9])[H:10]>>[C:1]([C@:2]1([H:11])[C:3]([H:13])([H:14])[N:4]([H:15])[C@@:5]1([O:6][H:12])[C:7]([H:16])([H:17])[H:18])([H:8])([H:9])[H:10]"
C       -2.36319192       0.06139044      -0.65866102
C       -0.89958371      -0.05801540      -0.30850799
C       -0.66022617      -0.36371806       1.16781595
N        0.78554351      -0.27676496       1.20902266
C        1.20626730       0.41200097       0.08765145
O        0.93946531       1.69036285      -0.08127533
C        2.47694607      -0.07567047      -0.55228847
H       -2.49694265       0.48732924      -1.65470011
H       -2.80879823      -0.93972668      -0.64467609
H       -2.88523929       0.70782156       0.05108953
H       -0.52616142      -0.71514591      -1.10259937
H       -0.45442596       1.63242701      -0.30378649
H       -1.02942923       0.38280905       1.87795012
H       -0.97449148      -1.32531968       1.58551332
H        1.30731943      -1.08473725       1.50431277
H        2.43890973       0.09977394      -1.62790346
H        2.63073199      -1.14215577      -0.38404507
H        3.31330670       0.50733911      -0.16491241
18
Frame=13 idx=008240 GeodesicLength=1.623696155911769 rxn_smarts="[C:1]([C:2]([C:3]([N:4]([C:5](=[O:6])[C:7]([H:16])([H:17])[H:18])[H:15])([H:13])[H:14])([H:11])[H:12])([H:8])([H:9])[H:10]>>[C:1]([C@:2]1([H:11])[C:3]([H:13])([H:14])[N:4]([H:15])[C@@:5]1([O:6][H:12])[C:7]([H:16])([H:17])[H:18])([H:8])([H:9])[H:10]"
C       -2.35363159       0.05609296      -0.65878780
C       -0.88933879      -0.03886603      -0.30364674
C       -0.65769936      -0.35840496       1.17108515
N        0.78638812      -0.25987544       1.21962938
C        1.20196872       0.41666515       0.08414264
O        0.94885322       1.69537330      -0.08789808
C        2.46570402      -0.09183682      -0.55696750
H       -2.49313800       0.50270585      -1.64481524
H       -2.76880585      -0.95743756      -0.67061695
H       -2.89239671       0.67251528       0.06447730
H       -0.51064798      -0.66771775      -1.11814617
H       -0.49935527       1.63633870      -0.31278986
H       -1.03104751       0.37600331       1.89144780
H       -0.96601301      -1.32560720       1.57837360
H        1.31518658      -1.05579551       1.53453193
H        2.43721206       0.09432793      -1.63107684
H        2.59354261      -1.16332060      -0.39775212
H        3.31321873       0.46883938      -0.16119050
18
Frame=14 idx=008240 GeodesicLength=1.7489228631716844 rxn_smarts="[C:1]([C:2]([C:3]([N:4]([C:5](=[O:6])[C:7]([H:16])([H:17])[H:18])[H:15])([H:13])[H:14])([H:11])[H:12])([H:8])([H:9])[H:10]>>[C:1]([C@:2]1([H:11])[C:3]([H:13])([H:14])[N:4]([H:15])[C@@:5]1([O:6][H:12])[C:7]([H:16])([H:17])[H:18])([H:8])([H:9])[H:10]"
C       -2.34380473       0.05007314      -0.65914403
C       -0.87910185      -0.01864000      -0.29887109
C       -0.65491325      -0.35254727       1.17401365
N        0.78737082      -0.24260339       1.22990111
C        1.19804683       0.42169492       0.08064198
O        0.96039059       1.70099564      -0.09362638
C        2.45411786      -0.10861765      -0.56156487
H       -2.49053813       0.51658213      -1.63473920
H       -2.72695314      -0.97476809      -0.69673882
H       -2.89917906       0.63523753       0.07686196
H       -0.49561185      -0.61832663      -1.13320403
H       -0.54657919       1.64111640      -0.31999454
H       -1.03238349       0.36930167       1.90468497
H       -0.95700088      -1.32531123       1.57078671
H        1.32281715      -1.02627440       1.56376935
H        2.43565656       0.08789638      -1.63404937
H        2.55491980      -1.18445009      -0.41115203
H        3.31274598       0.42864096      -0.15757534
18
Frame=15 idx=008240 GeodesicLength=1.8742683572029915 rxn_smarts="[C:1]([C:2]([C:3]([N:4]([C:5](=[O:6])[C:7]([H:16])([H:17])[H:18])[H:15])([H:13])[H:14])([H:11])[H:12])([H:8])([H:9])[H:10]>>[C:1]([C@:2]1([H:11])[C:3]([H:13])([H:14])[N:4]([H:15])[C@@:5]1([O:6][H:12])[C:7]([H:16])([H:17])[H:18])([H:8])([H:9])[H:10]"
C       -2.33360612       0.04324196      -0.65977934
C       -0.86887016       0.00292270      -0.29412419
C       -0.65185682      -0.34602830       1.17661960
N        0.78851073      -0.22490102       1.23986919
C        1.19454489       0.42712833       0.07716779
O        0.97431487       1.70724362      -0.09842372
C        2.44208955      -0.12609638      -0.56611160
H       -2.48913796       0.52884619      -1.62451865
H       -2.68289299      -0.99177540      -0.72318649
H       -2.90555227       0.59566919       0.08820036
H       -0.48102407      -0.56666225      -1.14770053
H       -0.59644328       1.64679757      -0.32521253
H       -1.03339490       0.36279753       1.91769367
H       -0.94747330      -1.32431163       1.56273885
H        1.33019000      -0.99621130       1.59203835
H        2.43414813       0.08037791      -1.63685237
H        2.51465924      -1.20556979      -0.42430310
H        3.31179445       0.38653107      -0.15411528
18
Frame=16 idx=008240 GeodesicLength=1.99977078598857 rxn_smarts="[C:1]([C:2]([C:3]([N:4]([C:5](=[O:6])[C:7]([H:16])([H:17])[H:18])[H:15])([H:13])[H:14])([H:11])[H:12])([H:8])([H:9])[H:10]>>[C:1]([C@:2]1([H:11])[C:3]([H:13])([H:14])[N:4]([H:15])[C@@:5]1([O:6][H:12])[C:7]([H:16])([H:17])[H:18])([H:8])([H:9])[H:10]"
C       -2.32289555       0.03549648      -0.66075580
C       -0.85864828       0.02612609      -0.28932992
C       -0.64851793      -0.33871028       1.17892725
N        0.78983016      -0.20670796       1.24956950
C        1.19150803       0.43301035       0.07374132
O        0.99090130       1.71412364      -0.10224260
C        2.42949014      -0.14437192      -0.57064643
H       -2.48892389       0.53936052      -1.61420187
H       -2.63618414      -1.00849382      -0.75013311
H       -2.91144668       0.55341598       0.09842136
H       -0.46685655      -0.51234602      -1.16154517
H       -0.64936055       1.65340111      -0.32822391
H       -1.03403647       0.35660064       1.93051444
H       -0.93744806      -1.32246747       1.55421823
H        1.33728738      -0.96563688       1.61935708
H        2.43256066       0.07165025      -1.63952498
H        2.47250049      -1.22670489      -0.43726882
H        3.31023991       0.34225418      -0.15087658
