13
Frame=0 idx=009476 GeodesicLength=0.0 rxn_smarts="[O:1]([C@@:2]1([H:9])[C:3]([H:10])([H:11])[C@:4]1([O:5][C:6](=[O:7])[H:13])[H:12])[H:8]>>[C:3](=[C:4]([O:5][C:6](=[O:7])[H:13])[H:12])([H:10])[H:11].[O:1]([C:2][H:9])[H:8]"
O       -0.94447119       1.11829513       1.50579568
C       -0.62810602      -0.14683448       1.44260811
C       -1.01702549      -0.51088873      -1.08392754
C        0.01429677      -0.99947877      -0.37458889
O        1.34917322      -0.61606803      -0.55797860
C        1.80347292       0.61799321      -0.41980913
O        1.20581560       1.59321569      -0.05538086
H       -0.16086532       1.62467932       1.22614907
H       -1.56206944      -0.70740700       1.65505492
H       -1.94489830      -1.06274362      -1.10837444
H       -0.97464575       0.45198858      -1.57355661
H       -0.00516462      -1.99504261       0.04242178
H        2.86448768       0.63229130      -0.69841349
13
Frame=1 idx=009476 GeodesicLength=0.06698485154223328 rxn_smarts="[O:1]([C@@:2]1([H:9])[C:3]([H:10])([H:11])[C@:4]1([O:5][C:6](=[O:7])[H:13])[H:12])[H:8]>>[C:3](=[C:4]([O:5][C:6](=[O:7])[H:13])[H:12])([H:10])[H:11].[O:1]([C:2][H:9])[H:8]"
O       -0.95773188       1.12410591       1.50901109
C       -0.65955840      -0.14657636       1.43100142
C       -1.02756953      -0.51090855      -1.07338423
C        0.02000837      -0.98709912      -0.37371619
O        1.34763264      -0.60536979      -0.60226308
C        1.82249059       0.61425946      -0.41742816
O        1.24673861       1.57981697       0.00221641
H       -0.16488162       1.62150755       1.23990072
H       -1.59026417      -0.70025348       1.66990232
H       -1.94262204      -1.08294501      -1.11077595
H       -0.98195217       0.43478358      -1.59607375
H        0.01682256      -1.97496222       0.06200095
H        2.87088703       0.63364105      -0.74039154
13
Frame=2 idx=009476 GeodesicLength=0.13431430100844577 rxn_smarts="[O:1]([C@@:2]1([H:9])[C:3]([H:10])([H:11])[C@:4]1([O:5][C:6](=[O:7])[H:13])[H:12])[H:8]>>[C:3](=[C:4]([O:5][C:6](=[O:7])[H:13])[H:12])([H:10])[H:11].[O:1]([C:2][H:9])[H:8]"
O       -0.96979450       1.13179512       1.51151667
C       -0.69429830      -0.14490474       1.41722073
C       -1.03748075      -0.51415456      -1.06519988
C        0.02612043      -0.97410876      -0.37272814
O        1.34461399      -0.59247284      -0.64642139
C        1.84195671       0.61002329      -0.41646749
O        1.29282756       1.56062968       0.06693396
H       -0.16558668       1.61749986       1.25543596
H       -1.62234037      -0.68962336       1.68189745
H       -1.93800183      -1.10782526      -1.11529883
H       -0.99351172       0.41782831      -1.61319008
H        0.04096482      -1.95289103       0.08323876
H        2.87453065       0.63820428      -0.78693772
13
Frame=3 idx=009476 GeodesicLength=0.1999160466237473 rxn_smarts="[O:1]([C@@:2]1([H:9])[C:3]([H:10])([H:11])[C@:4]1([O:5][C:6](=[O:7])[H:13])[H:12])[H:8]>>[C:3](=[C:4]([O:5][C:6](=[O:7])[H:13])[H:12])([H:10])[H:11].[O:1]([C:2][H:9])[H:8]"
O       -0.97726390       1.14045471       1.51459288
C       -0.72837643      -0.14208484       1.40095211
C       -1.04976681      -0.51981181      -1.05866531
C        0.03138427      -0.95975858      -0.37421945
O        1.33813728      -0.57510666      -0.69401834
C        1.85985402       0.60651080      -0.41655072
O        1.33751303       1.53893322       0.12744707
H       -0.16032986       1.61217599       1.27347754
H       -1.65291614      -0.67683959       1.69333521
H       -1.93428670      -1.13622638      -1.11845922
H       -1.01151032       0.39754864      -1.63225053
H        0.06723374      -1.92798197       0.10293485
H        2.88032783       0.64218648      -0.81857609
13
Frame=4 idx=009476 GeodesicLength=0.26751994653452293 rxn_smarts="[O:1]([C@@:2]1([H:9])[C:3]([H:10])([H:11])[C@:4]1([O:5][C:6](=[O:7])[H:13])[H:12])[H:8]>>[C:3](=[C:4]([O:5][C:6](=[O:7])[H:13])[H:12])([H:10])[H:11].[O:1]([C:2][H:9])[H:8]"
O       -0.98410971       1.15189114       1.51606810
C       -0.76848221      -0.13646218       1.38106648
C       -1.05976254      -0.53079090      -1.05546345
C        0.03748243      -0.94522770      -0.37423813
O        1.33098597      -0.55613253      -0.73825977
C        1.87804440       0.60298926      -0.41881460
O        1.39326547       1.50467099       0.20496588
H       -0.15186658       1.60534375       1.29344887
H       -1.69085461      -0.65824306       1.69941820
H       -1.92627254      -1.17127209      -1.12524944
H       -1.03210213       0.37880010      -1.64263937
H        0.09531013      -1.90029380       0.12688913
H        2.87836194       0.65472702      -0.86719190
13
Frame=5 idx=009476 GeodesicLength=0.33506075078642217 rxn_smarts="[O:1]([C@@:2]1([H:9])[C:3]([H:10])([H:11])[C@:4]1([O:5][C:6](=[O:7])[H:13])[H:12])[H:8]>>[C:3](=[C:4]([O:5][C:6](=[O:7])[H:13])[H:12])([H:10])[H:11].[O:1]([C:2][H:9])[H:8]"
O       -0.98619322       1.16531823       1.51837031
C       -0.81055636      -0.12806239       1.35758859
C       -1.07038795      -0.54568384      -1.05484004
C        0.04293790      -0.92997407      -0.37538296
O        1.32138095      -0.53359405      -0.78187538
C        1.89392604       0.60099146      -0.42193878
O        1.45292394       1.46042034       0.28749931
H       -0.13672468       1.59612974       1.31744154
H       -1.73066339      -0.63481788       1.70281128
H       -1.91726076      -1.21109129      -1.13216566
H       -1.05592563       0.35613744      -1.65526710
H        0.12436714      -1.86928072       0.15183326
H        2.87217604       0.67350704      -0.91407437
13
Frame=6 idx=009476 GeodesicLength=0.40212790618094585 rxn_smarts="[O:1]([C@@:2]1([H:9])[C:3]([H:10])([H:11])[C@:4]1([O:5][C:6](=[O:7])[H:13])[H:12])[H:8]>>[C:3](=[C:4]([O:5][C:6](=[O:7])[H:13])[H:12])([H:10])[H:11].[O:1]([C:2][H:9])[H:8]"
O       -0.98230922       1.18019717       1.52234442
C       -0.85330547      -0.11634318       1.33035367
C       -1.08238263      -0.56368715      -1.05647744
C        0.04711764      -0.91370826      -0.37848933
O        1.30881274      -0.50667263      -0.82498455
C        1.90710903       0.60059630      -0.42394232
O        1.51298983       1.40754060       0.36944406
H       -0.11387555       1.58344381       1.34751741
H       -1.76995864      -0.60691736       1.70441889
H       -1.90824458      -1.25458775      -1.13784609
H       -1.08241160       0.32682163      -1.67462868
H        0.15345153      -1.83442520       0.17657624
H        2.86300692       0.69774203      -0.95428629
13
Frame=7 idx=009476 GeodesicLength=0.4691320987514836 rxn_smarts="[O:1]([C@@:2]1([H:9])[C:3]([H:10])([H:11])[C@:4]1([O:5][C:6](=[O:7])[H:13])[H:12])[H:8]>>[C:3](=[C:4]([O:5][C:6](=[O:7])[H:13])[H:12])([H:10])[H:11].[O:1]([C:2][H:9])[H:8]"
O       -0.97223625       1.19590623       1.52900908
C       -0.89633465      -0.10064510       1.29938042
C       -1.09576706      -0.58411496      -1.06017483
C        0.04968377      -0.89629983      -0.38370590
O        1.29330984      -0.47511933      -0.86681567
C        1.91722788       0.60211867      -0.42445206
O        1.57211788       1.34698681       0.44827710
H       -0.08409570       1.56628719       1.38374755
H       -1.80715589      -0.57516219       1.70488914
H       -1.89953290      -1.30067829      -1.14159739
H       -1.11027163       0.28951728      -1.70267888
H        0.18151695      -1.79542748       0.20070970
H        2.85153776       0.72663101      -0.98658824
13
Frame=8 idx=009476 GeodesicLength=0.5359063871954559 rxn_smarts="[O:1]([C@@:2]1([H:9])[C:3]([H:10])([H:11])[C@:4]1([O:5][C:6](=[O:7])[H:13])[H:12])[H:8]>>[C:3](=[C:4]([O:5][C:6](=[O:7])[H:13])[H:12])([H:10])[H:11].[O:1]([C:2][H:9])[H:8]"
O       -0.95692583       1.21154428       1.53810893
C       -0.93893154      -0.08070255       1.26518685
C       -1.11048973      -0.60560915      -1.06534444
C        0.05044364      -0.87753201      -0.39110794
O        1.27498204      -0.43881442      -0.90697009
C        1.92503626       0.60488057      -0.42276256
O        1.62735130       1.28241328       0.51951655
H       -0.04910051       1.54350899       1.42647416
H       -1.83994681      -0.54124124       1.70543396
H       -1.89154118      -1.34745844      -1.14259449
H       -1.13828539       0.24373859      -1.74008874
H        0.20749001      -1.75226898       0.22349881
H        2.83991774       0.75754109      -1.00935100
13
Frame=9 idx=009476 GeodesicLength=0.6021508195424197 rxn_smarts="[O:1]([C@@:2]1([H:9])[C:3]([H:10])([H:11])[C@:4]1([O:5][C:6](=[O:7])[H:13])[H:12])[H:8]>>[C:3](=[C:4]([O:5][C:6](=[O:7])[H:13])[H:12])([H:10])[H:11].[O:1]([C:2][H:9])[H:8]"
O       -0.93763678       1.22666170       1.54848139
C       -0.98104289      -0.05615318       1.22809137
C       -1.12591008      -0.62742273      -1.07159702
C        0.04958210      -0.85767596      -0.40022657
O        1.25437800      -0.39828977      -0.94459669
C        1.93096514       0.60848783      -0.41903620
O        1.67878607       1.21453012       0.58336924
H       -0.01138288       1.51464540       1.47337519
H       -1.86708638      -0.50635254       1.70640471
H       -1.88406741      -1.39363033      -1.14073681
H       -1.16529335       0.19067957      -1.78423729
H        0.23050316      -1.70540781       0.24506994
H        2.82820530       0.78992770      -1.02436125
13
Frame=10 idx=009476 GeodesicLength=0.667025553232028 rxn_smarts="[O:1]([C@@:2]1([H:9])[C:3]([H:10])([H:11])[C@:4]1([O:5][C:6](=[O:7])[H:13])[H:12])[H:8]>>[C:3](=[C:4]([O:5][C:6](=[O:7])[H:13])[H:12])([H:10])[H:11].[O:1]([C:2][H:9])[H:8]"
O       -0.91588949       1.24082063       1.55813640
C       -1.02212010      -0.02728266       1.18880281
C       -1.14150717      -0.64870944      -1.07828133
C        0.04746034      -0.83710972      -0.41067312
O        1.23192158      -0.35393030      -0.97932684
C        1.93548564       0.61252615      -0.41352270
O        1.72584909       1.14468427       0.63943333
H        0.02631143       1.47988042       1.52165113
H       -1.88709134      -0.47207737       1.70801555
H       -1.87709469      -1.43778925      -1.13581646
H       -1.19078589       0.13241303      -1.83150210
H        0.25017099      -1.65566672       0.26526077
H        2.81728961       0.82224097      -1.03217743
13
Frame=11 idx=009476 GeodesicLength=0.7299791598918063 rxn_smarts="[O:1]([C@@:2]1([H:9])[C:3]([H:10])([H:11])[C@:4]1([O:5][C:6](=[O:7])[H:13])[H:12])[H:8]>>[C:3](=[C:4]([O:5][C:6](=[O:7])[H:13])[H:12])([H:10])[H:11].[O:1]([C:2][H:9])[H:8]"
O       -0.89336717       1.25348841       1.56564730
C       -1.06132493       0.00436696       1.14925691
C       -1.15708680      -0.66756405      -1.08431944
C        0.04431673      -0.81610641      -0.42193035
O        1.20804249      -0.30634000      -1.01069670
C        1.93951333       0.61597102      -0.40629710
O        1.76756029       1.07567181       0.68700762
H        0.06118243       1.44011764       1.56864612
H       -1.89878038      -0.44056140       1.71119248
H       -1.87113940      -1.47742228      -1.12761405
H       -1.21308198       0.06989381      -1.88071050
H        0.26609084      -1.60434365       0.28359367
H        2.80807455       0.85282813      -1.03377595
13
Frame=12 idx=009476 GeodesicLength=0.7913636913904336 rxn_smarts="[O:1]([C@@:2]1([H:9])[C:3]([H:10])([H:11])[C@:4]1([O:5][C:6](=[O:7])[H:13])[H:12])[H:8]>>[C:3](=[C:4]([O:5][C:6](=[O:7])[H:13])[H:12])([H:10])[H:11].[O:1]([C:2][H:9])[H:8]"
O       -0.87067642       1.26426849       1.57050625
C       -1.09857630       0.03733861       1.11083873
C       -1.17244142      -0.68292806      -1.08914093
C        0.04043830      -0.79497198      -0.43324639
O        1.18307353      -0.25620572      -1.03806373
C        1.94335689       0.61836845      -0.39776191
O        1.80455583       1.00855213       0.72698084
H        0.09188474       1.39622512       1.61163428
H       -1.90274311      -0.41253491       1.71567823
H       -1.86625028      -1.51122348      -1.11658652
H       -1.23106243       0.00401343      -1.93016545
H        0.27837739      -1.55247293       0.30026304
H        2.80006326       0.88157087      -1.03093645
13
Frame=13 idx=009476 GeodesicLength=0.8511732179358581 rxn_smarts="[O:1]([C@@:2]1([H:9])[C:3]([H:10])([H:11])[C@:4]1([O:5][C:6](=[O:7])[H:13])[H:12])[H:8]>>[C:3](=[C:4]([O:5][C:6](=[O:7])[H:13])[H:12])([H:10])[H:11].[O:1]([C:2][H:9])[H:8]"
O       -0.84915131       1.27361248       1.56991948
C       -1.13230642       0.06902811       1.07544233
C       -1.18740578      -0.69457411      -1.09210320
C        0.03659907      -0.77455194      -0.44472271
O        1.15723277      -0.20338559      -1.06182404
C        1.94753961       0.61920147      -0.38814424
O        1.83705407       0.94288343       0.76078814
H        0.11686877       1.35137393       1.64866928
H       -1.90021888      -0.38800288       1.72089569
H       -1.86256764      -1.53901256      -1.10287617
H       -1.24556350      -0.06259819      -1.97609462
H        0.28822941      -1.50207345       0.31428687
H        2.79368981       0.90809931      -1.02423681
13
Frame=14 idx=009476 GeodesicLength=0.9107918771291732 rxn_smarts="[O:1]([C@@:2]1([H:9])[C:3]([H:10])([H:11])[C@:4]1([O:5][C:6](=[O:7])[H:13])[H:12])[H:8]>>[C:3](=[C:4]([O:5][C:6](=[O:7])[H:13])[H:12])([H:10])[H:11].[O:1]([C:2][H:9])[H:8]"
O       -0.82863581       1.28091226       1.56629853
C       -1.16369519       0.09870987       1.04332995
C       -1.20195155      -0.70236434      -1.09351719
C        0.03277648      -0.75440818      -0.45590103
O        1.13007039      -0.14734867      -1.08159258
C        1.95162034       0.61920122      -0.37821995
O        1.86611350       0.87943209       0.78896850
H        0.13673674       1.30673419       1.67818138
H       -1.89265940      -0.36725031       1.72678200
H       -1.85941510      -1.56119082      -1.08757110
H       -1.25659296      -0.13012837      -2.01843328
H        0.29611654      -1.45302938       0.32609779
H        2.78951602       0.93073044      -1.01442300
13
Frame=15 idx=009476 GeodesicLength=0.9696153358106638 rxn_smarts="[O:1]([C@@:2]1([H:9])[C:3]([H:10])([H:11])[C@:4]1([O:5][C:6](=[O:7])[H:13])[H:12])[H:8]>>[C:3](=[C:4]([O:5][C:6](=[O:7])[H:13])[H:12])([H:10])[H:11].[O:1]([C:2][H:9])[H:8]"
O       -0.80958355       1.28671653       1.55765383
C       -1.19146719       0.12430218       1.01518912
C       -1.21521389      -0.70724152      -1.09336918
C        0.02999301      -0.73630120      -0.46660193
O        1.10291256      -0.09051576      -1.09699959
C        1.95623661       0.61688388      -0.36825616
O        1.89160808       0.81804449       0.81205537
H        0.15158609       1.26450862       1.70096735
H       -1.88318583      -0.34868698       1.73218738
H       -1.85683893      -1.57825740      -1.07164430
H       -1.26439278      -0.19414671      -2.05359617
H        0.30293068      -1.40746888       0.33605452
H        2.78541513       0.95216274      -1.00364024
13
Frame=16 idx=009476 GeodesicLength=1.0290316655417868 rxn_smarts="[O:1]([C@@:2]1([H:9])[C:3]([H:10])([H:11])[C@:4]1([O:5][C:6](=[O:7])[H:13])[H:12])[H:8]>>[C:3](=[C:4]([O:5][C:6](=[O:7])[H:13])[H:12])([H:10])[H:11].[O:1]([C:2][H:9])[H:8]"
O       -0.79162391       1.29061661       1.54712060
C       -1.21758838       0.14704184       0.98996969
C       -1.22748657      -0.70983819      -1.09236857
C        0.02785100      -0.71908198      -0.47672356
O        1.07470850      -0.03127607      -1.10804062
C        1.96091665       0.61357764      -0.35900605
O        1.91469053       0.75936983       0.83045737
H        0.16286959       1.22413263       1.71785825
H       -1.87238997      -0.33252343       1.73718880
H       -1.85405920      -1.59183607      -1.05573222
H       -1.26948751      -0.25620251      -2.08338140
H        0.30872323      -1.36386008       0.34480317
H        2.78287603       0.96987979      -0.99214544
