13
Frame=0 idx=003877 GeodesicLength=0.0 rxn_smarts="[O:1]([C:2]([C:3]([N:4]([C:5](=[O:6])[H:13])[H:12])([H:10])[H:11])([H:8])[H:9])[H:7]>>[C-:5]#[O+:6].[O:1]([C:2]([C:3]([N:4]([H:12])[H:13])([H:10])[H:11])([H:8])[H:9])[H:7]"
O       -1.24327020      -0.65915688       1.36024986
C       -1.28637375      -0.58045167      -0.03685693
C       -0.43271203       0.54461325      -0.61036627
N        1.00094839       0.24169300      -0.61025893
C        1.99569991       0.19088128       0.66707719
O        1.51641413       0.07436641       1.74322471
H       -0.32851445      -0.55992915       1.66026415
H       -2.32857543      -0.39477745      -0.30753528
H       -0.99162545      -1.53183065      -0.50563032
H       -0.57867624       1.44199550      -0.00447072
H       -0.74249124       0.77431759      -1.63287231
H        1.31303722      -0.42839119      -1.30744144
H        2.10613914       0.88666996      -0.41538376
13
Frame=1 idx=003877 GeodesicLength=0.06738493163688254 rxn_smarts="[O:1]([C:2]([C:3]([N:4]([C:5](=[O:6])[H:13])[H:12])([H:10])[H:11])([H:8])[H:9])[H:7]>>[C-:5]#[O+:6].[O:1]([C:2]([C:3]([N:4]([H:12])[H:13])([H:10])[H:11])([H:8])[H:9])[H:7]"
O       -1.24078514      -0.66686717       1.35713325
C       -1.29046499      -0.58023290      -0.03942568
C       -0.43218973       0.54279950      -0.60993754
N        0.99963712       0.23284141      -0.61007899
C        2.00126978       0.18352561       0.68135460
O        1.52354935       0.11686946       1.76129391
H       -0.32257945      -0.57889652       1.64969340
H       -2.33293900      -0.38729087      -0.30387039
H       -1.00382775      -1.53079365      -0.51480793
H       -0.57612297       1.43947963      -0.00245801
H       -0.74241242       0.77566180      -1.63172601
H        1.30828328      -0.42766741      -1.31716872
H        2.10858194       0.88057111      -0.42000189
13
Frame=2 idx=003877 GeodesicLength=0.13458381123120255 rxn_smarts="[O:1]([C:2]([C:3]([N:4]([C:5](=[O:6])[H:13])[H:12])([H:10])[H:11])([H:8])[H:9])[H:7]>>[C-:5]#[O+:6].[O:1]([C:2]([C:3]([N:4]([H:12])[H:13])([H:10])[H:11])([H:8])[H:9])[H:7]"
O       -1.23828195      -0.67412780       1.35419021
C       -1.29436327      -0.58002786      -0.04178622
C       -0.43167882       0.54091150      -0.60966158
N        0.99833530       0.22410288      -0.61001245
C        2.00629729       0.17608783       0.69635291
O        1.53084288       0.15717438       1.77806468
H       -0.31694486      -0.59649774       1.63940118
H       -2.33705382      -0.38020241      -0.30014995
H       -1.01555114      -1.52978884      -0.52334117
H       -0.57371362       1.43705304      -0.00088607
H       -0.74241817       0.77661886      -1.63077528
H        1.30371324      -0.42605787      -1.32736419
H        2.11081694       0.87475402      -0.42403206
13
Frame=3 idx=003877 GeodesicLength=0.20173757822544458 rxn_smarts="[O:1]([C:2]([C:3]([N:4]([C:5](=[O:6])[H:13])[H:12])([H:10])[H:11])([H:8])[H:9])[H:7]>>[C-:5]#[O+:6].[O:1]([C:2]([C:3]([N:4]([H:12])[H:13])([H:10])[H:11])([H:8])[H:9])[H:7]"
O       -1.23584521      -0.68106959       1.35142604
C       -1.29813414      -0.57986187      -0.04396920
C       -0.43114971       0.53897269      -0.60950655
N        0.99707206       0.21540426      -0.61008202
C        2.01086908       0.16863394       0.71201134
O        1.53833363       0.19577532       1.79378441
H       -0.31163746      -0.61306159       1.62938102
H       -2.34099031      -0.37344121      -0.29637393
H       -1.02692629      -1.52887324      -0.53136610
H       -0.57138068       1.43474064       0.00036475
H       -0.74245005       0.77731247      -1.62999302
H        1.29931742      -0.42372401      -1.33800109
H        2.11292164       0.86919221      -0.42767566
13
Frame=4 idx=003877 GeodesicLength=0.2686254564699584 rxn_smarts="[O:1]([C:2]([C:3]([N:4]([C:5](=[O:6])[H:13])[H:12])([H:10])[H:11])([H:8])[H:9])[H:7]>>[C-:5]#[O+:6].[O:1]([C:2]([C:3]([N:4]([H:12])[H:13])([H:10])[H:11])([H:8])[H:9])[H:7]"
O       -1.23349281      -0.68757632       1.34874135
C       -1.30180604      -0.57966393      -0.04601248
C       -0.43060139       0.53691704      -0.60944589
N        0.99581623       0.20665217      -0.61016858
C        2.01512114       0.16165397       0.72830163
O        1.54621869       0.23235841       1.80859361
H       -0.30661829      -0.62881402       1.61949411
H       -2.34476042      -0.36688700      -0.29262281
H       -1.03805762      -1.52794665      -0.53886362
H       -0.56911642       1.43245574       0.00121419
H       -0.74249389       0.77761688      -1.62933470
H        1.29504891      -0.42078592      -1.34879667
H        2.11474191       0.86401965      -0.43110015
13
Frame=5 idx=003877 GeodesicLength=0.33538574226293816 rxn_smarts="[O:1]([C:2]([C:3]([N:4]([C:5](=[O:6])[H:13])[H:12])([H:10])[H:11])([H:8])[H:9])[H:7]>>[C-:5]#[O+:6].[O:1]([C:2]([C:3]([N:4]([H:12])[H:13])([H:10])[H:11])([H:8])[H:9])[H:7]"
O       -1.23105171      -0.69400268       1.34602099
C       -1.30536323      -0.57947775      -0.04799374
C       -0.43003928       0.53477592      -0.60941481
N        0.99454796       0.19780458      -0.61035023
C        2.01891538       0.15439738       0.74524760
O        1.55426632       0.26860914       1.82250802
H       -0.30171592      -0.64399873       1.60964560
H       -2.34836573      -0.36048189      -0.28883109
H       -1.04899294      -1.52693954      -0.54614867
H       -0.56682668       1.43006210       0.00197687
H       -0.74262714       0.77781891      -1.62864353
H        1.29076031      -0.41728338      -1.35984384
H        2.11649266       0.85871595      -0.43417318
13
Frame=6 idx=003877 GeodesicLength=0.40215901725513364 rxn_smarts="[O:1]([C:2]([C:3]([N:4]([C:5](=[O:6])[H:13])[H:12])([H:10])[H:11])([H:8])[H:9])[H:7]>>[C-:5]#[O+:6].[O:1]([C:2]([C:3]([N:4]([H:12])[H:13])([H:10])[H:11])([H:8])[H:9])[H:7]"
O       -1.22868408      -0.70030811       1.34339290
C       -1.30887966      -0.57931249      -0.04987789
C       -0.42941674       0.53257063      -0.60944026
N        0.99332366       0.18882761      -0.61063932
C        2.02235997       0.14732512       0.76282651
O        1.56256821       0.30410303       1.83572144
H       -0.29704175      -0.65885635       1.59990136
H       -2.35187239      -0.35417439      -0.28497246
H       -1.05985345      -1.52597587      -0.55319388
H       -0.56448927       1.42770731       0.00258951
H       -0.74271884       0.77789264      -1.62803164
H        1.28655062      -0.41334798      -1.37112213
H        2.11815372       0.85354884      -0.43715415
13
Frame=7 idx=003877 GeodesicLength=0.4689299389324667 rxn_smarts="[O:1]([C:2]([C:3]([N:4]([C:5](=[O:6])[H:13])[H:12])([H:10])[H:11])([H:8])[H:9])[H:7]>>[C-:5]#[O+:6].[O:1]([C:2]([C:3]([N:4]([H:12])[H:13])([H:10])[H:11])([H:8])[H:9])[H:7]"
O       -1.22634828      -0.70653081       1.34081559
C       -1.31235397      -0.57915332      -0.05168917
C       -0.42873651       0.53029151      -0.60950800
N        0.99212807       0.17968217      -0.61102212
C        2.02544618       0.14042007       0.78105764
O        1.57113653       0.33908868       1.84827592
H       -0.29254178      -0.67352092       1.59020452
H       -2.35527652      -0.34790848      -0.28105345
H       -1.07067111      -1.52501292      -0.56005540
H       -0.56209114       1.42534932       0.00308260
H       -0.74278366       0.77786376      -1.62746896
H        1.28237755      -0.40901612      -1.38257603
H        2.11971462       0.84844705      -0.44006315
13
Frame=8 idx=003877 GeodesicLength=0.5357754469942222 rxn_smarts="[O:1]([C:2]([C:3]([N:4]([C:5](=[O:6])[H:13])[H:12])([H:10])[H:11])([H:8])[H:9])[H:7]>>[C-:5]#[O+:6].[O:1]([C:2]([C:3]([N:4]([H:12])[H:13])([H:10])[H:11])([H:8])[H:9])[H:7]"
O       -1.22408635      -0.71272924       1.33832087
C       -1.31581380      -0.57901702      -0.05342398
C       -0.42797966       0.52795675      -0.60961322
N        0.99098626       0.17035070      -0.61152847
C        2.02817012       0.13368806       0.79994233
O        1.57996922       0.37374985       1.86022634
H       -0.28824276      -0.68813250       1.58056023
H       -2.35860793      -0.34166350      -0.27704465
H       -1.08149293      -1.52409060      -0.56677712
H       -0.55960725       1.42302418       0.00349923
H       -0.74278146       0.77778783      -1.62696255
H        1.27826143      -0.40433182      -1.39422812
H        2.12122513       0.84340732      -0.44297089
13
Frame=9 idx=003877 GeodesicLength=0.6022775214566904 rxn_smarts="[O:1]([C:2]([C:3]([N:4]([C:5](=[O:6])[H:13])[H:12])([H:10])[H:11])([H:8])[H:9])[H:7]>>[C-:5]#[O+:6].[O:1]([C:2]([C:3]([N:4]([H:12])[H:13])([H:10])[H:11])([H:8])[H:9])[H:7]"
O       -1.22174617      -0.71877526       1.33566384
C       -1.31922672      -0.57881074      -0.05514820
C       -0.42717772       0.52544626      -0.60970223
N        0.98981174       0.16076863      -0.61199596
C        2.03055416       0.12731535       0.81949865
O        1.58920412       0.40799402       1.87148185
H       -0.28399148      -0.70268040       1.57070579
H       -2.36181279      -0.33536941      -0.27303955
H       -1.09236099      -1.52296243      -0.57333675
H       -0.55702198       1.42048041       0.00376800
H       -0.74280518       0.77747002      -1.62635407
H        1.27405491      -0.39924220      -1.40577207
H        2.12251808       0.83836574      -0.44576928
13
Frame=10 idx=003877 GeodesicLength=0.6689578845430098 rxn_smarts="[O:1]([C:2]([C:3]([N:4]([C:5](=[O:6])[H:13])[H:12])([H:10])[H:11])([H:8])[H:9])[H:7]>>[C-:5]#[O+:6].[O:1]([C:2]([C:3]([N:4]([H:12])[H:13])([H:10])[H:11])([H:8])[H:9])[H:7]"
O       -1.21946694      -0.72492520       1.33309192
C       -1.32265293      -0.57863979      -0.05681325
C       -0.42627717       0.52290554      -0.60981385
N        0.98870782       0.15098410      -0.61262731
C        2.03252559       0.12110316       0.83975837
O        1.59868672       0.44235628       1.88216242
H       -0.27991360      -0.71744215       1.56084927
H       -2.36496894      -0.32902948      -0.26888749
H       -1.10332535      -1.52188374      -0.57988343
H       -0.55430586       1.41798558       0.00405820
H       -0.74272995       0.77720972      -1.62578805
H        1.26988306      -0.39393628      -1.41746290
H        2.12383753       0.83331227      -0.44864391
13
Frame=11 idx=003877 GeodesicLength=0.735525146777164 rxn_smarts="[O:1]([C:2]([C:3]([N:4]([C:5](=[O:6])[H:13])[H:12])([H:10])[H:11])([H:8])[H:9])[H:7]>>[C-:5]#[O+:6].[O:1]([C:2]([C:3]([N:4]([H:12])[H:13])([H:10])[H:11])([H:8])[H:9])[H:7]"
O       -1.21713223      -0.73106871       1.33043805
C       -1.32604483      -0.57843671      -0.05846351
C       -0.42531572       0.52025573      -0.60991575
N        0.98760239       0.14096195      -0.61331486
C        2.03405890       0.11508794       0.86074874
O        1.60853787       0.47675260       1.89217029
H       -0.27590670      -0.73234927       1.55083588
H       -2.36801602      -0.32261981      -0.26468433
H       -1.11434337      -1.52067511      -0.58636764
H       -0.55148033       1.41536032       0.00430604
H       -0.74264864       0.77688416      -1.62515903
H        1.26564074      -0.38832791      -1.42911185
H        2.12504793       0.82817483      -0.45148201
13
Frame=12 idx=003877 GeodesicLength=0.8022329975236917 rxn_smarts="[O:1]([C:2]([C:3]([N:4]([C:5](=[O:6])[H:13])[H:12])([H:10])[H:11])([H:8])[H:9])[H:7]>>[C-:5]#[O+:6].[O:1]([C:2]([C:3]([N:4]([H:12])[H:13])([H:10])[H:11])([H:8])[H:9])[H:7]"
O       -1.21487749      -0.73730188       1.32785398
C       -1.32946740      -0.57825760      -0.06005865
C       -0.42425020       0.51756155      -0.61002959
N        0.98656935       0.13071119      -0.61415421
C        2.03515175       0.10933184       0.88247518
O        1.61873941       0.51126709       1.90161468
H       -0.27208888      -0.74758678       1.54076197
H       -2.37102807      -0.31614110      -0.26033970
H       -1.12548964      -1.51949787      -0.59283611
H       -0.54851493       1.41277437       0.00456457
H       -0.74245399       0.77659543      -1.62455864
H        1.26143897      -0.38250448      -1.44085505
H        2.12627112       0.82304824      -0.45443842
13
Frame=13 idx=003877 GeodesicLength=0.8687369024188387 rxn_smarts="[O:1]([C:2]([C:3]([N:4]([C:5](=[O:6])[H:13])[H:12])([H:10])[H:11])([H:8])[H:9])[H:7]>>[C-:5]#[O+:6].[O:1]([C:2]([C:3]([N:4]([H:12])[H:13])([H:10])[H:11])([H:8])[H:9])[H:7]"
O       -1.21252321      -0.74349933       1.32515005
C       -1.33286236      -0.57800777      -0.06164944
C       -0.42311601       0.51471983      -0.61013217
N        0.98551854       0.12017683      -0.61500681
C        2.03580164       0.10399885       0.90496590
O        1.62938104       0.54570944       1.91044918
H       -0.26830409      -0.76312328       1.53042470
H       -2.37391889      -0.30951342      -0.25593668
H       -1.13676450      -1.51812660      -0.59924600
H       -0.54541902       1.41002130       0.00472364
H       -0.74224228       0.77616135      -1.62389347
H        1.25714603      -0.37640731      -1.45243636
H        2.12730311       0.81789011      -0.45741255
13
Frame=14 idx=003877 GeodesicLength=0.9352998928478672 rxn_smarts="[O:1]([C:2]([C:3]([N:4]([C:5](=[O:6])[H:13])[H:12])([H:10])[H:11])([H:8])[H:9])[H:7]>>[C-:5]#[O+:6].[O:1]([C:2]([C:3]([N:4]([H:12])[H:13])([H:10])[H:11])([H:8])[H:9])[H:7]"
O       -1.21015820      -0.74985659       1.32239565
C       -1.33628723      -0.57776196      -0.06322591
C       -0.42188497       0.51182247      -0.61020765
N        0.98451343       0.10944687      -0.61598757
C        2.03589159       0.09893061       0.92827890
O        1.64045052       0.58059012       1.91857427
H       -0.26463255      -0.77913184       1.51984845
H       -2.37676233      -0.30277702      -0.25136540
H       -1.14822350      -1.51667585      -0.60573583
H       -0.54216876       1.40721574       0.00496259
H       -0.74194268       0.77578821      -1.62316253
H        1.25281487      -0.37021627      -1.46390833
H        2.12838980       0.81262549      -0.46046664
13
Frame=15 idx=003877 GeodesicLength=1.001801150645673 rxn_smarts="[O:1]([C:2]([C:3]([N:4]([C:5](=[O:6])[H:13])[H:12])([H:10])[H:11])([H:8])[H:9])[H:7]>>[C-:5]#[O+:6].[O:1]([C:2]([C:3]([N:4]([H:12])[H:13])([H:10])[H:11])([H:8])[H:9])[H:7]"
O       -1.20771630      -0.75629123       1.31955337
C       -1.33969925      -0.57747697      -0.06479853
C       -0.42058511       0.50883942      -0.61026427
N        0.98351472       0.09849619      -0.61705058
C        2.03538997       0.09417950       0.95244119
O        1.65203208       0.61570970       1.92599602
H       -0.26103029      -0.79557776       1.50900212
H       -2.37950861      -0.29590771      -0.24668856
H       -1.15979884      -1.51507194      -0.61224510
H       -0.53881427       1.40430937       0.00519698
H       -0.74160982       0.77540861      -1.62236916
H        1.24841713      -0.36387799      -1.47520461
H        2.12940858       0.80726081      -0.46356887
13
Frame=16 idx=003877 GeodesicLength=1.0683337918450513 rxn_smarts="[O:1]([C:2]([C:3]([N:4]([C:5](=[O:6])[H:13])[H:12])([H:10])[H:11])([H:8])[H:9])[H:7]>>[C-:5]#[O+:6].[O:1]([C:2]([C:3]([N:4]([H:12])[H:13])([H:10])[H:11])([H:8])[H:9])[H:7]"
O       -1.20523700      -0.76286012       1.31666320
C       -1.34313258      -0.57717420      -0.06635542
C       -0.41919560       0.50579276      -0.61030367
N        0.98254807       0.08734264      -0.61822907
C        2.03424998       0.08980680       0.97748954
O        1.66416138       0.65114277       1.93272816
H       -0.25754155      -0.81257656       1.49787410
H       -2.38218911      -0.28890190      -0.24184830
H       -1.17155623      -1.51335971      -0.61881578
H       -0.53532986       1.40135895       0.00545834
H       -0.74119458       0.77505495      -1.62153639
H        1.24398995      -0.35745431      -1.48634734
H        2.13042714       0.80182794      -0.46677739
