11
Frame=0 idx=001376 GeodesicLength=0.0 rxn_smarts="[N:1](=[C:2](/[O:3][C:4]([C:5](=[O:6])[H:11])([H:9])[H:10])[H:8])\[H:7]>>[N:1]([C:2](=[O:3])[H:8])([O:6][C:5](=[C:4]([H:9])[H:10])[H:11])[H:7]"
N        1.47583955       0.55215956       0.60533016
C        1.33216470      -0.00972295      -0.59546009
O        0.73991156      -1.09494779      -0.71195041
C       -1.26142195      -0.93992155       0.23179352
C       -1.14024800       0.42416148       0.30712961
O       -0.32045132       0.94205138       1.13419787
H        1.81161275       1.50874088       0.52440710
H        1.65429175       0.53162336      -1.50173223
H       -0.82961087      -1.55905093       1.00306453
H       -1.89510725      -1.40525840      -0.51235741
H       -1.56698093       1.05016500      -0.48442267
11
Frame=1 idx=001376 GeodesicLength=0.04416113633274519 rxn_smarts="[N:1](=[C:2](/[O:3][C:4]([C:5](=[O:6])[H:11])([H:9])[H:10])[H:8])\[H:7]>>[N:1]([C:2](=[O:3])[H:8])([O:6][C:5](=[C:4]([H:9])[H:10])[H:11])[H:7]"
N        1.46233862       0.56737534       0.59328057
C        1.33587283      -0.00455318      -0.60302806
O        0.73477102      -1.08609468      -0.72505807
C       -1.25836948      -0.94663655       0.22921003
C       -1.14870516       0.42005592       0.31991407
O       -0.33414218       0.93205622       1.15665996
H        1.80689632       1.52051374       0.51460943
H        1.69813103       0.51731702      -1.50508824
H       -0.83743263      -1.56732728       1.00583069
H       -1.91227874      -1.40270263      -0.50295986
H       -1.54708163       1.04999609      -0.48337051
11
Frame=2 idx=001376 GeodesicLength=0.08772969461880033 rxn_smarts="[N:1](=[C:2](/[O:3][C:4]([C:5](=[O:6])[H:11])([H:9])[H:10])[H:8])\[H:7]>>[N:1]([C:2](=[O:3])[H:8])([O:6][C:5](=[C:4]([H:9])[H:10])[H:11])[H:7]"
N        1.44815506       0.58272532       0.58076670
C        1.33996797       0.00052738      -0.61073337
O        0.72938679      -1.07678326      -0.73908207
C       -1.25511280      -0.95318262       0.22637896
C       -1.15719217       0.41596217       0.33205721
O       -0.34783669       0.92214709       1.17826561
H        1.80271547       1.53191402       0.50491639
H        1.74206844       0.50253665      -1.50669665
H       -0.84495801      -1.57520488       1.00832678
H       -1.92923593      -1.40043831      -0.49269659
H       -1.52795813       1.04979643      -0.48150298
11
Frame=3 idx=001376 GeodesicLength=0.13071884770078857 rxn_smarts="[N:1](=[C:2](/[O:3][C:4]([C:5](=[O:6])[H:11])([H:9])[H:10])[H:8])\[H:7]>>[N:1]([C:2](=[O:3])[H:8])([O:6][C:5](=[C:4]([H:9])[H:10])[H:11])[H:7]"
N        1.43331805       0.59820252       0.56777576
C        1.34447424       0.00545728      -0.61850150
O        0.72373457      -1.06700198      -0.75401770
C       -1.25166501      -0.95955149       0.22332274
C       -1.16570579       0.41189707       0.34356080
O       -0.36152501       0.91238240       1.19899275
H        1.79924470       1.54283689       0.49541876
H        1.78575352       0.48739297      -1.50654852
H       -0.85215198      -1.58266063       1.01056949
H       -1.94586300      -1.39850322      -0.48160148
H       -1.50961429       1.04954819      -0.47897111
11
Frame=4 idx=001376 GeodesicLength=0.1730544399294544 rxn_smarts="[N:1](=[C:2](/[O:3][C:4]([C:5](=[O:6])[H:11])([H:9])[H:10])[H:8])\[H:7]>>[N:1]([C:2](=[O:3])[H:8])([O:6][C:5](=[C:4]([H:9])[H:10])[H:11])[H:7]"
N        1.41793444       0.61377082       0.55437923
C        1.34956121       0.01002043      -0.62610427
O        0.71793128      -1.05689095      -0.76963924
C       -1.24801536      -0.96572103       0.22002629
C       -1.17415774       0.40789231       0.35433968
O       -0.37516445       0.90282844       1.21878578
H        1.79673942       1.55312360       0.48625579
H        1.82810431       0.47230395      -1.50478685
H       -0.85908989      -1.58964669       1.01261335
H       -1.96197644      -1.39690648      -0.46981480
H       -1.49186678       1.04922561      -0.47605496
11
Frame=5 idx=001376 GeodesicLength=0.2147997338908139 rxn_smarts="[N:1](=[C:2](/[O:3][C:4]([C:5](=[O:6])[H:11])([H:9])[H:10])[H:8])\[H:7]>>[N:1]([C:2](=[O:3])[H:8])([O:6][C:5](=[C:4]([H:9])[H:10])[H:11])[H:7]"
N        1.40195539       0.62932850       0.54056399
C        1.35517563       0.01417471      -0.63350296
O        0.71182509      -1.04633981      -0.78614554
C       -1.24417504      -0.97168823       0.21660514
C       -1.18263836       0.40397697       0.36435800
O       -0.38884178       0.89366707       1.23752282
H        1.79547470       1.56247070       0.47771206
H        1.86907303       0.45747771      -1.50146565
H       -0.86556949      -1.59604572       1.01455979
H       -1.97746332      -1.39577623      -0.45725201
H       -1.47481585       1.04875435      -0.47295565
11
Frame=6 idx=001376 GeodesicLength=0.25598363392587103 rxn_smarts="[N:1](=[C:2](/[O:3][C:4]([C:5](=[O:6])[H:11])([H:9])[H:10])[H:8])\[H:7]>>[N:1]([C:2](=[O:3])[H:8])([O:6][C:5](=[C:4]([H:9])[H:10])[H:11])[H:7]"
N        1.38544637       0.64495366       0.52632934
C        1.36140242       0.01777100      -0.64049787
O        0.70548603      -1.03542474      -0.80334533
C       -1.24016099      -0.97745233       0.21305823
C       -1.19111773       0.40017006       0.37361185
O       -0.40254991       0.88493195       1.25523173
H        1.79562556       1.57079575       0.46990114
H        1.90811609       0.44311141      -1.49685027
H       -0.87165954      -1.60187109       1.01643718
H       -1.99220069      -1.39511471      -0.44407305
H       -1.45838762       1.04812905      -0.46980295
11
Frame=7 idx=001376 GeodesicLength=0.29636331804822824 rxn_smarts="[N:1](=[C:2](/[O:3][C:4]([C:5](=[O:6])[H:11])([H:9])[H:10])[H:8])\[H:7]>>[N:1]([C:2](=[O:3])[H:8])([O:6][C:5](=[C:4]([H:9])[H:10])[H:11])[H:7]"
N        1.36877905       0.66040368       0.51209029
C        1.36894092       0.01997172      -0.64624266
O        0.69954093      -1.02488500      -0.82023267
C       -1.23589393      -0.98295784       0.20931535
C       -1.19925100       0.39657265       0.38167403
O       -0.41621202       0.87680370       1.27168397
H        1.79774179       1.57761312       0.46328117
H        1.94175283       0.43100790      -1.49196953
H       -0.87784306      -1.60693102       1.01853214
H       -2.00578732      -1.39485215      -0.43075225
H       -1.44176819       1.04725325      -0.46737984
11
Frame=8 idx=001376 GeodesicLength=0.33635677149297233 rxn_smarts="[N:1](=[C:2](/[O:3][C:4]([C:5](=[O:6])[H:11])([H:9])[H:10])[H:8])\[H:7]>>[N:1]([C:2](=[O:3])[H:8])([O:6][C:5](=[C:4]([H:9])[H:10])[H:11])[H:7]"
N        1.35152228       0.67603728       0.49727230
C        1.37704047       0.02146884      -0.65134979
O        0.69327598      -1.01388989      -0.83781139
C       -1.23149346      -0.98827675       0.20560710
C       -1.20752356       0.39311473       0.38900198
O       -0.43005308       0.86929472       1.28706946
H        1.80164437       1.58298681       0.45786627
H        1.97345278       0.41962997      -1.48636754
H       -0.88352207      -1.61133896       1.02071155
H       -2.01844284      -1.39516778      -0.41692613
H       -1.42590087       1.04614103      -0.46507384
11
Frame=9 idx=001376 GeodesicLength=0.3757088955444374 rxn_smarts="[N:1](=[C:2](/[O:3][C:4]([C:5](=[O:6])[H:11])([H:9])[H:10])[H:8])\[H:7]>>[N:1]([C:2](=[O:3])[H:8])([O:6][C:5](=[C:4]([H:9])[H:10])[H:11])[H:7]"
N        1.33417600       0.69152937       0.48241413
C        1.38661615       0.02120165      -0.65471274
O        0.68762764      -1.00349059      -0.85464243
C       -1.22683849      -0.99335510       0.20183971
C       -1.21548812       0.38993140       0.39499190
O       -0.44400294       0.86267428       1.30105057
H        1.80807193       1.58619176       0.45439499
H        1.99867441       0.41148384      -1.48161511
H       -0.88940288      -1.61483715       1.02338819
H       -2.02972743      -1.39596257      -0.40318580
H       -1.40970628       1.04463311      -0.46392342
11
Frame=10 idx=001376 GeodesicLength=0.4146518128004502 rxn_smarts="[N:1](=[C:2](/[O:3][C:4]([C:5](=[O:6])[H:11])([H:9])[H:10])[H:8])\[H:7]>>[N:1]([C:2](=[O:3])[H:8])([O:6][C:5](=[C:4]([H:9])[H:10])[H:11])[H:7]"
N        1.31648407       0.70708926       0.46712346
C        1.39726232       0.01954963      -0.65662923
O        0.68230952      -0.99326642      -0.87116554
C       -1.22193476      -0.99823644       0.19819308
C       -1.22345349       0.38701634       0.39975113
O       -0.45828399       0.85717002       1.31354223
H        1.81734901       1.58675306       0.45345117
H        2.01878840       0.40609506      -1.47776748
H       -0.89509489      -1.61735430       1.02663494
H       -2.03968619      -1.39744929      -0.38928727
H       -1.39373999       1.04263309      -0.46384650
11
Frame=11 idx=001376 GeodesicLength=0.45337122137429975 rxn_smarts="[N:1](=[C:2](/[O:3][C:4]([C:5](=[O:6])[H:11])([H:9])[H:10])[H:8])\[H:7]>>[N:1]([C:2](=[O:3])[H:8])([O:6][C:5](=[C:4]([H:9])[H:10])[H:11])[H:7]"
N        1.29807192       0.72358907       0.45042381
C        1.40813286       0.01740703      -0.65791279
O        0.67672619      -0.98238890      -0.88817956
C       -1.21691048      -1.00298642       0.19472562
C       -1.23174244       0.38421670       0.40402294
O       -0.47277815       0.85236107       1.32506833
H        1.82853539       1.58530966       0.45444494
H        2.03785526       0.40095097      -1.47380323
H       -0.90024386      -1.61929674       1.03005637
H       -2.04861264      -1.39953686      -0.37513370
H       -1.37903406       1.04037441      -0.46371273
11
Frame=12 idx=001376 GeodesicLength=0.4919687397143865 rxn_smarts="[N:1](=[C:2](/[O:3][C:4]([C:5](=[O:6])[H:11])([H:9])[H:10])[H:8])\[H:7]>>[N:1]([C:2](=[O:3])[H:8])([O:6][C:5](=[C:4]([H:9])[H:10])[H:11])[H:7]"
N        1.27855285       0.74198669       0.43139528
C        1.41862689       0.01540295      -0.65906265
O        0.67038182      -0.97014080      -0.90631348
C       -1.21185319      -1.00765752       0.19143961
C       -1.24060383       0.38138702       0.40835951
O       -0.48734088       0.84793380       1.33595888
H        1.84121746       1.58214922       0.45701653
H        2.05871580       0.39415312      -1.46874547
H       -0.90450058      -1.62098995       1.03330127
H       -2.05675916      -1.40220501      -0.36058955
H       -1.36643719       1.03798049      -0.46275993
11
Frame=13 idx=001376 GeodesicLength=0.5303509864019463 rxn_smarts="[N:1](=[C:2](/[O:3][C:4]([C:5](=[O:6])[H:11])([H:9])[H:10])[H:8])\[H:7]>>[N:1]([C:2](=[O:3])[H:8])([O:6][C:5](=[C:4]([H:9])[H:10])[H:11])[H:7]"
N        1.25782634       0.76270081       0.40936835
C        1.42853792       0.01361078      -0.66023305
O        0.66293388      -0.95609242      -0.92610774
C       -1.20672964      -1.01220080       0.18833795
C       -1.24998985       0.37850425       0.41306753
O       -0.50163138       0.84367425       1.34640338
H        1.85431030       1.57749725       0.46104036
H        2.08272200       0.38455396      -1.46188139
H       -0.90755764      -1.62254763       1.03619235
H       -2.06417632      -1.40534743      -0.34559307
H       -1.35624561       1.03564697      -0.46059469
11
Frame=14 idx=001376 GeodesicLength=0.5686561793478437 rxn_smarts="[N:1](=[C:2](/[O:3][C:4]([C:5](=[O:6])[H:11])([H:9])[H:10])[H:8])\[H:7]>>[N:1]([C:2](=[O:3])[H:8])([O:6][C:5](=[C:4]([H:9])[H:10])[H:11])[H:7]"
N        1.23514375       0.78692232       0.38315700
C        1.43742759       0.01249377      -0.66170282
O        0.65405109      -0.93960600      -0.94812463
C       -1.20132331      -1.01665847       0.18564798
C       -1.26035796       0.37559834       0.41777267
O       -0.51603269       0.84054769       1.35554571
H        1.87009853       1.56862434       0.46922983
H        2.10950107       0.37242437      -1.45320594
H       -0.90838836      -1.62346743       1.03911545
H       -2.07062729      -1.40978804      -0.32938262
H       -1.34949243       1.03290911      -0.45805262
11
Frame=15 idx=001376 GeodesicLength=0.6066568299752614 rxn_smarts="[N:1](=[C:2](/[O:3][C:4]([C:5](=[O:6])[H:11])([H:9])[H:10])[H:8])\[H:7]>>[N:1]([C:2](=[O:3])[H:8])([O:6][C:5](=[C:4]([H:9])[H:10])[H:11])[H:7]"
N        1.21048956       0.81622379       0.35118739
C        1.44525405       0.01193326      -0.66319498
O        0.64354039      -0.92027610      -0.97251489
C       -1.19570784      -1.02097246       0.18311665
C       -1.27126731       0.37251562       0.42335136
O       -0.52936262       0.83756625       1.36411450
H        1.88592544       1.55667239       0.48018515
H        2.14096852       0.35536307      -1.44121455
H       -0.90715147      -1.62443496       1.04135233
H       -2.07626632      -1.41483771      -0.31252695
H       -1.34642239       1.03024684      -0.45385601
11
Frame=16 idx=001376 GeodesicLength=0.6439418487385405 rxn_smarts="[N:1](=[C:2](/[O:3][C:4]([C:5](=[O:6])[H:11])([H:9])[H:10])[H:8])\[H:7]>>[N:1]([C:2](=[O:3])[H:8])([O:6][C:5](=[C:4]([H:9])[H:10])[H:11])[H:7]"
N        1.18440200       0.85012563       0.31274922
C        1.45216068       0.01128858      -0.66436317
O        0.63148781      -0.89808939      -0.99954131
C       -1.18952010      -1.02486595       0.18067252
C       -1.28192100       0.36946003       0.42989038
O       -0.54046386       0.83461819       1.37202983
H        1.89833554       1.54164366       0.49407795
H        2.17624520       0.33304325      -1.42525693
H       -0.90353257      -1.62529011       1.04280968
H       -2.08080342      -1.41991639      -0.29510813
H       -1.34639029       1.02798250      -0.44796006
