12
Frame=0 idx=002799 GeodesicLength=0.0 rxn_smarts="[C:1]([C:2](=[O:3])[C@@:4]1([H:10])[C:5]([H:11])([H:12])[O:6]1)([H:7])([H:8])[H:9]>>[C:1]([C:2]1=[C:4]([H:10])[O:6][C:5]([H:11])([H:12])[O:3]1)([H:7])([H:8])[H:9]"
C       -1.85163400      -0.39373330      -0.19778600
C       -0.34618109      -0.30975998      -0.29550224
O        0.28200015      -1.11086539      -0.98307507
C        0.28179797       0.75728020       0.41747047
C        2.13425173       0.13136314       0.15654456
O        1.48815468       1.23245832      -0.11552629
H       -2.28476950       0.06329435      -1.09014506
H       -2.15712046      -1.43842673      -0.17013239
H       -2.24041743       0.12786958       0.67724903
H       -0.23417585       1.46595924       1.05121842
H        2.71139455      -0.33207106      -0.63564431
H        2.21669922      -0.19336836       1.18532885
12
Frame=1 idx=002799 GeodesicLength=0.0600173227557726 rxn_smarts="[C:1]([C:2](=[O:3])[C@@:4]1([H:10])[C:5]([H:11])([H:12])[O:6]1)([H:7])([H:8])[H:9]>>[C:1]([C:2]1=[C:4]([H:10])[O:6][C:5]([H:11])([H:12])[O:3]1)([H:7])([H:8])[H:9]"
C       -1.85635040      -0.38454272      -0.21731556
C       -0.34818724      -0.34162603      -0.23969964
O        0.29313538      -1.17671738      -0.87930698
C        0.28386118       0.74174788       0.44063461
C        2.12038413       0.13826648       0.12889255
O        1.45890607       1.23867813      -0.13788559
H       -2.23868335       0.09916757      -1.11854637
H       -2.19475912      -1.41948512      -0.21950331
H       -2.26916360       0.13125262       0.65030278
H       -0.21534207       1.43330136       1.10562089
H        2.69677429      -0.30744008      -0.67415499
H        2.26942471      -0.15260270       1.16096163
12
Frame=2 idx=002799 GeodesicLength=0.12020046033969664 rxn_smarts="[C:1]([C:2](=[O:3])[C@@:4]1([H:10])[C:5]([H:11])([H:12])[O:6]1)([H:7])([H:8])[H:9]>>[C:1]([C:2]1=[C:4]([H:10])[O:6][C:5]([H:11])([H:12])[O:3]1)([H:7])([H:8])[H:9]"
C       -1.85751028      -0.37673023      -0.23614209
C       -0.35144958      -0.36780431      -0.18529346
O        0.30247479      -1.23368586      -0.77605501
C        0.28585278       0.72930529       0.46379951
C        2.10335181       0.14191148       0.10321247
O        1.42981814       1.24365156      -0.15777392
H       -2.19136013       0.13155601      -1.14283151
H       -2.22163042      -1.40238978      -0.27039476
H       -2.29562782       0.13145426       0.62367626
H       -0.19569665       1.40644587       1.15572701
H        2.67525263      -0.28844990      -0.71156834
H        2.31652473      -0.11526438       1.13364385
12
Frame=3 idx=002799 GeodesicLength=0.18069676409689295 rxn_smarts="[C:1]([C:2](=[O:3])[C@@:4]1([H:10])[C:5]([H:11])([H:12])[O:6]1)([H:7])([H:8])[H:9]>>[C:1]([C:2]1=[C:4]([H:10])[O:6][C:5]([H:11])([H:12])[O:3]1)([H:7])([H:8])[H:9]"
C       -1.85580533      -0.37031795      -0.25407766
C       -0.35574708      -0.38833356      -0.13340352
O        0.31021585      -1.28177872      -0.67520126
C        0.28781564       0.72019355       0.48610437
C        2.08382177       0.14245194       0.07988243
O        1.40178423       1.24782308      -0.17537337
H       -2.14473256       0.16114036      -1.16278628
H       -2.23838441      -1.38765344      -0.32209806
H       -2.31999807       0.12795497       0.59812758
H       -0.17541472       1.38542126       1.20148165
H        2.64840781      -0.27501836      -0.74700885
H        2.35803687      -0.08188312       1.10435297
12
Frame=4 idx=002799 GeodesicLength=0.24132049821430201 rxn_smarts="[C:1]([C:2](=[O:3])[C@@:4]1([H:10])[C:5]([H:11])([H:12])[O:6]1)([H:7])([H:8])[H:9]>>[C:1]([C:2]1=[C:4]([H:10])[O:6][C:5]([H:11])([H:12])[O:3]1)([H:7])([H:8])[H:9]"
C       -1.85184277      -0.36510069      -0.27115806
C       -0.36093188      -0.40367703      -0.08418447
O        0.31639503      -1.32133980      -0.57725971
C        0.28981118       0.71397209       0.50718899
C        2.06234554       0.14033975       0.05887097
O        1.37521073       1.25124187      -0.19089310
H       -2.09958662       0.18810603      -1.17869906
H       -2.24628063      -1.37495432      -0.37381145
H       -2.34272158       0.12100793       0.57315678
H       -0.15422437       1.36885132       1.24355756
H        2.61736793      -0.26628477      -0.78008027
H        2.39445744      -0.05216238       1.07331182
12
Frame=5 idx=002799 GeodesicLength=0.3022197174701311 rxn_smarts="[C:1]([C:2](=[O:3])[C@@:4]1([H:10])[C:5]([H:11])([H:12])[O:6]1)([H:7])([H:8])[H:9]>>[C:1]([C:2]1=[C:4]([H:10])[O:6][C:5]([H:11])([H:12])[O:3]1)([H:7])([H:8])[H:9]"
C       -1.84613197      -0.36106288      -0.28725282
C       -0.36676057      -0.41444599      -0.03788973
O        0.32131036      -1.35318976      -0.48332470
C        0.29180476       0.71069423       0.52661338
C        2.03948770       0.13596320       0.04032382
O        1.35042257       1.25433627      -0.20493362
H       -2.05708008       0.21374112      -1.19046131
H       -2.24614104      -1.36451340      -0.42556053
H       -2.36403236       0.11000884       0.54963604
H       -0.13241618       1.35703031       1.28170614
H        2.58346364      -0.26205189      -0.81032672
H        2.42607316      -0.02651005       1.04147005
12
Frame=6 idx=002799 GeodesicLength=0.3633754597219358 rxn_smarts="[C:1]([C:2](=[O:3])[C@@:4]1([H:10])[C:5]([H:11])([H:12])[O:6]1)([H:7])([H:8])[H:9]>>[C:1]([C:2]1=[C:4]([H:10])[O:6][C:5]([H:11])([H:12])[O:3]1)([H:7])([H:8])[H:9]"
C       -1.83898520      -0.35796901      -0.30257533
C       -0.37318877      -0.42148253       0.00630065
O        0.32500834      -1.37847736      -0.39233305
C        0.29379816       0.70979447       0.54463576
C        2.01553137       0.12990126       0.02385942
O        1.32709398       1.25711259      -0.21788736
H       -2.01687049       0.23863942      -1.19849064
H       -2.23901006      -1.35568076      -0.47762342
H       -2.38443031       0.09515395       0.52688893
H       -0.10977064       1.34887906       1.31672793
H        2.54701656      -0.26149689      -0.83809087
H        2.45380707      -0.00437419       1.00858798
12
Frame=7 idx=002799 GeodesicLength=0.42495246822498706 rxn_smarts="[C:1]([C:2](=[O:3])[C@@:4]1([H:10])[C:5]([H:11])([H:12])[O:6]1)([H:7])([H:8])[H:9]>>[C:1]([C:2]1=[C:4]([H:10])[O:6][C:5]([H:11])([H:12])[O:3]1)([H:7])([H:8])[H:9]"
C       -1.83054182      -0.35558386      -0.31741263
C       -0.38024632      -0.42541079       0.04914274
O        0.32754766      -1.39815798      -0.30355941
C        0.29577482       0.71077448       0.56188948
C        1.99057572       0.12252281       0.00903476
O        1.30472989       1.25972257      -0.22975015
H       -1.97840700       0.26257133      -1.20390353
H       -2.22557113      -1.34811609      -0.52952383
H       -2.40426307       0.07753979       0.50382880
H       -0.08599529       1.34329863       1.35002773
H        2.50793067      -0.26385398      -0.86415423
H        2.47846587       0.01469308       0.97438028
12
Frame=8 idx=002799 GeodesicLength=0.48708350641735054 rxn_smarts="[C:1]([C:2](=[O:3])[C@@:4]1([H:10])[C:5]([H:11])([H:12])[O:6]1)([H:7])([H:8])[H:9]>>[C:1]([C:2]1=[C:4]([H:10])[O:6][C:5]([H:11])([H:12])[O:3]1)([H:7])([H:8])[H:9]"
C       -1.82089248      -0.35379362      -0.33183611
C       -0.38793303      -0.42648674       0.09089831
O        0.32896533      -1.41281120      -0.21635620
C        0.29775345       0.71350424       0.57841165
C        1.96470363       0.11402438      -0.00430573
O        1.28326202       1.26219696      -0.24079955
H       -1.94184309       0.28625919      -1.20658186
H       -2.20591652      -1.34147129      -0.58175986
H       -2.42366700       0.05662930       0.48042022
H       -0.06105406       1.34010753       1.38166824
H        2.46627456      -0.26897137      -0.88860206
H        2.50034718       0.03081262       0.93884295
12
Frame=9 idx=002799 GeodesicLength=0.5498588249996608 rxn_smarts="[C:1]([C:2](=[O:3])[C@@:4]1([H:10])[C:5]([H:11])([H:12])[O:6]1)([H:7])([H:8])[H:9]>>[C:1]([C:2]1=[C:4]([H:10])[O:6][C:5]([H:11])([H:12])[O:3]1)([H:7])([H:8])[H:9]"
C       -1.81003929      -0.35251412      -0.34596048
C       -0.39629384      -0.42498600       0.13199059
O        0.32926983      -1.42286294      -0.13034274
C        0.29972594       0.71777264       0.59449744
C        1.93788827       0.10463425      -0.01638665
O        1.26245549       1.26464070      -0.25101487
H       -1.90689939       0.30962647      -1.20696322
H       -2.18022061      -1.33547928      -0.63409985
H       -2.44268352       0.03276638       0.45606520
H       -0.03474707       1.33883124       1.41220121
H        2.42184904      -0.27641975      -0.91177511
H        2.51969515       0.04399040       0.90178846
12
Frame=10 idx=002799 GeodesicLength=0.6131385817227738 rxn_smarts="[C:1]([C:2](=[O:3])[C@@:4]1([H:10])[C:5]([H:11])([H:12])[O:6]1)([H:7])([H:8])[H:9]>>[C:1]([C:2]1=[C:4]([H:10])[O:6][C:5]([H:11])([H:12])[O:3]1)([H:7])([H:8])[H:9]"
C       -1.79826583      -0.35170589      -0.35959491
C       -0.40526485      -0.42082812       0.17181531
O        0.32849030      -1.42833587      -0.04638095
C        0.30171030       0.72366126       0.60957612
C        1.91038766       0.09433038      -0.02694067
O        1.24274507       1.26696307      -0.26076403
H       -1.87486641       0.33325600      -1.20443621
H       -2.14855747      -1.32981474      -0.68657411
H       -2.46112100       0.00500637       0.43139005
H       -0.00713207       1.33958915       1.44091790
H        2.37552885      -0.28626261      -0.93296060
H        2.53634546       0.05414101       0.86395208
12
Frame=11 idx=002799 GeodesicLength=0.6769687223788572 rxn_smarts="[C:1]([C:2](=[O:3])[C@@:4]1([H:10])[C:5]([H:11])([H:12])[O:6]1)([H:7])([H:8])[H:9]>>[C:1]([C:2]1=[C:4]([H:10])[O:6][C:5]([H:11])([H:12])[O:3]1)([H:7])([H:8])[H:9]"
C       -1.78555177      -0.35129146      -0.37285126
C       -0.41487711      -0.41421906       0.21059788
O        0.32661638      -1.42959093       0.03575754
C        0.30368446       0.73095750       0.62390467
C        1.88215708       0.08331698      -0.03612960
O        1.22395689       1.26927268      -0.26995519
H       -1.84556516       0.35687835      -1.19951117
H       -2.11114852      -1.32417591      -0.73868232
H       -2.47880568      -0.02622021       0.40583911
H        0.02190904       1.34187044       1.46826376
H        2.32714754      -0.29803476      -0.95243155
H        2.55047684       0.06123640       0.82519813
12
Frame=12 idx=002799 GeodesicLength=0.7413752682907725 rxn_smarts="[C:1]([C:2](=[O:3])[C@@:4]1([H:10])[C:5]([H:11])([H:12])[O:6]1)([H:7])([H:8])[H:9]>>[C:1]([C:2]1=[C:4]([H:10])[O:6][C:5]([H:11])([H:12])[O:3]1)([H:7])([H:8])[H:9]"
C       -1.77202143      -0.35119878      -0.38569785
C       -0.42512272      -0.40522414       0.24827131
O        0.32366286      -1.42689407       0.11606076
C        0.30569044       0.73962278       0.63738076
C        1.85330413       0.07162984      -0.04395408
O        1.20617912       1.27153457      -0.27878302
H       -1.81959241       0.38078655      -1.19200765
H       -2.06800422      -1.31811710      -0.79051679
H       -2.49558719      -0.06138773       0.37945256
H        0.05238380       1.34561889       1.49406117
H        2.27695853      -0.31165860      -0.97007330
H        2.56214908       0.06528780       0.78580612
12
Frame=13 idx=002799 GeodesicLength=0.8064162619114247 rxn_smarts="[C:1]([C:2](=[O:3])[C@@:4]1([H:10])[C:5]([H:11])([H:12])[O:6]1)([H:7])([H:8])[H:9]>>[C:1]([C:2]1=[C:4]([H:10])[O:6][C:5]([H:11])([H:12])[O:3]1)([H:7])([H:8])[H:9]"
C       -1.75776656      -0.35130096      -0.39808503
C       -0.43601780      -0.39384439       0.28472535
O        0.31955559      -1.42039124       0.19452796
C        0.30773826       0.74958543       0.64983875
C        1.82389172       0.05922842      -0.05036034
O        1.18952186       1.27355419      -0.28749662
H       -1.79762777       0.40533567      -1.18155203
H       -2.01891169      -1.31096896      -0.84221985
H       -2.51123388      -0.10118972       0.35229809
H        0.08422410       1.35074035       1.51800439
H        2.22522767      -0.32718994      -0.98564693
H        2.57139849       0.06644115       0.74596626
12
Frame=14 idx=002799 GeodesicLength=0.8718814980194391 rxn_smarts="[C:1]([C:2](=[O:3])[C@@:4]1([H:10])[C:5]([H:11])([H:12])[O:6]1)([H:7])([H:8])[H:9]>>[C:1]([C:2]1=[C:4]([H:10])[O:6][C:5]([H:11])([H:12])[O:3]1)([H:7])([H:8])[H:9]"
C       -1.74297247      -0.35156050      -0.40992166
C       -0.44744222      -0.38022729       0.31964317
O        0.31440087      -1.41034880       0.27046730
C        0.30986776       0.76074637       0.66109834
C        1.79415338       0.04627877      -0.05529030
O        1.17416580       1.27540476      -0.29617069
H       -1.78034721       0.43024281      -1.16823159
H       -1.96450749      -1.30225108      -0.89318109
H       -2.52522335      -0.14558595       0.32448491
H        0.11720851       1.35713031       1.53978620
H        2.17258541      -0.34420120      -0.99899034
H        2.57811099       0.06437180       0.70630572
12
Frame=15 idx=002799 GeodesicLength=0.9377540047058848 rxn_smarts="[C:1]([C:2](=[O:3])[C@@:4]1([H:10])[C:5]([H:11])([H:12])[O:6]1)([H:7])([H:8])[H:9]>>[C:1]([C:2]1=[C:4]([H:10])[O:6][C:5]([H:11])([H:12])[O:3]1)([H:7])([H:8])[H:9]"
C       -1.72780512      -0.35186418      -0.42116931
C       -0.45935450      -0.36448833       0.35287147
O        0.30820011      -1.39705300       0.34366275
C        0.31210627       0.77297866       0.67101672
C        1.76423605       0.03279655      -0.05869563
O        1.16019688       1.27693793      -0.30501073
H       -1.76843064       0.45550916      -1.15186333
H       -1.90505619      -1.29124586      -0.94327500
H       -2.53711552      -0.19485680       0.29605339
H        0.15116925       1.36466207       1.55915266
H        2.11947525      -0.36260844      -1.00993653
H        2.58237815       0.05923226       0.66719355
12
Frame=16 idx=002799 GeodesicLength=1.004023972943928 rxn_smarts="[C:1]([C:2](=[O:3])[C@@:4]1([H:10])[C:5]([H:11])([H:12])[O:6]1)([H:7])([H:8])[H:9]>>[C:1]([C:2]1=[C:4]([H:10])[O:6][C:5]([H:11])([H:12])[O:3]1)([H:7])([H:8])[H:9]"
C       -1.71236458      -0.35212839      -0.43180006
C       -0.47168117      -0.34681488       0.38432049
O        0.30102014      -1.38082888       0.41388062
C        0.31446900       0.78609156       0.67957724
C        1.73425504       0.01889137      -0.06061508
O        1.14761682       1.27811072      -0.31405456
H       -1.76215133       0.48069279      -1.13260832
H       -1.84116256      -1.27733167      -0.99203974
H       -2.54633059      -0.24873614       0.26691107
H        0.18583476       1.37310260       1.57601429
H        2.06623955      -0.38208523      -1.01851963
H        2.58425492       0.05103617       0.62893369
