13
Frame=0 idx=008541 GeodesicLength=0.0 rxn_smarts="[O:1]([C:2]1([C:6](=[O:7])[H:13])[C:3]([H:9])([H:10])[O:4][C:5]1([H:11])[H:12])[H:8]>>[O:1]([C:2]1=[C:6]([H:13])[O:7][C:5]([H:11])([H:12])[O:4][C:3]1([H:9])[H:10])[H:8]"
O        1.25888248      -0.78939060      -1.46635911
C        0.53249626      -0.26954568      -0.41498107
C       -0.90770807      -0.58158164      -0.63048470
O       -1.53049369      -0.04566325       0.54251685
C       -1.14575427       1.19092532       0.61403469
C        1.21284892      -0.17961698       0.84692152
O        0.91375855       0.43015060       1.86918584
H        2.19741474      -0.74924960      -1.26280891
H       -1.13435223      -1.65043191      -0.68758299
H       -1.32395510      -0.08702664      -1.52264041
H       -1.04694014       1.77476969      -0.29515526
H       -1.22404283       1.65937727       1.58379419
H        2.19784539      -0.70271662       0.82355935
13
Frame=1 idx=008541 GeodesicLength=0.07491573925145155 rxn_smarts="[O:1]([C:2]1([C:6](=[O:7])[H:13])[C:3]([H:9])([H:10])[O:4][C:5]1([H:11])[H:12])[H:8]>>[O:1]([C:2]1=[C:6]([H:13])[O:7][C:5]([H:11])([H:12])[O:4][C:3]1([H:9])[H:10])[H:8]"
O        1.26045509      -0.73915845      -1.47821129
C        0.52496916      -0.26351790      -0.41314864
C       -0.91250584      -0.59427162      -0.62645873
O       -1.53578279      -0.04584140       0.53972711
C       -1.11185878       1.18513314       0.61129691
C        1.20443857      -0.19762332       0.84857789
O        0.93811595       0.48112862       1.83942637
H        2.19730421      -0.69651606      -1.26634931
H       -1.12646741      -1.66598926      -0.67151600
H       -1.33231175      -0.11396453      -1.52435615
H       -1.03839381       1.77582196      -0.29663199
H       -1.21925736       1.65879085       1.57638760
H        2.15129475      -0.78399202       0.86125622
13
Frame=2 idx=008541 GeodesicLength=0.15006972031357013 rxn_smarts="[O:1]([C:2]1([C:6](=[O:7])[H:13])[C:3]([H:9])([H:10])[O:4][C:5]1([H:11])[H:12])[H:8]>>[O:1]([C:2]1=[C:6]([H:13])[O:7][C:5]([H:11])([H:12])[O:4][C:3]1([H:9])[H:10])[H:8]"
O        1.26140826      -0.69277435      -1.48766452
C        0.51738914      -0.25850411      -0.41175333
C       -0.91741036      -0.60633581      -0.62326007
O       -1.54142881      -0.04604834       0.53609123
C       -1.07912862       1.17838935       0.60926515
C        1.19576010      -0.21332648       0.84943483
O        0.96231236       0.52605891       1.80838744
H        2.19649844      -0.64898542      -1.26727589
H       -1.11982072      -1.68040954      -0.65705959
H       -1.33945507      -0.13928754      -1.52672096
H       -1.02822023       1.77713078      -0.29574843
H       -1.21261637       1.65629648       1.56972656
H        2.10471188      -0.85220395       0.89657760
13
Frame=3 idx=008541 GeodesicLength=0.22542455447942383 rxn_smarts="[O:1]([C:2]1([C:6](=[O:7])[H:13])[C:3]([H:9])([H:10])[O:4][C:5]1([H:11])[H:12])[H:8]>>[O:1]([C:2]1=[C:6]([H:13])[O:7][C:5]([H:11])([H:12])[O:4][C:3]1([H:9])[H:10])[H:8]"
O        1.26171665      -0.64947997      -1.49536326
C        0.50981001      -0.25440079      -0.41070361
C       -0.92238472      -0.61798779      -0.62058820
O       -1.54735529      -0.04608618       0.53174333
C       -1.04741004       1.17093712       0.60762897
C        1.18712254      -0.22703747       0.84958534
O        0.98591333       0.56565697       1.77669091
H        2.19505706      -0.60448326      -1.26686692
H       -1.11416980      -1.69401302      -0.64348455
H       -1.34563395      -0.16364591      -1.52958090
H       -1.01652521       1.77861829      -0.29319138
H       -1.20434771       1.65249342       1.56350618
H        2.05820713      -0.91057141       0.93062409
13
Frame=4 idx=008541 GeodesicLength=0.3009454372018547 rxn_smarts="[O:1]([C:2]1([C:6](=[O:7])[H:13])[C:3]([H:9])([H:10])[O:4][C:5]1([H:11])[H:12])[H:8]>>[O:1]([C:2]1=[C:6]([H:13])[O:7][C:5]([H:11])([H:12])[O:4][C:3]1([H:9])[H:10])[H:8]"
O        1.26138016      -0.60861993      -1.50181643
C        0.50229394      -0.25108832      -0.40997111
C       -0.92737690      -0.62935985      -0.61825497
O       -1.55346561      -0.04584551       0.52678381
C       -1.01657250       1.16293592       0.60619979
C        1.17874384      -0.23913060       0.84909166
O        1.00876122       0.60060647       1.74471493
H        2.19301911      -0.56170635      -1.26585581
H       -1.10928835      -1.70700812      -0.63033778
H       -1.35102922      -0.18746002      -1.53282517
H       -1.00348110       1.78024253      -0.28942148
H       -1.19466187       1.64775858       1.55756294
H        2.01167728      -0.96132479       0.96412961
13
Frame=5 idx=008541 GeodesicLength=0.3766925702147923 rxn_smarts="[O:1]([C:2]1([C:6](=[O:7])[H:13])[C:3]([H:9])([H:10])[O:4][C:5]1([H:11])[H:12])[H:8]>>[O:1]([C:2]1=[C:6]([H:13])[O:7][C:5]([H:11])([H:12])[O:4][C:3]1([H:9])[H:10])[H:8]"
O        1.26043367      -0.56954598      -1.50743375
C        0.49493544      -0.24830111      -0.40961029
C       -0.93227656      -0.64051213      -0.61612125
O       -1.55959831      -0.04532734       0.52131766
C       -0.98650557       1.15445744       0.60489052
C        1.17084290      -0.24975189       0.84787130
O        1.03088032       0.63160634       1.71260362
H        2.19043975      -0.52007478      -1.26464085
H       -1.10486685      -1.71950328      -0.61731022
H       -1.35575311      -0.21103128      -1.53629917
H       -0.98928339       1.78193050      -0.28468651
H       -1.18378169       1.64224392       1.55182118
H        1.96453340      -1.00619042       0.99759777
13
Frame=6 idx=008541 GeodesicLength=0.4526072393291478 rxn_smarts="[O:1]([C:2]1([C:6](=[O:7])[H:13])[C:3]([H:9])([H:10])[O:4][C:5]1([H:11])[H:12])[H:8]>>[O:1]([C:2]1=[C:6]([H:13])[O:7][C:5]([H:11])([H:12])[O:4][C:3]1([H:9])[H:10])[H:8]"
O        1.25884895      -0.53193703      -1.51248788
C        0.48776426      -0.24605688      -0.40958595
C       -0.93706744      -0.65151810      -0.61412789
O       -1.56570049      -0.04446831       0.51537206
C       -0.95708461       1.14558782       0.60361915
C        1.16349455      -0.25933713       0.84602438
O        1.05224187       0.65902687       1.68060059
H        2.18728932      -0.47897642      -1.26354192
H       -1.10083983      -1.73159811      -0.60425890
H       -1.35988399      -0.23454159      -1.53998464
H       -0.97400974       1.78367042      -0.27922194
H       -1.17182107       1.63613296       1.54624032
H        1.91676823      -1.04598450       1.03135262
13
Frame=7 idx=008541 GeodesicLength=0.52873815138935 rxn_smarts="[O:1]([C:2]1([C:6](=[O:7])[H:13])[C:3]([H:9])([H:10])[O:4][C:5]1([H:11])[H:12])[H:8]>>[O:1]([C:2]1=[C:6]([H:13])[O:7][C:5]([H:11])([H:12])[O:4][C:3]1([H:9])[H:10])[H:8]"
O        1.25661399      -0.49542408      -1.51719467
C        0.48082661      -0.24426460      -0.40990951
C       -0.94168772      -0.66240754      -0.61221463
O       -1.57166728      -0.04327510       0.50898688
C       -0.92819407       1.13634546       0.60234109
C        1.15677725      -0.26812988       0.84354097
O        1.07289984       0.68325891       1.64877069
H        2.18354045      -0.43812027      -1.26273690
H       -1.09706714      -1.74332881      -0.59105842
H       -1.36345244      -0.25812231      -1.54380670
H       -0.95774021       1.78540752      -0.27316127
H       -1.15888583       1.62945947       1.54079280
H        1.86803657      -1.08139878       1.06564967
13
Frame=8 idx=008541 GeodesicLength=0.6050404189202405 rxn_smarts="[O:1]([C:2]1([C:6](=[O:7])[H:13])[C:3]([H:9])([H:10])[O:4][C:5]1([H:11])[H:12])[H:8]>>[O:1]([C:2]1=[C:6]([H:13])[O:7][C:5]([H:11])([H:12])[O:4][C:3]1([H:9])[H:10])[H:8]"
O        1.25374811      -0.45973676      -1.52174539
C        0.47417501      -0.24288285      -0.41059546
C       -0.94611245      -0.67322367      -0.61036829
O       -1.57745377      -0.04175304       0.50219020
C       -0.89975942       1.12677143       0.60105393
C        1.15078587      -0.27636874       0.84043477
O        1.09296036       0.70464296       1.61719274
H        2.17922706      -0.39734421      -1.26237315
H       -1.09346770      -1.75476528      -0.57767985
H       -1.36651622      -0.28187805      -1.54774581
H       -0.94057729       1.78713789      -0.26657542
H       -1.14508582       1.62228573       1.53551899
H        1.81807627      -1.11288539       1.10069274
13
Frame=9 idx=008541 GeodesicLength=0.6816885727679294 rxn_smarts="[O:1]([C:2]1([C:6](=[O:7])[H:13])[C:3]([H:9])([H:10])[O:4][C:5]1([H:11])[H:12])[H:8]>>[O:1]([C:2]1=[C:6]([H:13])[O:7][C:5]([H:11])([H:12])[O:4][C:3]1([H:9])[H:10])[H:8]"
O        1.25023803      -0.42456463      -1.52625525
C        0.46785927      -0.24177182      -0.41167442
C       -0.95024711      -0.68396676      -0.60853241
O       -1.58291483      -0.03997865       0.49503180
C       -0.87166245       1.11682193       0.59974528
C        1.14558021      -0.28417014       0.83662237
O        1.11252509       0.72347234       1.58578054
H        2.17433047      -0.35659061      -1.26251729
H       -1.08986962      -1.76589745      -0.56402914
H       -1.36904283      -0.30587422      -1.55168748
H       -0.92257207       1.78877377      -0.25949863
H       -1.13044904       1.61450462       1.53040752
H        1.76622488      -1.14075838       1.13660711
13
Frame=10 idx=008541 GeodesicLength=0.7585760847500228 rxn_smarts="[O:1]([C:2]1([C:6](=[O:7])[H:13])[C:3]([H:9])([H:10])[O:4][C:5]1([H:11])[H:12])[H:8]>>[O:1]([C:2]1=[C:6]([H:13])[O:7][C:5]([H:11])([H:12])[O:4][C:3]1([H:9])[H:10])[H:8]"
O        1.24607098      -0.38975521      -1.53083790
C        0.46190579      -0.24099158      -0.41313469
C       -0.95410484      -0.69467024      -0.60675429
O       -1.58805159      -0.03795509       0.48750227
C       -0.84385165       1.10651453       0.59844134
C        1.14120700      -0.29180902       0.83218291
O        1.13169906       0.73994748       1.55460947
H        2.16884618      -0.31589793      -1.26324457
H       -1.08628315      -1.77677556      -0.55020991
H       -1.37108121      -0.33012366      -1.55568633
H       -0.90379358       1.79033098      -0.25193859
H       -1.11504249       1.60613470       1.52555350
H        1.71247951      -1.16494940       1.17351679
13
Frame=11 idx=008541 GeodesicLength=0.8358113432197043 rxn_smarts="[O:1]([C:2]1([C:6](=[O:7])[H:13])[C:3]([H:9])([H:10])[O:4][C:5]1([H:11])[H:12])[H:8]>>[O:1]([C:2]1=[C:6]([H:13])[O:7][C:5]([H:11])([H:12])[O:4][C:3]1([H:9])[H:10])[H:8]"
O        1.24122746      -0.35511286      -1.53554477
C        0.45634295      -0.24051895      -0.41497658
C       -0.95764184      -0.70533924      -0.60502711
O       -1.59279186      -0.03573172       0.47961918
C       -0.81623563       1.09580039       0.59715694
C        1.13767502      -0.29946229       0.82710766
O        1.15057126       0.75423500       1.52361631
H        2.16275447      -0.27530732      -1.26458345
H       -1.08264572      -1.78739295      -0.53623299
H       -1.37259809      -0.35463699      -1.55969949
H       -0.88425201       1.79174411      -0.24387946
H       -1.09887671       1.59707344       1.52099686
H        1.65647071      -1.18535060       1.21144691
13
Frame=12 idx=008541 GeodesicLength=0.9134126619426134 rxn_smarts="[O:1]([C:2]1([C:6](=[O:7])[H:13])[C:3]([H:9])([H:10])[O:4][C:5]1([H:11])[H:12])[H:8]>>[O:1]([C:2]1=[C:6]([H:13])[O:7][C:5]([H:11])([H:12])[O:4][C:3]1([H:9])[H:10])[H:8]"
O        1.23569100      -0.32048827      -1.54040624
C        0.45119245      -0.24037529      -0.41718911
C       -0.96085234      -0.71599031      -0.60338617
O       -1.59711782      -0.03334170       0.47137745
C       -0.78875978       1.08465254       0.59592944
C        1.13499099      -0.30733438       0.82144788
O        1.16925286       0.76647761       1.49277878
H        2.15606632      -0.23496176      -1.26653192
H       -1.07894560      -1.79777832      -0.52218202
H       -1.37359762      -0.37940302      -1.56375153
H       -0.86398815       1.79299684      -0.23527797
H       -1.08197943       1.58725137       1.51682700
H        1.59804714      -1.20170530       1.25036440
13
Frame=13 idx=008541 GeodesicLength=0.9916122237813635 rxn_smarts="[O:1]([C:2]1([C:6](=[O:7])[H:13])[C:3]([H:9])([H:10])[O:4][C:5]1([H:11])[H:12])[H:8]>>[O:1]([C:2]1=[C:6]([H:13])[O:7][C:5]([H:11])([H:12])[O:4][C:3]1([H:9])[H:10])[H:8]"
O        1.22945955      -0.28573937      -1.54536886
C        0.44647679      -0.24050056      -0.41975775
C       -0.96370628      -0.72661370      -0.60181819
O       -1.60097305      -0.03086333       0.46278879
C       -0.76134806       1.07299473       0.59477974
C        1.13312335      -0.31555874       0.81520248
O        1.18784314       0.77677989       1.46197225
H        2.14882280      -0.19499833      -1.26901151
H       -1.07514650      -1.80791033      -0.50805921
H       -1.37403984      -0.40440567      -1.56777839
H       -0.84300130       1.79400554      -0.22607428
H       -1.06433712       1.57649537       1.51307932
H        1.53682651      -1.21368550       1.29004559
13
Frame=14 idx=008541 GeodesicLength=1.070362668605638 rxn_smarts="[O:1]([C:2]1([C:6](=[O:7])[H:13])[C:3]([H:9])([H:10])[O:4][C:5]1([H:11])[H:12])[H:8]>>[O:1]([C:2]1=[C:6]([H:13])[O:7][C:5]([H:11])([H:12])[O:4][C:3]1([H:9])[H:10])[H:8]"
O        1.22251313      -0.25080494      -1.55037760
C        0.44217862      -0.24097678      -0.42263068
C       -0.96624667      -0.73721135      -0.60040443
O       -1.60441956      -0.02828274       0.45381073
C       -0.73401163       1.06081644       0.59376821
C        1.13197127      -0.32436475       0.80853415
O        1.20636997       0.78521623       1.43126152
H        2.14104199      -0.15579411      -1.27193824
H       -1.07133181      -1.81781128      -0.49404435
H       -1.37392758      -0.42956786      -1.57188517
H       -0.82134060       1.79478896      -0.21619709
H       -1.04603364       1.56476605       1.50988503
H        1.47323652      -1.22077387       1.33021792
13
Frame=15 idx=008541 GeodesicLength=1.1498230825391893 rxn_smarts="[O:1]([C:2]1([C:6](=[O:7])[H:13])[C:3]([H:9])([H:10])[O:4][C:5]1([H:11])[H:12])[H:8]>>[O:1]([C:2]1=[C:6]([H:13])[O:7][C:5]([H:11])([H:12])[O:4][C:3]1([H:9])[H:10])[H:8]"
O        1.21486237      -0.21565129      -1.55527703
C        0.43827091      -0.24180785      -0.42574164
C       -0.96850511      -0.74775400      -0.59915885
O       -1.60750981      -0.02558646       0.44440057
C       -0.70675632       1.04807845       0.59292036
C        1.13136634      -0.33390557       0.80156284
O        1.22480580       0.79181723       1.40064229
H        2.13277918      -0.11763936      -1.27514547
H       -1.06758075      -1.82744220      -0.48018231
H       -1.37321674      -0.45483258      -1.57608026
H       -0.79900746       1.79530468      -0.20558613
H       -1.02715073       1.55196157       1.50728402
H        1.40764232      -1.22254261       1.37036158
13
Frame=16 idx=008541 GeodesicLength=1.2301059465333544 rxn_smarts="[O:1]([C:2]1([C:6](=[O:7])[H:13])[C:3]([H:9])([H:10])[O:4][C:5]1([H:11])[H:12])[H:8]>>[O:1]([C:2]1=[C:6]([H:13])[O:7][C:5]([H:11])([H:12])[O:4][C:3]1([H:9])[H:10])[H:8]"
O        1.20653347      -0.18028960      -1.55986521
C        0.43470349      -0.24299178      -0.42900555
C       -0.97054483      -0.75820277      -0.59810241
O       -1.61034844      -0.02271710       0.43448510
C       -0.67964079       1.03477917       0.59225531
C        1.13109665      -0.34429243       0.79445561
O        1.24306842       0.79661749       1.37018769
H        2.12411316      -0.08089966      -1.27841938
H       -1.06401536      -1.83676139      -0.46651919
H       -1.37188222      -0.48013861      -1.58039988
H       -0.77603731       1.79554595      -0.19419539
H       -1.00783518       1.53803735       1.50529995
H        1.34078895      -1.21868661       1.40982336
