13
Frame=0 idx=009482 GeodesicLength=0.0 rxn_smarts="[O:1]([C@@:2]1([H:9])[C:3]([H:10])([H:11])[C@:4]1([O:5][C:6](=[O:7])[H:13])[H:12])[H:8]>>[O:1]([C@@:2]1([H:9])[C:3]([H:10])([H:11])[C@:4]1([O+:5]=[C-:6][O:7][H:13])[H:12])[H:8]"
O       -0.92974589       1.32055138       0.65768128
C       -0.94973266      -0.06111455       0.56108468
C       -1.38549432      -0.63552538      -0.74682787
C        0.04012233      -0.75714908      -0.32449953
O        0.96156043       0.02180497      -1.08754801
C        1.93201748       0.61475185      -0.45302093
O        2.01911555       0.51616625       0.83107084
H       -0.17297101       1.56529390       1.19824855
H       -1.22652024      -0.58990562       1.46945725
H       -2.00305333      -1.52279418      -0.76390164
H       -1.57724318       0.08938122      -1.52729268
H        0.45189389      -1.70935500      -0.01764884
H        2.84005093       1.14789427       0.20319696
13
Frame=1 idx=009482 GeodesicLength=0.025969754689455313 rxn_smarts="[O:1]([C@@:2]1([H:9])[C:3]([H:10])([H:11])[C@:4]1([O:5][C:6](=[O:7])[H:13])[H:12])[H:8]>>[O:1]([C@@:2]1([H:9])[C:3]([H:10])([H:11])[C@:4]1([O+:5]=[C-:6][O:7][H:13])[H:12])[H:8]"
O       -0.93049057       1.32025314       0.65816936
C       -0.95069641      -0.06144006       0.56119548
C       -1.38635048      -0.63567571      -0.74691056
C        0.03927681      -0.75709498      -0.32444751
O        0.96011937       0.02252446      -1.08658466
C        1.93497912       0.60959377      -0.45251849
O        2.02098556       0.51347761       0.82975639
H       -0.17216327       1.56486838       1.19661229
H       -1.22787941      -0.59029494       1.46941359
H       -2.00379084      -1.52301418      -0.76447691
H       -1.57825774       0.08948288      -1.52710967
H        0.45074066      -1.70944372      -0.01749430
H        2.84352720       1.15676334       0.20439499
13
Frame=2 idx=009482 GeodesicLength=0.05195193319821282 rxn_smarts="[O:1]([C@@:2]1([H:9])[C:3]([H:10])([H:11])[C@:4]1([O:5][C:6](=[O:7])[H:13])[H:12])[H:8]>>[O:1]([C@@:2]1([H:9])[C:3]([H:10])([H:11])[C@:4]1([O+:5]=[C-:6][O:7][H:13])[H:12])[H:8]"
O       -0.93119217       1.31995613       0.65866008
C       -0.95165085      -0.06176364       0.56130599
C       -1.38719832      -0.63581291      -0.74699796
C        0.03843367      -0.75705829      -0.32438912
O        0.95870598       0.02320601      -1.08560587
C        1.93793558       0.60439261      -0.45202221
O        2.02287636       0.51075646       0.82843646
H       -0.17132532       1.56442440       1.19499300
H       -1.22924379      -0.59067786       1.46936765
H       -2.00453860      -1.52320768      -0.76506216
H       -1.57923974       0.08960290      -1.52693247
H        0.44957157      -1.70955549      -0.01732649
H        2.84686563       1.16573735       0.20557311
13
Frame=3 idx=009482 GeodesicLength=0.07795906927638105 rxn_smarts="[O:1]([C@@:2]1([H:9])[C:3]([H:10])([H:11])[C@:4]1([O:5][C:6](=[O:7])[H:13])[H:12])[H:8]>>[O:1]([C@@:2]1([H:9])[C:3]([H:10])([H:11])[C@:4]1([O+:5]=[C-:6][O:7][H:13])[H:12])[H:8]"
O       -0.93211779       1.31964957       0.65916949
C       -0.95267456      -0.06209948       0.56142504
C       -1.38803434      -0.63600486      -0.74708733
C        0.03761338      -0.75691393      -0.32431700
O        0.95723635       0.02410408      -1.08459720
C        1.94070793       0.59955760      -0.45150592
O        2.02462300       0.50840287       0.82713677
H       -0.17076839       1.56405111       1.19342660
H       -1.23061787      -0.59111144       1.46932592
H       -2.00517228      -1.52352722      -0.76566076
H       -1.58028194       0.08965102      -1.52675619
H        0.44854010      -1.70951044      -0.01714179
H        2.85094642       1.17375113       0.20658238
13
Frame=4 idx=009482 GeodesicLength=0.104015216677874 rxn_smarts="[O:1]([C@@:2]1([H:9])[C:3]([H:10])([H:11])[C@:4]1([O:5][C:6](=[O:7])[H:13])[H:12])[H:8]>>[O:1]([C@@:2]1([H:9])[C:3]([H:10])([H:11])[C@:4]1([O+:5]=[C-:6][O:7][H:13])[H:12])[H:8]"
O       -0.93430505       1.31927544       0.65976777
C       -0.95407328      -0.06251067       0.56158876
C       -1.38883699      -0.63650693      -0.74715931
C        0.03688932      -0.75617110      -0.32419614
O        0.95538181       0.02621703      -1.08348778
C        1.94264506       0.59659542      -0.45087161
O        2.02559359       0.50793116       0.82595282
H       -0.17167823       1.56407893       1.19201046
H       -1.23203820      -0.59183096       1.46930602
H       -2.00519933      -1.52455221      -0.76628262
H       -1.58173083       0.08928890      -1.52654491
H        0.44821634      -1.70860530      -0.01692593
H        2.85913580       1.17679027       0.20684246
13
Frame=5 idx=009482 GeodesicLength=0.1299363694591912 rxn_smarts="[O:1]([C@@:2]1([H:9])[C:3]([H:10])([H:11])[C@:4]1([O:5][C:6](=[O:7])[H:13])[H:12])[H:8]>>[O:1]([C@@:2]1([H:9])[C:3]([H:10])([H:11])[C@:4]1([O+:5]=[C-:6][O:7][H:13])[H:12])[H:8]"
O       -0.93585065       1.31893391       0.66031668
C       -0.95528897      -0.06288520       0.56172788
C       -1.38965007      -0.63685241      -0.74724586
C        0.03611831      -0.75573230      -0.32409337
O        0.95373546       0.02770685      -1.08241464
C        1.94492309       0.59275773      -0.45030518
O        2.02692299       0.50656323       0.82470061
H       -0.17189032       1.56389628       1.19056752
H       -1.23343128      -0.59240592       1.46927699
H       -2.00552883      -1.52521784      -0.76690081
H       -1.58294902       0.08913058      -1.52636471
H        0.44754254      -1.70813009      -0.01670728
H        2.86534674       1.18223516       0.20744217
13
Frame=6 idx=009482 GeodesicLength=0.1559415161318942 rxn_smarts="[O:1]([C@@:2]1([H:9])[C:3]([H:10])([H:11])[C@:4]1([O:5][C:6](=[O:7])[H:13])[H:12])[H:8]>>[O:1]([C@@:2]1([H:9])[C:3]([H:10])([H:11])[C@:4]1([O+:5]=[C-:6][O:7][H:13])[H:12])[H:8]"
O       -0.93772187       1.31857283       0.66088837
C       -0.95660707      -0.06328176       0.56187788
C       -1.39045744      -0.63727997      -0.74733106
C        0.03536793      -0.75514327      -0.32397622
O        0.95198959       0.02950277      -1.08130895
C        1.94695443       0.58941953      -0.44971375
O        2.02803746       0.50569751       0.82347470
H       -0.17249928       1.56381282       1.18918508
H       -1.23483732      -0.59305594       1.46925476
H       -2.00570450      -1.52606699      -0.76753150
H       -1.58426592       0.08886092      -1.52618404
H        0.44704755      -1.70743647      -0.01647503
H        2.87269643       1.18639802       0.20783976
13
Frame=7 idx=009482 GeodesicLength=0.18184875705424827 rxn_smarts="[O:1]([C@@:2]1([H:9])[C:3]([H:10])([H:11])[C@:4]1([O:5][C:6](=[O:7])[H:13])[H:12])[H:8]>>[O:1]([C@@:2]1([H:9])[C:3]([H:10])([H:11])[C@:4]1([O+:5]=[C-:6][O:7][H:13])[H:12])[H:8]"
O       -0.93904913       1.31824040       0.66141969
C       -0.95776960      -0.06364488       0.56200729
C       -1.39127161      -0.63757152      -0.74742685
C        0.03457851      -0.75480825      -0.32387310
O        0.95042298       0.03077644      -1.08022958
C        1.94927523       0.58533098      -0.44917887
O        2.02945330       0.50406829       0.82219198
H       -0.17251759       1.56354995       1.18778000
H       -1.23622220      -0.59358118       1.46922399
H       -2.00613090      -1.52661039      -0.76815653
H       -1.58538199       0.08876510      -1.52602995
H        0.44625370      -1.70710419      -0.01624245
H        2.87835929       1.19258925       0.20851438
13
Frame=8 idx=009482 GeodesicLength=0.20786480575615515 rxn_smarts="[O:1]([C@@:2]1([H:9])[C:3]([H:10])([H:11])[C@:4]1([O:5][C:6](=[O:7])[H:13])[H:12])[H:8]>>[O:1]([C@@:2]1([H:9])[C:3]([H:10])([H:11])[C@:4]1([O+:5]=[C-:6][O:7][H:13])[H:12])[H:8]"
O       -0.94086738       1.31787846       0.66198800
C       -0.95908176      -0.06404148       0.56215443
C       -1.39207969      -0.63798464      -0.74751762
C        0.03381970      -0.75424936      -0.32375071
O        0.94870319       0.03251004      -1.07910730
C        1.95126342       0.58195391      -0.44860540
O        2.03056372       0.50316580       0.82094974
H       -0.17311010       1.56344048       1.18643826
H       -1.23762481      -0.59422015       1.46920451
H       -2.00632597      -1.52743015      -0.76879750
H       -1.58665650       0.08850760      -1.52586727
H        0.44572150      -1.70645169      -0.01599975
H        2.88567468       1.19692118       0.20891062
13
Frame=9 idx=009482 GeodesicLength=0.23374855286394047 rxn_smarts="[O:1]([C@@:2]1([H:9])[C:3]([H:10])([H:11])[C@:4]1([O:5][C:6](=[O:7])[H:13])[H:12])[H:8]>>[O:1]([C@@:2]1([H:9])[C:3]([H:10])([H:11])[C@:4]1([O+:5]=[C-:6][O:7][H:13])[H:12])[H:8]"
O       -0.94206661       1.31755025       0.66251296
C       -0.96021352      -0.06439911       0.56227930
C       -1.39289301      -0.63823993      -0.74762081
C        0.03301911      -0.75397898      -0.32364379
O        0.94719152       0.03365083      -1.07801246
C        1.95359368       0.57771068      -0.44809051
O        2.03202492       0.50138776       0.81964915
H       -0.17302085       1.56313066       1.18506020
H       -1.23900417      -0.59471563       1.46917549
H       -2.00680581      -1.52789838      -0.76943368
H       -1.58770370       0.08845590      -1.52572997
H        0.44484907      -1.70621161      -0.01575804
H        2.89102937       1.20355758       0.20961216
13
Frame=10 idx=009482 GeodesicLength=0.2596712669649466 rxn_smarts="[O:1]([C@@:2]1([H:9])[C:3]([H:10])([H:11])[C@:4]1([O:5][C:6](=[O:7])[H:13])[H:12])[H:8]>>[O:1]([C@@:2]1([H:9])[C:3]([H:10])([H:11])[C@:4]1([O+:5]=[C-:6][O:7][H:13])[H:12])[H:8]"
O       -0.94330483       1.31721806       0.66304042
C       -0.96136025      -0.06476127       0.56240454
C       -1.39370504      -0.63850476      -0.74772675
C        0.03222027      -0.75369364      -0.32353333
O        0.94567518       0.03482201      -1.07690515
C        1.95586570       0.57353733      -0.44757614
O        2.03344501       0.49968799       0.81834942
H       -0.17299597       1.56282912       1.18370639
H       -1.24038539      -0.59522110       1.46914755
H       -2.00726652      -1.52838816      -0.77007421
H       -1.58875437       0.08839282      -1.52559602
H        0.44399544      -1.70594916      -0.01551160
H        2.89657077       1.21003076       0.21027488
13
Frame=11 idx=009482 GeodesicLength=0.28559756629494853 rxn_smarts="[O:1]([C@@:2]1([H:9])[C:3]([H:10])([H:11])[C@:4]1([O:5][C:6](=[O:7])[H:13])[H:12])[H:8]>>[O:1]([C@@:2]1([H:9])[C:3]([H:10])([H:11])[C@:4]1([O+:5]=[C-:6][O:7][H:13])[H:12])[H:8]"
O       -0.94484925       1.31686530       0.66358694
C       -0.96260065      -0.06514593       0.56253862
C       -1.39451283      -0.63884875      -0.74783107
C        0.03144070      -0.75326918      -0.32341297
O        0.94406511       0.03627721      -1.07577242
C        1.95791614       0.56981741      -0.44704286
O        2.03466258       0.49846088       0.81707066
H       -0.17334080       1.56261974       1.18240259
H       -1.24177631      -0.59579959       1.46912457
H       -2.00758304      -1.52905255      -0.77072027
H       -1.58990380       0.08822833      -1.52545536
H        0.44330811      -1.70548503      -0.01525814
H        2.90317404       1.21533217       0.21076970
13
Frame=12 idx=009482 GeodesicLength=0.3115253041878542 rxn_smarts="[O:1]([C@@:2]1([H:9])[C:3]([H:10])([H:11])[C@:4]1([O:5][C:6](=[O:7])[H:13])[H:12])[H:8]>>[O:1]([C@@:2]1([H:9])[C:3]([H:10])([H:11])[C@:4]1([O+:5]=[C-:6][O:7][H:13])[H:12])[H:8]"
O       -0.94641114       1.31650873       0.66413355
C       -0.96385133      -0.06553428       0.56267121
C       -1.39531958      -0.63919894      -0.74793927
C        0.03066071      -0.75283952      -0.32328997
O        0.94245533       0.03774167      -1.07463036
C        1.95992183       0.56613866      -0.44651479
O        2.03585166       0.49728685       0.81578784
H       -0.17372702       1.56240794       1.18112448
H       -1.24317366      -0.59638433       1.46909967
H       -2.00789241      -1.52972668      -0.77136989
H       -1.59105240       0.08805906      -1.52531727
H        0.44262800      -1.70501060      -0.01499590
H        2.90990999       1.22055144       0.21124070
13
Frame=13 idx=009482 GeodesicLength=0.337452124590596 rxn_smarts="[O:1]([C@@:2]1([H:9])[C:3]([H:10])([H:11])[C@:4]1([O:5][C:6](=[O:7])[H:13])[H:12])[H:8]>>[O:1]([C@@:2]1([H:9])[C:3]([H:10])([H:11])[C@:4]1([O+:5]=[C-:6][O:7][H:13])[H:12])[H:8]"
O       -0.94802698       1.31614626       0.66468271
C       -0.96512351      -0.06592858       0.56280362
C       -1.39612595      -0.63956453      -0.74805003
C        0.02988209      -0.75238688      -0.32316356
O        0.94083229       0.03925174      -1.07347699
C        1.96186121       0.56255263      -0.44598948
O        2.03699129       0.49621843       0.81450356
H       -0.17419576       1.56220437       1.17987553
H       -1.24457924      -0.59698335       1.46907348
H       -2.00817560      -1.53043314      -0.77202423
H       -1.59221512       0.08787034      -1.52518143
H        0.44197384      -1.70450076      -0.01472464
H        2.91690144       1.22555347       0.21167147
13
Frame=14 idx=009482 GeodesicLength=0.3633625520888435 rxn_smarts="[O:1]([C@@:2]1([H:9])[C:3]([H:10])([H:11])[C@:4]1([O:5][C:6](=[O:7])[H:13])[H:12])[H:8]>>[O:1]([C@@:2]1([H:9])[C:3]([H:10])([H:11])[C@:4]1([O+:5]=[C-:6][O:7][H:13])[H:12])[H:8]"
O       -0.94953049       1.31578961       0.66522272
C       -0.96636783      -0.06631628       0.56293008
C       -1.39693288      -0.63990265      -0.74816631
C        0.02909456      -0.75198780      -0.32303787
O        0.93925220       0.04064978      -1.07232118
C        1.96383505       0.55882293      -0.44547861
O        2.03818215       0.49500935       0.81320542
H       -0.17455719       1.56195794       1.17863959
H       -1.24598441      -0.59755633       1.46904422
H       -2.00851220      -1.53107519      -0.77267979
H       -1.59333178       0.08771803      -1.52505448
H        0.44125530      -1.70406657      -0.01444789
H        2.92359752       1.23095719       0.21214411
13
Frame=15 idx=009482 GeodesicLength=0.3892637263695894 rxn_smarts="[O:1]([C@@:2]1([H:9])[C:3]([H:10])([H:11])[C@:4]1([O:5][C:6](=[O:7])[H:13])[H:12])[H:8]>>[O:1]([C@@:2]1([H:9])[C:3]([H:10])([H:11])[C@:4]1([O+:5]=[C-:6][O:7][H:13])[H:12])[H:8]"
O       -0.95093497       1.31543746       0.66575444
C       -0.96758928      -0.06669844       0.56305093
C       -1.39773999      -0.64021630      -0.74828818
C        0.02829885      -0.75163614      -0.32291137
O        0.93771098       0.04194824      -1.07116093
C        1.96583621       0.55496699      -0.44498048
O        2.03942071       0.49367361       0.81189416
H       -0.17482503       1.56167239       1.17741580
H       -1.24739146      -0.59810743       1.46901106
H       -2.00889714      -1.53165908      -0.77333638
H       -1.59440600       0.08759880      -1.52493556
H        0.44047990      -1.70369872      -0.01416403
H        2.93003721       1.23671865       0.21265053
13
Frame=16 idx=009482 GeodesicLength=0.41515420137384645 rxn_smarts="[O:1]([C@@:2]1([H:9])[C:3]([H:10])([H:11])[C@:4]1([O:5][C:6](=[O:7])[H:13])[H:12])[H:8]>>[O:1]([C@@:2]1([H:9])[C:3]([H:10])([H:11])[C@:4]1([O+:5]=[C-:6][O:7][H:13])[H:12])[H:8]"
O       -0.95222058       1.31509111       0.66628037
C       -0.96878279      -0.06707389       0.56316736
C       -1.39854672      -0.64049876      -0.74841590
C        0.02749377      -0.75134138      -0.32278216
O        0.93621568       0.04312743      -1.06999541
C        1.96788142       0.55094905      -0.44449732
O        2.04072585       0.49217680       0.81056780
H       -0.17497168       1.56134143       1.17619890
H       -1.24880596      -0.59863297       1.46897359
H       -2.00933910      -1.53217185      -0.77399841
H       -1.59542833       0.08752224      -1.52482469
H        0.43963660      -1.70341078      -0.01387005
H        2.93614184       1.24292158       0.21319592
