17
Frame=0 idx=010113 GeodesicLength=0.0 rxn_smarts="[C:1]([C@@:2]1([H:11])[C:3]([H:12])([H:13])[C@:4]1([C:5]([C:6](=[O:7])[H:17])([H:15])[H:16])[H:14])([H:8])([H:9])[H:10]>>[C:1]([C:2]1([H:11])[C:3]([H:12])=[C:4]1[H:14])([H:8])([H:9])[H:10].[C:5](=[C:6]([O:7][H:13])[H:17])([H:15])[H:16]"
C       -1.75158018      -0.27896154       0.68651007
C       -1.19389025       0.75206122      -0.27090159
C        0.08168936       1.51451675      -0.00996708
C        0.07354348       0.64274455      -1.04207948
C        1.59443102      -0.96119593      -0.74953224
C        1.32663907      -1.10872810       0.57519504
O        1.46740666      -0.13204611       1.42446061
H       -2.57576343       0.16245112       1.25054612
H       -1.01384703      -0.61685133       1.41127079
H       -2.14486279      -1.14782792       0.15264807
H       -1.98700225       1.26581019      -0.81968930
H        0.36086953       2.55439001       0.08049065
H        0.93853701       0.71820428       0.96881404
H        0.31576758       0.61794806      -2.09090758
H        2.27902952      -0.19229631      -1.07945937
H        1.40116116      -1.78185257      -1.42852127
H        0.82787156      -2.00836641       0.94112248
17
Frame=1 idx=010113 GeodesicLength=0.11197775473803784 rxn_smarts="[C:1]([C@@:2]1([H:11])[C:3]([H:12])([H:13])[C@:4]1([C:5]([C:6](=[O:7])[H:17])([H:15])[H:16])[H:14])([H:8])([H:9])[H:10]>>[C:1]([C:2]1([H:11])[C:3]([H:12])=[C:4]1[H:14])([H:8])([H:9])[H:10].[C:5](=[C:6]([O:7][H:13])[H:17])([H:15])[H:16]"
C       -1.77266551      -0.27130830       0.67642102
C       -1.20402845       0.75804430      -0.27586509
C        0.07193863       1.51374933      -0.00176973
C        0.07068381       0.63954665      -1.03508846
C        1.58811234      -0.96358430      -0.75289190
C        1.36683974      -1.11516790       0.58299331
O        1.49530636      -0.13239503       1.42410521
H       -2.58748763       0.17686583       1.24875897
H       -1.03550441      -0.62694808       1.39359927
H       -2.18174519      -1.12962920       0.13739573
H       -1.98953834       1.27959960      -0.82762809
H        0.35317925       2.55290609       0.08898146
H        0.92795490       0.72261834       0.97775408
H        0.31407251       0.63208677      -2.08410139
H        2.27689273      -0.20730675      -1.10388423
H        1.39269557      -1.79748839      -1.41548905
H        0.91329369      -2.03158897       0.96670889
17
Frame=2 idx=010113 GeodesicLength=0.2226183257233144 rxn_smarts="[C:1]([C@@:2]1([H:11])[C:3]([H:12])([H:13])[C@:4]1([C:5]([C:6](=[O:7])[H:17])([H:15])[H:16])[H:14])([H:8])([H:9])[H:10]>>[C:1]([C:2]1([H:11])[C:3]([H:12])=[C:4]1[H:14])([H:8])([H:9])[H:10].[C:5](=[C:6]([O:7][H:13])[H:17])([H:15])[H:16]"
C       -1.79427185      -0.26357714       0.66561608
C       -1.21422215       0.76431656      -0.28088051
C        0.06204969       1.51287405       0.00706889
C        0.06781940       0.63658308      -1.02771299
C        1.58069202      -0.96681137      -0.75541808
C        1.40833478      -1.12083923       0.59047243
O        1.52424472      -0.13215031       1.42339129
H       -2.59988937       0.19086676       1.24607326
H       -1.05831601      -0.63714136       1.37525245
H       -2.21869688      -1.11086565       0.12103127
H       -1.99177952       1.29396790      -0.83560388
H        0.34544449       2.55125513       0.09848882
H        0.91676128       0.72643961       0.98740840
H        0.31279704       0.64640179      -2.07653484
H        2.27318380      -0.22444605      -1.12935536
H        1.38227097      -1.81391105      -1.40077413
H        1.00357757      -2.05296269       0.99147691
17
Frame=3 idx=010113 GeodesicLength=0.332102614356924 rxn_smarts="[C:1]([C@@:2]1([H:11])[C:3]([H:12])([H:13])[C@:4]1([C:5]([C:6](=[O:7])[H:17])([H:15])[H:16])[H:14])([H:8])([H:9])[H:10]>>[C:1]([C:2]1([H:11])[C:3]([H:12])=[C:4]1[H:14])([H:8])([H:9])[H:10].[C:5](=[C:6]([O:7][H:13])[H:17])([H:15])[H:16]"
C       -1.81657781      -0.25564185       0.65413450
C       -1.22452294       0.77087322      -0.28594498
C        0.05201017       1.51176463       0.01656329
C        0.06489395       0.63367949      -1.01990301
C        1.57237686      -0.97084371      -0.75700320
C        1.45126439      -1.12571859       0.59751429
O        1.55411747      -0.13137919       1.42233419
H       -2.61302824       0.20472446       1.24260706
H       -1.08247516      -0.64746374       1.35618134
H       -2.25607969      -1.09132487       0.10361147
H       -1.99370158       1.30895834      -0.84364475
H        0.33776844       2.54928657       0.10894030
H        0.90481923       0.72946878       0.99787140
H        0.31192676       0.66067130      -2.06815022
H        2.26784507      -0.24365901      -1.15574213
H        1.37014805      -1.83107312      -1.38422667
H        1.09921502      -2.07232271       1.01485712
17
Frame=4 idx=010113 GeodesicLength=0.4404535302677783 rxn_smarts="[C:1]([C@@:2]1([H:11])[C:3]([H:12])([H:13])[C@:4]1([C:5]([C:6](=[O:7])[H:17])([H:15])[H:16])[H:14])([H:8])([H:9])[H:10]>>[C:1]([C:2]1([H:11])[C:3]([H:12])=[C:4]1[H:14])([H:8])([H:9])[H:10].[C:5](=[C:6]([O:7][H:13])[H:17])([H:15])[H:16]"
C       -1.83965072      -0.24746993       0.64195569
C       -1.23491868       0.77770046      -0.29104118
C        0.04182719       1.51033473       0.02678552
C        0.06191667       0.63076151      -1.01159645
C        1.56324893      -0.97571434      -0.75754885
C        1.49580930      -1.12973454       0.60400428
O        1.58495630      -0.13007611       1.42090376
H       -2.62704152       0.21847282       1.23826301
H       -1.10812713      -0.65782252       1.33644883
H       -2.29388751      -1.07098856       0.08510370
H       -1.99523732       1.32458865      -0.85174304
H        0.33017555       2.54690446       0.12043620
H        0.89211336       0.73155488       1.00920254
H        0.31152409       0.67480676      -2.05887397
H        2.26073323      -0.26508650      -1.18304915
H        1.35627418      -1.84902555      -1.36558480
H        1.20028408      -2.08920620       1.03633392
17
Frame=5 idx=010113 GeodesicLength=0.5477759630440465 rxn_smarts="[C:1]([C@@:2]1([H:11])[C:3]([H:12])([H:13])[C@:4]1([C:5]([C:6](=[O:7])[H:17])([H:15])[H:16])[H:14])([H:8])([H:9])[H:10]>>[C:1]([C:2]1([H:11])[C:3]([H:12])=[C:4]1[H:14])([H:8])([H:9])[H:10].[C:5](=[C:6]([O:7][H:13])[H:17])([H:15])[H:16]"
C       -1.86360565      -0.23899929       0.62903208
C       -1.24541410       0.78480567      -0.29615976
C        0.03149974       1.50848563       0.03781232
C        0.05887923       0.62773934      -1.00272490
C        1.55338007      -0.98146069      -0.75693570
C        1.54216370      -1.13278669       0.60981660
O        1.61676337      -0.12823319       1.41908690
H       -2.64205283       0.23221060       1.23297555
H       -1.13545563      -0.66820050       1.31602248
H       -2.33224798      -1.04974483       0.06542189
H       -1.99631401       1.34092026      -0.85989919
H        0.32271788       2.54399058       0.13307351
H        0.87857434       0.73250847       1.02148445
H        0.31164666       0.68870507      -2.04862245
H        2.25165991      -0.28889190      -1.21126358
H        1.34059748      -1.86783974      -1.34450825
H        1.30720781      -2.10320880       1.05538804
17
Frame=6 idx=010113 GeodesicLength=0.6541276959554534 rxn_smarts="[C:1]([C@@:2]1([H:11])[C:3]([H:12])([H:13])[C@:4]1([C:5]([C:6](=[O:7])[H:17])([H:15])[H:16])[H:14])([H:8])([H:9])[H:10]>>[C:1]([C:2]1([H:11])[C:3]([H:12])=[C:4]1[H:14])([H:8])([H:9])[H:10].[C:5](=[C:6]([O:7][H:13])[H:17])([H:15])[H:16]"
C       -1.88855964      -0.23016133       0.61533347
C       -1.25600766       0.79217834      -0.30128296
C        0.02103219       1.50608910       0.04972293
C        0.05577040       0.62448581      -0.99321214
C        1.54290090      -0.98810689      -0.75504225
C        1.59055921      -1.13475319       0.61478537
O        1.64952779      -0.12586449       1.41687985
H       -2.65819620       0.24605263       1.22667792
H       -1.16466178      -0.67855523       1.29490695
H       -2.37127716      -1.02748363       0.04450840
H       -1.99684413       1.35799569      -0.86810622
H        0.31545698       2.54039537       0.14694562
H        0.86415422       0.73211056       1.03478837
H        0.31234926       0.70222832      -2.03730290
H        2.24044424      -0.31522099      -1.24034783
H        1.32317282      -1.88757419      -1.32061826
H        1.42017855      -2.11381587       1.07136369
17
Frame=7 idx=010113 GeodesicLength=0.7595579779811522 rxn_smarts="[C:1]([C@@:2]1([H:11])[C:3]([H:12])([H:13])[C@:4]1([C:5]([C:6](=[O:7])[H:17])([H:15])[H:16])[H:14])([H:8])([H:9])[H:10]>>[C:1]([C:2]1([H:11])[C:3]([H:12])=[C:4]1[H:14])([H:8])([H:9])[H:10].[C:5](=[C:6]([O:7][H:13])[H:17])([H:15])[H:16]"
C       -1.91465064      -0.22086193       0.60084595
C       -1.26670138       0.79979904      -0.30638855
C        0.01043015       1.50298554       0.06259173
C        0.05256341       0.62082842      -0.98297739
C        1.53200257      -0.99566017      -0.75174690
C        1.64124243      -1.13548789       0.61870080
O        1.68319098      -0.12302680       1.41430802
H       -2.67561429       0.26016464       1.21931559
H       -1.19598254      -0.68882762       1.27312539
H       -2.41112452      -1.00406247       0.02233188
H       -1.99672864       1.37585220      -0.87635549
H        0.30847686       2.53593183       0.16212483
H        0.84880932       0.73010708       1.04917346
H        0.31366965       0.71519184      -2.02481692
H        2.22691447      -0.34418570      -1.27021789
H        1.30420114      -1.90826846      -1.29350663
H        1.53930103      -2.12047955       1.08349213
17
Frame=8 idx=010113 GeodesicLength=0.8640165158760312 rxn_smarts="[C:1]([C@@:2]1([H:11])[C:3]([H:12])([H:13])[C@:4]1([C:5]([C:6](=[O:7])[H:17])([H:15])[H:16])[H:14])([H:8])([H:9])[H:10]>>[C:1]([C:2]1([H:11])[C:3]([H:12])=[C:4]1[H:14])([H:8])([H:9])[H:10].[C:5](=[C:6]([O:7][H:13])[H:17])([H:15])[H:16]"
C       -1.94196085      -0.21103914       0.58559595
C       -1.27746663       0.80760116      -0.31143096
C       -0.00028554       1.49898815       0.07649271
C        0.04924426       0.61656295      -0.97193844
C        1.52098455      -1.00409144      -0.74697605
C        1.69453580      -1.13478703       0.62126337
O        1.71775718      -0.11978109       1.41136822
H       -2.69446413       0.27466301       1.21080303
H       -1.22961867      -0.69888251       1.25083035
H       -2.45178687      -0.97944441      -0.00107596
H       -1.99584875       1.39446339      -0.88460276
H        0.30184506       2.53039160       0.17869803
H        0.83258844       0.72624859       1.06465070
H        0.31564361       0.72740165      -2.01106430
H        2.21094969      -0.37585091      -1.30080497
H        1.28407572      -1.92992142      -1.26277916
H        1.66380713      -2.12252255       1.09097024
17
Frame=9 idx=010113 GeodesicLength=0.9676495578652029 rxn_smarts="[C:1]([C@@:2]1([H:11])[C:3]([H:12])([H:13])[C@:4]1([C:5]([C:6](=[O:7])[H:17])([H:15])[H:16])[H:14])([H:8])([H:9])[H:10]>>[C:1]([C:2]1([H:11])[C:3]([H:12])=[C:4]1[H:14])([H:8])([H:9])[H:10].[C:5](=[C:6]([O:7][H:13])[H:17])([H:15])[H:16]"
C       -1.97075290      -0.20047691       0.56960848
C       -1.28835267       0.81556441      -0.31639503
C       -0.01112338       1.49384899       0.09146059
C        0.04570457       0.61136685      -0.96001172
C        1.51019601      -1.01335455      -0.74060958
C        1.75068117      -1.13244258       0.62218445
O        1.75295095      -0.11635814       1.40824768
H       -2.71486856       0.28996054       1.20120147
H       -1.26595816      -0.70868938       1.22798581
H       -2.49371813      -0.95325132      -0.02568549
H       -1.99409224       1.41388313      -0.89287053
H        0.29573255       2.52347429       0.19660979
H        0.81537981       0.72017852       1.08126463
H        0.31820720       0.73849690      -1.99594826
H        2.19244854      -0.41017381      -1.33184136
H        1.26346195      -1.95250069      -1.22803457
H        1.79410329      -2.11952628       1.09283365
17
Frame=10 idx=010113 GeodesicLength=1.0704049387545156 rxn_smarts="[C:1]([C@@:2]1([H:11])[C:3]([H:12])([H:13])[C@:4]1([C:5]([C:6](=[O:7])[H:17])([H:15])[H:16])[H:14])([H:8])([H:9])[H:10]>>[C:1]([C:2]1([H:11])[C:3]([H:12])=[C:4]1[H:14])([H:8])([H:9])[H:10].[C:5](=[C:6]([O:7][H:13])[H:17])([H:15])[H:16]"
C       -2.00105426      -0.18915140       0.55281125
C       -1.29928786       0.82364865      -0.32122397
C       -0.02206144       1.48739690       0.10764050
C        0.04195909       0.60512217      -0.94710412
C        1.49980012      -1.02351063      -0.73260779
C        1.80998978      -1.12807087       0.62101733
O        1.78891341      -0.11276632       1.40486801
H       -2.73705494       0.30605227       1.19024378
H       -1.30519268      -0.71806295       1.20474076
H       -2.53668689      -0.92553383      -0.05163611
H       -1.99128265       1.43414178      -0.90104967
H        0.29016505       2.51497840       0.21616785
H        0.79726935       0.71162498       1.09901837
H        0.32147971       0.74844208      -1.97932656
H        2.17109248      -0.44750975      -1.36338056
H        1.24263258      -1.97612949      -1.18865251
H        1.92931916      -2.11067200       1.08847346
17
Frame=11 idx=010113 GeodesicLength=1.172452132161136 rxn_smarts="[C:1]([C@@:2]1([H:11])[C:3]([H:12])([H:13])[C@:4]1([C:5]([C:6](=[O:7])[H:17])([H:15])[H:16])[H:14])([H:8])([H:9])[H:10]>>[C:1]([C:2]1([H:11])[C:3]([H:12])=[C:4]1[H:14])([H:8])([H:9])[H:10].[C:5](=[C:6]([O:7][H:13])[H:17])([H:15])[H:16]"
C       -2.03321185      -0.17672569       0.53534089
C       -1.31035231       0.83177801      -0.32589573
C       -0.03311306       1.47926873       0.12499130
C        0.03780652       0.59729007      -0.93314173
C        1.49044451      -1.03439178      -0.72288155
C        1.87271868      -1.12136636       0.61738201
O        1.82509339      -0.10955639       1.40170518
H       -2.76110477       0.32361454       1.17813063
H       -1.34784360      -0.72692115       1.18112612
H       -2.58137121      -0.89572397      -0.07871770
H       -1.98728694       1.45520546      -0.90920262
H        0.28540447       2.50447174       0.23707231
H        0.77814721       0.70016699       1.11789901
H        0.32522515       0.75659982      -1.96113920
H        2.14701380      -0.48750763      -1.39489142
H        1.22295649      -2.00058079      -1.14440198
H        2.06947350      -2.09562160       1.07662450
17
Frame=12 idx=010113 GeodesicLength=1.2735584406445721 rxn_smarts="[C:1]([C@@:2]1([H:11])[C:3]([H:12])([H:13])[C@:4]1([C:5]([C:6](=[O:7])[H:17])([H:15])[H:16])[H:14])([H:8])([H:9])[H:10]>>[C:1]([C:2]1([H:11])[C:3]([H:12])=[C:4]1[H:14])([H:8])([H:9])[H:10].[C:5](=[C:6]([O:7][H:13])[H:17])([H:15])[H:16]"
C       -2.06713339      -0.16320297       0.51720141
C       -1.32142135       0.83983770      -0.33030457
C       -0.04424152       1.46924975       0.14364523
C        0.03326166       0.58772908      -0.91805125
C        1.48244263      -1.04601760      -0.71164478
C        1.93899025      -1.11174458       0.61051429
O        1.86184206      -0.10674075       1.39842897
H       -2.78731270       0.34258907       1.16447271
H       -1.39402306      -0.73480294       1.15762732
H       -2.62713065      -0.86415236      -0.10693494
H       -1.98189721       1.47700558      -0.91709913
H        0.28143453       2.49169099       0.25975279
H        0.75823404       0.68553926       1.13779479
H        0.32956821       0.76301531      -1.94122489
H        2.12002374      -0.53046302      -1.42645478
H        1.20531173      -2.02590906      -1.09492666
H        2.21205102      -2.07362345       1.05720350
17
Frame=13 idx=010113 GeodesicLength=1.3740780080988986 rxn_smarts="[C:1]([C@@:2]1([H:11])[C:3]([H:12])([H:13])[C@:4]1([C:5]([C:6](=[O:7])[H:17])([H:15])[H:16])[H:14])([H:8])([H:9])[H:10]>>[C:1]([C:2]1([H:11])[C:3]([H:12])=[C:4]1[H:14])([H:8])([H:9])[H:10].[C:5](=[C:6]([O:7][H:13])[H:17])([H:15])[H:16]"
C       -2.10317206      -0.14821116       0.49839710
C       -1.33256651       0.84781607      -0.33445191
C       -0.05549111       1.45700331       0.16361335
C        0.02810052       0.57595334      -0.90176096
C        1.47624025      -1.05831409      -0.69870202
C        2.00892529      -1.09868030       0.60004914
O        1.89850153      -0.10510200       1.39578515
H       -2.81568784       0.36368580       1.14943131
H       -1.44429446      -0.74176050       1.13400831
H       -2.67473518      -0.83005496      -0.13632380
H       -1.97492285       1.49957622      -0.92483663
H        0.27850805       2.47622853       0.28393754
H        0.73737095       0.66732937       1.15875622
H        0.33425741       0.76705723      -1.91953746
H        2.09006987      -0.57632055      -1.45743926
H        1.19086663      -2.05194090      -1.03975508
H        2.35802951      -2.04426541       1.02882900
17
Frame=14 idx=010113 GeodesicLength=1.4738288574134222 rxn_smarts="[C:1]([C@@:2]1([H:11])[C:3]([H:12])([H:13])[C@:4]1([C:5]([C:6](=[O:7])[H:17])([H:15])[H:16])[H:14])([H:8])([H:9])[H:10]>>[C:1]([C:2]1([H:11])[C:3]([H:12])=[C:4]1[H:14])([H:8])([H:9])[H:10].[C:5](=[C:6]([O:7][H:13])[H:17])([H:15])[H:16]"
C       -2.14147283      -0.13139793       0.47933353
C       -1.34380199       0.85546868      -0.33823167
C       -0.06686559       1.44209888       0.18476336
C        0.02206356       0.56132092      -0.88427585
C        1.47274566      -1.07115661      -0.68473077
C        2.08174677      -1.08181071       0.58525226
O        1.93503507      -0.10519700       1.39355180
H       -2.84660309       0.38760820       1.13287787
H       -1.49911091      -0.74681469       1.11140411
H       -2.72388819      -0.79361467      -0.16620533
H       -1.96620998       1.52266896      -0.93226734
H        0.27679015       2.45754000       0.30959512
H        0.71561423       0.64514859       1.18056242
H        0.33901875       0.76825686      -1.89603041
H        2.05803769      -0.62431728      -1.48729016
H        1.18253382      -2.07849143      -0.98012943
H        2.50436687      -2.00731078       0.99182050
17
Frame=15 idx=010113 GeodesicLength=1.572991983351331 rxn_smarts="[C:1]([C@@:2]1([H:11])[C:3]([H:12])([H:13])[C@:4]1([C:5]([C:6](=[O:7])[H:17])([H:15])[H:16])[H:14])([H:8])([H:9])[H:10]>>[C:1]([C:2]1([H:11])[C:3]([H:12])=[C:4]1[H:14])([H:8])([H:9])[H:10].[C:5](=[C:6]([O:7][H:13])[H:17])([H:15])[H:16]"
C       -2.18212773      -0.11256266       0.45973008
C       -1.35503089       0.86278568      -0.34160942
C       -0.07836782       1.42424395       0.20719639
C        0.01505424       0.54356449      -0.86545185
C        1.47181105      -1.08455894      -0.66910518
C        2.15724121      -1.06025171       0.56600077
O        1.97089212      -0.10800042       1.39264077
H       -2.87961027       0.41463928       1.11497915
H       -1.55877985      -0.75051631       1.08874787
H       -2.77532936      -0.75373495      -0.19708234
H       -1.95538145       1.54622212      -0.93936591
H        0.27654777       2.43521436       0.33642646
H        0.69293317       0.61880631       1.20326006
H        0.34372835       0.76602345      -1.87056703
H        2.02341614      -0.67495877      -1.51516769
H        1.18043993      -2.10529439      -0.91498172
H        2.65256340      -1.96162149       0.94434958
17
Frame=16 idx=010113 GeodesicLength=1.6716063279655076 rxn_smarts="[C:1]([C@@:2]1([H:11])[C:3]([H:12])([H:13])[C@:4]1([C:5]([C:6](=[O:7])[H:17])([H:15])[H:16])[H:14])([H:8])([H:9])[H:10]>>[C:1]([C:2]1([H:11])[C:3]([H:12])=[C:4]1[H:14])([H:8])([H:9])[H:10].[C:5](=[C:6]([O:7][H:13])[H:17])([H:15])[H:16]"
C       -2.22495050      -0.09149009       0.44019896
C       -1.36625022       0.86941243      -0.34448942
C       -0.09006322       1.40319102       0.23066010
C        0.00678050       0.52212975      -0.84545707
C        1.47445941      -1.09830012      -0.65295500
C        2.23374125      -1.03398761       0.54200391
O        2.00672972      -0.11361181       1.39223739
H       -2.91473355       0.44536687       1.09585114
H       -1.62327126      -0.75181465       1.06750126
H       -2.82834825      -0.71099587      -0.22799808
H       -1.94244595       1.56972546      -0.94602594
H        0.27765459       2.40899311       0.36428653
H        0.66960412       0.58828441       1.22657331
H        0.34791757       0.75999272      -1.84336359
H        1.98805935      -0.72692643      -1.54047426
H        1.18780095      -2.13196639      -0.84703046
H        2.79731548      -1.90800279       0.88848120
