15
Frame=0 idx=000878 GeodesicLength=0.0 rxn_smarts="[O:1]([C:2]([C:3]([N:4]1[C:5]([H:12])([H:13])[C:6]1([H:14])[H:15])([H:10])[H:11])([H:8])[H:9])[H:7]>>[O:1]([C:2]([C:3]([N+:4]([C-:5]([H:12])[H:13])=[C:6]([H:14])[H:15])([H:10])[H:11])([H:8])[H:9])[H:7]"
O       -2.18904489       0.00564289      -0.61982516
C       -1.62019461      -0.26182613       0.64067053
C       -0.33596703       0.51412432       0.87209143
N        0.68996940       0.15543778      -0.08394338
C        1.55447691       0.90957749      -0.80386451
C        1.21908350      -1.04932788      -0.39787131
H       -1.56561999      -0.28455500      -1.29003102
H       -1.42933388      -1.33548783       0.76779840
H       -2.35876518       0.03249773       1.38828724
H       -0.51042795       1.58603067       0.75863946
H        0.02580480       0.33318452       1.89272787
H        1.18987375       1.64438991      -1.52108777
H        2.60666709       0.88618399      -0.56307807
H        1.54800017      -1.74108543       0.37907443
H        1.17547791      -1.39478704      -1.41958813
15
Frame=1 idx=000878 GeodesicLength=0.043884671186834465 rxn_smarts="[O:1]([C:2]([C:3]([N:4]1[C:5]([H:12])([H:13])[C:6]1([H:14])[H:15])([H:10])[H:11])([H:8])[H:9])[H:7]>>[O:1]([C:2]([C:3]([N+:4]([C-:5]([H:12])[H:13])=[C:6]([H:14])[H:15])([H:10])[H:11])([H:8])[H:9])[H:7]"
O       -2.20783692       0.02195604      -0.61052764
C       -1.62439592      -0.26188139       0.63954007
C       -0.33427358       0.50634246       0.86512315
N        0.67066594       0.14664457      -0.11147860
C        1.54874823       0.89945576      -0.81626393
C        1.23710664      -1.04956290      -0.39111640
H       -1.58396313      -0.24282199      -1.29127523
H       -1.43591198      -1.33767004       0.75243489
H       -2.35257263       0.02646690       1.39968160
H       -0.50469734       1.57992236       0.76304198
H        0.04201378       0.31114101       1.87755931
H        1.18620714       1.64024448      -1.52740829
H        2.59599919       0.89977087      -0.55355546
H        1.54913311      -1.72101385       0.40935376
H        1.21377748      -1.41899429      -1.40510921
15
Frame=2 idx=000878 GeodesicLength=0.08687893708422985 rxn_smarts="[O:1]([C:2]([C:3]([N:4]1[C:5]([H:12])([H:13])[C:6]1([H:14])[H:15])([H:10])[H:11])([H:8])[H:9])[H:7]>>[O:1]([C:2]([C:3]([N+:4]([C-:5]([H:12])[H:13])=[C:6]([H:14])[H:15])([H:10])[H:11])([H:8])[H:9])[H:7]"
O       -2.22563020       0.03852934      -0.60138372
C       -1.62850000      -0.26177119       0.63819582
C       -0.33221334       0.49809706       0.85807350
N        0.65209116       0.13674140      -0.13803002
C        1.54255609       0.88916069      -0.82800779
C        1.25474929      -1.04935088      -0.38395607
H       -1.60150816      -0.20085761      -1.29174804
H       -1.44308571      -1.33959851       0.73703453
H       -2.34629775       0.02090593       1.41034723
H       -0.49815822       1.57328103       0.76726071
H        0.05752646       0.28915688       1.86236759
H        1.18136735       1.63473733      -1.53389479
H        2.58424402       0.91363320      -0.54480575
H        1.55049746      -1.70079192       0.43808194
H        1.25236154      -1.44187273      -1.38953515
15
Frame=3 idx=000878 GeodesicLength=0.12889162744403776 rxn_smarts="[O:1]([C:2]([C:3]([N:4]1[C:5]([H:12])([H:13])[C:6]1([H:14])[H:15])([H:10])[H:11])([H:8])[H:9])[H:7]>>[O:1]([C:2]([C:3]([N+:4]([C-:5]([H:12])[H:13])=[C:6]([H:14])[H:15])([H:10])[H:11])([H:8])[H:9])[H:7]"
O       -2.24216700       0.05514399      -0.59257304
C       -1.63247258      -0.26150289       0.63665344
C       -0.32985429       0.48949182       0.85109568
N        0.63440734       0.12589196      -0.16328450
C        1.53593163       0.87876998      -0.83906949
C        1.27190568      -1.04867245      -0.37652580
H       -1.61777745      -0.15896296      -1.29145570
H       -1.45074716      -1.34125338       0.72181008
H       -2.34009686       0.01586549       1.42014560
H       -0.49095584       1.56618805       0.77135280
H        0.07221774       0.26733819       1.84739893
H        1.17529665       1.62799500      -1.54045673
H        2.57158290       0.92757803      -0.53715655
H        1.55193548      -1.68065484       0.46514864
H        1.29079375      -1.46321600      -1.37308336
15
Frame=4 idx=000878 GeodesicLength=0.16986603139150638 rxn_smarts="[O:1]([C:2]([C:3]([N:4]1[C:5]([H:12])([H:13])[C:6]1([H:14])[H:15])([H:10])[H:11])([H:8])[H:9])[H:7]>>[O:1]([C:2]([C:3]([N+:4]([C-:5]([H:12])[H:13])=[C:6]([H:14])[H:15])([H:10])[H:11])([H:8])[H:9])[H:7]"
O       -2.25731874       0.07156600      -0.58424627
C       -1.63629451      -0.26109388       0.63494055
C       -0.32726083       0.48064062       0.84429538
N        0.61766931       0.11425240      -0.18706182
C        1.52895173       0.86837333      -0.84942473
C        1.28848357      -1.04754491      -0.36896793
H       -1.63248813      -0.11748391      -1.29042116
H       -1.45878894      -1.34266005       0.70697921
H       -2.33408497       0.01140925       1.42899397
H       -0.48323885       1.55876185       0.77533528
H        0.08605443       0.24579291       1.83281545
H        1.16806409       1.62027242      -1.54697638
H        2.55825705       0.94145095      -0.53076103
H        1.55333232      -1.66081568       0.49049847
H        1.32866247      -1.48292130      -1.35599898
15
Frame=5 idx=000878 GeodesicLength=0.2099975683316951 rxn_smarts="[O:1]([C:2]([C:3]([N:4]1[C:5]([H:12])([H:13])[C:6]1([H:14])[H:15])([H:10])[H:11])([H:8])[H:9])[H:7]>>[O:1]([C:2]([C:3]([N+:4]([C-:5]([H:12])[H:13])=[C:6]([H:14])[H:15])([H:10])[H:11])([H:8])[H:9])[H:7]"
O       -2.27082175       0.08758026      -0.57634050
C       -1.63987132      -0.26059366       0.63310523
C       -0.32451140       0.47162486       0.83766695
N        0.60186181       0.10216447      -0.20933173
C        1.52164929       0.85801493      -0.85914182
C        1.30440639      -1.04588360      -0.36140594
H       -1.64530696      -0.07656063      -1.28854135
H       -1.46703866      -1.34373159       0.69271472
H       -2.32826652       0.00737730       1.43686032
H       -0.47516613       1.55096873       0.77913055
H        0.09892952       0.22459989       1.81857932
H        1.15988025       1.61157807      -1.55339304
H        2.54432958       0.95509785      -0.52553084
H        1.55435945      -1.64133607       0.51413347
H        1.36556645      -1.50090083      -1.33850534
15
Frame=6 idx=000878 GeodesicLength=0.24924982065848023 rxn_smarts="[O:1]([C:2]([C:3]([N:4]1[C:5]([H:12])([H:13])[C:6]1([H:14])[H:15])([H:10])[H:11])([H:8])[H:9])[H:7]>>[O:1]([C:2]([C:3]([N+:4]([C-:5]([H:12])[H:13])=[C:6]([H:14])[H:15])([H:10])[H:11])([H:8])[H:9])[H:7]"
O       -2.28303376       0.10312993      -0.56907272
C       -1.64332585      -0.25996917       0.63116747
C       -0.32163673       0.46251133       0.83132430
N        0.58695042       0.08948640      -0.23017111
C        1.51414184       0.84772363      -0.86820432
C        1.31973306      -1.04384428      -0.35391907
H       -1.65647348      -0.03638435      -1.28604927
H       -1.47550591      -1.34459407       0.67907207
H       -2.32279492       0.00400010       1.44385658
H       -0.46684081       1.54300352       0.78287155
H        0.11103551       0.20378479       1.80489980
H        1.15078087       1.60229600      -1.55962082
H        2.53006641       0.96847683      -0.52153422
H        1.55529047      -1.62233517       0.53612242
H        1.40161289      -1.51728548      -1.32074266
15
Frame=7 idx=000878 GeodesicLength=0.2878717138178528 rxn_smarts="[O:1]([C:2]([C:3]([N:4]1[C:5]([H:12])([H:13])[C:6]1([H:14])[H:15])([H:10])[H:11])([H:8])[H:9])[H:7]>>[O:1]([C:2]([C:3]([N+:4]([C-:5]([H:12])[H:13])=[C:6]([H:14])[H:15])([H:10])[H:11])([H:8])[H:9])[H:7]"
O       -2.29394849       0.11834456      -0.56237479
C       -1.64665733      -0.25923513       0.62912822
C       -0.31866409       0.45327462       0.82526038
N        0.57284110       0.07636290      -0.24969210
C        1.50637555       0.83749384      -0.87676050
C        1.33450377      -1.04143708      -0.34647809
H       -1.66597741       0.00323995      -1.28291332
H       -1.48419733      -1.34522769       0.66594847
H       -2.31765321       0.00112464       1.45004510
H       -0.45824833       1.53480831       0.78661278
H        0.12236318       0.18319764       1.79172142
H        1.14080904       1.59235806      -1.56578793
H        2.51541356       0.98161536      -0.51872233
H        1.55615487      -1.60373776       0.55670816
H        1.43688511      -1.53218222      -1.30269549
15
Frame=8 idx=000878 GeodesicLength=0.32598439407285273 rxn_smarts="[O:1]([C:2]([C:3]([N:4]1[C:5]([H:12])([H:13])[C:6]1([H:14])[H:15])([H:10])[H:11])([H:8])[H:9])[H:7]>>[O:1]([C:2]([C:3]([N+:4]([C-:5]([H:12])[H:13])=[C:6]([H:14])[H:15])([H:10])[H:11])([H:8])[H:9])[H:7]"
O       -2.30360080       0.13307248      -0.55624916
C       -1.64984243      -0.25840798       0.62701218
C       -0.31564478       0.44398341       0.81944989
N        0.55945416       0.06288286      -0.26793854
C        1.49843480       0.82732864      -0.88478395
C        1.34872014      -1.03866210      -0.33917999
H       -1.67386069       0.04215507      -1.27914609
H       -1.49299200      -1.34564720       0.65344835
H       -2.31283797      -0.00122724       1.45544371
H       -0.44954120       1.52644002       0.79028636
H        0.13296167       0.16293925       1.77900566
H        1.13013273       1.58192051      -1.57174491
H        2.50053649       0.99442568      -0.51694251
H        1.55693492      -1.58554826       0.57587644
H        1.47114496      -1.54565515      -1.28453743
15
Frame=9 idx=000878 GeodesicLength=0.3636273909020352 rxn_smarts="[O:1]([C:2]([C:3]([N:4]1[C:5]([H:12])([H:13])[C:6]1([H:14])[H:15])([H:10])[H:11])([H:8])[H:9])[H:7]>>[O:1]([C:2]([C:3]([N+:4]([C-:5]([H:12])[H:13])=[C:6]([H:14])[H:15])([H:10])[H:11])([H:8])[H:9])[H:7]"
O       -2.31209464       0.14733330      -0.55070506
C       -1.65291389      -0.25748896       0.62484741
C       -0.31258276       0.43465350       0.81390704
N        0.54673335       0.04911671      -0.28505505
C        1.49033965       0.81726126      -0.89235373
C        1.36239518      -1.03556766      -0.33204437
H       -1.68020934       0.08033333      -1.27479961
H       -1.50190488      -1.34587020       0.64157206
H       -2.30837100      -0.00306860       1.46014963
H       -0.44071280       1.51793045       0.79394867
H        0.14290027       0.14295906       1.76676553
H        1.11884569       1.57106884      -1.57755422
H        2.48543620       1.00692577      -0.51610797
H        1.55758591      -1.56781562       0.59376677
H        1.50455306      -1.55777117      -1.26633710
15
Frame=10 idx=000878 GeodesicLength=0.40097809608430435 rxn_smarts="[O:1]([C:2]([C:3]([N:4]1[C:5]([H:12])([H:13])[C:6]1([H:14])[H:15])([H:10])[H:11])([H:8])[H:9])[H:7]>>[O:1]([C:2]([C:3]([N+:4]([C-:5]([H:12])[H:13])=[C:6]([H:14])[H:15])([H:10])[H:11])([H:8])[H:9])[H:7]"
O       -2.31951564       0.16126973      -0.54571367
C       -1.65590253      -0.25647008       0.62261341
C       -0.30949894       0.42523925       0.80863128
N        0.53459554       0.03503630      -0.30111549
C        1.48204668       0.80723890      -0.89955508
C        1.37560898      -1.03218785      -0.32503379
H       -1.68512286       0.11799835      -1.26988205
H       -1.51097694      -1.34590057       0.63017786
H       -2.30424857      -0.00444212       1.46421085
H       -0.43175505       1.50923776       0.79766695
H        0.15219649       0.12313758       1.75497686
H        1.10690774       1.55976211      -1.58327512
H        2.47009127       1.01914283      -0.51621859
H        1.55832952      -1.55040123       0.61056516
H        1.53724431      -1.56866095      -1.24804858
15
Frame=11 idx=000878 GeodesicLength=0.4381410196268516 rxn_smarts="[O:1]([C:2]([C:3]([N:4]1[C:5]([H:12])([H:13])[C:6]1([H:14])[H:15])([H:10])[H:11])([H:8])[H:9])[H:7]>>[O:1]([C:2]([C:3]([N+:4]([C-:5]([H:12])[H:13])=[C:6]([H:14])[H:15])([H:10])[H:11])([H:8])[H:9])[H:7]"
O       -2.32594565       0.17496743      -0.54125698
C       -1.65882506      -0.25535216       0.62030025
C       -0.30639646       0.41571801       0.80361236
N        0.52297941       0.02063489      -0.31621232
C        1.47353345       0.79723206      -0.90646065
C        1.38841972      -1.02855663      -0.31812356
H       -1.68869377       0.15531213      -1.26440211
H       -1.52022474      -1.34575409       0.61917663
H       -2.30045492      -0.00538511       1.46767916
H       -0.42265282       1.50034848       0.80147427
H        0.16089466       0.10339945       1.74361860
H        1.09430805       1.54799251      -1.58896194
H        2.45445828       1.03112466      -0.51721490
H        1.55925980      -1.53324733       0.62641517
H        1.56934004      -1.57843431      -1.22964398
15
Frame=12 idx=000878 GeodesicLength=0.4750960723732328 rxn_smarts="[O:1]([C:2]([C:3]([N:4]1[C:5]([H:12])([H:13])[C:6]1([H:14])[H:15])([H:10])[H:11])([H:8])[H:9])[H:7]>>[O:1]([C:2]([C:3]([N+:4]([C-:5]([H:12])[H:13])=[C:6]([H:14])[H:15])([H:10])[H:11])([H:8])[H:9])[H:7]"
O       -2.33139897       0.18825654      -0.53736178
C       -1.66166803      -0.25413760       0.61795674
C       -0.30329365       0.40615949       0.79883897
N        0.51184703       0.00601735      -0.33041331
C        1.46488692       0.78729822      -0.91302148
C        1.40076902      -1.02466849      -0.31141717
H       -1.69093921       0.19194928      -1.25839645
H       -1.52956630      -1.34542968       0.60874172
H       -2.29700130      -0.00582756       1.47058839
H       -0.41349375       1.49132564       0.80532630
H        0.16905055       0.08383315       1.73266650
H        1.08124827       1.53591973      -1.59450070
H        2.43865211       1.04279468      -0.51895520
H        1.56019302      -1.51644173       0.64125323
H        1.60071427      -1.58704902      -1.21130575
15
Frame=13 idx=000878 GeodesicLength=0.511931072345235 rxn_smarts="[O:1]([C:2]([C:3]([N:4]1[C:5]([H:12])([H:13])[C:6]1([H:14])[H:15])([H:10])[H:11])([H:8])[H:9])[H:7]>>[O:1]([C:2]([C:3]([N+:4]([C-:5]([H:12])[H:13])=[C:6]([H:14])[H:15])([H:10])[H:11])([H:8])[H:9])[H:7]"
O       -2.33593806       0.20123952      -0.53400608
C       -1.66445041      -0.25281964       0.61557024
C       -0.30019453       0.39653545       0.79430735
N        0.50114242      -0.00883054      -0.34378522
C        1.45607456       0.77741373      -0.91929535
C        1.41271619      -1.02055162      -0.30488730
H       -1.69194367       0.22804894      -1.25186738
H       -1.53903357      -1.34493355       0.59877617
H       -2.29387312      -0.00579244       1.47297729
H       -0.40425694       1.48214917       0.80927198
H        0.17669033       0.06435600       1.72210185
H        1.06769401       1.52350955      -1.59995899
H        2.42263542       1.05419947      -0.52140924
H        1.56122200      -1.49993122       0.65520723
H        1.63151536      -1.59459281      -1.19300255
15
Frame=14 idx=000878 GeodesicLength=0.548585596554873 rxn_smarts="[O:1]([C:2]([C:3]([N:4]1[C:5]([H:12])([H:13])[C:6]1([H:14])[H:15])([H:10])[H:11])([H:8])[H:9])[H:7]>>[O:1]([C:2]([C:3]([N+:4]([C-:5]([H:12])[H:13])=[C:6]([H:14])[H:15])([H:10])[H:11])([H:8])[H:9])[H:7]"
O       -2.33961479       0.21375163      -0.53122128
C       -1.66716324      -0.25140670       0.61317852
C       -0.29710103       0.38692502       0.79000042
N        0.49084656      -0.02380869      -0.35639300
C        1.44718563       0.76763834      -0.92524005
C        1.42422501      -1.01622387      -0.29861401
H       -1.69176418       0.26332094      -1.24487294
H       -1.54854612      -1.34429275       0.58942976
H       -2.29107770      -0.00521520       1.47487372
H       -0.39501346       1.47291019       0.81326150
H        0.18389920       0.04507378       1.71189428
H        1.05381906       1.51094118      -1.60520742
H        2.40651948       1.06530752      -0.52441839
H        1.56219891      -1.48382874       0.66821479
H        1.66158668      -1.60109266      -1.17488590
15
Frame=15 idx=000878 GeodesicLength=0.5852583836655219 rxn_smarts="[O:1]([C:2]([C:3]([N:4]1[C:5]([H:12])([H:13])[C:6]1([H:14])[H:15])([H:10])[H:11])([H:8])[H:9])[H:7]>>[O:1]([C:2]([C:3]([N+:4]([C-:5]([H:12])[H:13])=[C:6]([H:14])[H:15])([H:10])[H:11])([H:8])[H:9])[H:7]"
O       -2.34236595       0.22591916      -0.52897435
C       -1.66978249      -0.24988569       0.61077317
C       -0.29402013       0.37724646       0.78590978
N        0.48090309      -0.03895247      -0.36828780
C        1.43814611       0.75791560      -0.93092424
C        1.43528260      -1.01165752      -0.29255478
H       -1.69037594       0.29792821      -1.23740672
H       -1.55812721      -1.34345398       0.58061639
H       -2.28855240      -0.00413492       1.47630935
H       -0.38571320       1.46348320       0.81732991
H        0.19062988       0.02584271       1.70201489
H        1.03958497       1.49811859      -1.61032530
H        2.39016313       1.07611181      -0.52801269
H        1.56316352      -1.46798228       0.68041164
H        1.69106403      -1.60649887      -1.15687925
15
Frame=16 idx=000878 GeodesicLength=0.621847047800879 rxn_smarts="[O:1]([C:2]([C:3]([N:4]1[C:5]([H:12])([H:13])[C:6]1([H:14])[H:15])([H:10])[H:11])([H:8])[H:9])[H:7]>>[O:1]([C:2]([C:3]([N+:4]([C-:5]([H:12])[H:13])=[C:6]([H:14])[H:15])([H:10])[H:11])([H:8])[H:9])[H:7]"
O       -2.34432886       0.23770775      -0.52728301
C       -1.67235573      -0.24825532       0.60836216
C       -0.29095404       0.36755608       0.78204157
N        0.47129680      -0.05421678      -0.37951508
C        1.42901221       0.74828525      -0.93633647
C        1.44595526      -1.00691246      -0.28674523
H       -1.68791903       0.33175617      -1.22952112
H       -1.56778258      -1.34246799       0.57235068
H       -2.28634921      -0.00250494       1.47731053
H       -0.37639766       1.45397113       0.82150101
H        0.19696895       0.00671162       1.69246331
H        1.02504056       1.48515144      -1.61525870
H        2.37369321       1.08663910      -0.53210433
H        1.56417732      -1.45246612       0.69180909
H        1.71994279      -1.61095494      -1.13907440
