9
Frame=0 idx=006317 GeodesicLength=0.0 rxn_smarts="[O:1]=[c:2]1[n:3]([H:7])[c:4]([H:8])[c:5]([H:9])[o:6]1>>[O:1]=[C:2]1[N:3]([H:7])[C@:4]1([C:5](=[O:6])[H:9])[H:8]"
O        1.97878149      -0.36792088       1.28537357
C        1.35466516       0.10107878       0.45617647
N        0.73916372       0.82425021      -0.39018037
C       -0.66841664       0.58142947      -0.06984978
C       -1.00150937      -0.76916089      -0.05192882
O       -0.16740867      -1.67976901      -0.20226518
H        1.09195952       0.87673253      -1.34251181
H       -1.26343851       1.43888824       0.19096138
H       -2.06379670      -1.00552841       0.12422451
9
Frame=1 idx=006317 GeodesicLength=0.061792003683513244 rxn_smarts="[O:1]=[c:2]1[n:3]([H:7])[c:4]([H:8])[c:5]([H:9])[o:6]1>>[O:1]=[C:2]1[N:3]([H:7])[C@:4]1([C:5](=[O:6])[H:9])[H:8]"
O        1.98398836      -0.35829801       1.28567949
C        1.33192622       0.07679429       0.45554065
N        0.73860017       0.81330053      -0.40030728
C       -0.66323664       0.57869148      -0.06530158
C       -1.01115124      -0.76938471      -0.07365342
O       -0.16455782      -1.67661602      -0.19129454
H        1.10832730       0.90646025      -1.34108374
H       -1.26000683       1.43815514       0.18535645
H       -2.06388952      -1.00910295       0.14506396
9
Frame=2 idx=006317 GeodesicLength=0.12333178393972992 rxn_smarts="[O:1]=[c:2]1[n:3]([H:7])[c:4]([H:8])[c:5]([H:9])[o:6]1>>[O:1]=[C:2]1[N:3]([H:7])[C@:4]1([C:5](=[O:6])[H:9])[H:8]"
O        1.99069447      -0.34817080       1.28296995
C        1.31017023       0.05398349       0.45494767
N        0.73760754       0.80106129      -0.41119958
C       -0.65805000       0.57535116      -0.05971668
C       -1.02030541      -0.76995881      -0.08954021
O       -0.16271393      -1.67373518      -0.17764977
H        1.12396228       0.93629589      -1.33814849
H       -1.25606663       1.43724364       0.18017100
H       -2.06529854      -1.01207068       0.15816611
9
Frame=3 idx=006317 GeodesicLength=0.18466551263410608 rxn_smarts="[O:1]=[c:2]1[n:3]([H:7])[c:4]([H:8])[c:5]([H:9])[o:6]1>>[O:1]=[C:2]1[N:3]([H:7])[C@:4]1([C:5](=[O:6])[H:9])[H:8]"
O        1.99854099      -0.33750817       1.27757559
C        1.28943118       0.03245368       0.45425170
N        0.73628475       0.78737482      -0.42319526
C       -0.65275358       0.57147768      -0.05352924
C       -1.02895167      -0.77093072      -0.10066411
O       -0.16168404      -1.67138351      -0.16116035
H        1.13909116       0.96697345      -1.33354699
H       -1.25144221       1.43610582       0.17553796
H       -2.06851658      -1.01456305       0.16473071
9
Frame=4 idx=006317 GeodesicLength=0.24589116631360158 rxn_smarts="[O:1]=[c:2]1[n:3]([H:7])[c:4]([H:8])[c:5]([H:9])[o:6]1>>[O:1]=[C:2]1[N:3]([H:7])[C@:4]1([C:5](=[O:6])[H:9])[H:8]"
O        2.00674874      -0.32662895       1.27004702
C        1.26951347       0.01190369       0.45338696
N        0.73476092       0.77208281      -0.43666459
C       -0.64735488       0.56712417      -0.04758343
C       -1.03721553      -0.77233604      -0.10850997
O       -0.16135495      -1.66968530      -0.14247060
H        1.15419720       0.99949322      -1.32677025
H       -1.24616115       1.43474910       0.17096019
H       -2.07313382      -1.01670270       0.16760467
9
Frame=5 idx=006317 GeodesicLength=0.30677281370945353 rxn_smarts="[O:1]=[c:2]1[n:3]([H:7])[c:4]([H:8])[c:5]([H:9])[o:6]1>>[O:1]=[C:2]1[N:3]([H:7])[C@:4]1([C:5](=[O:6])[H:9])[H:8]"
O        2.01494139      -0.31538668       1.26017743
C        1.25031055      -0.00776568       0.45207096
N        0.73313861       0.75466179      -0.45188952
C       -0.64154263       0.56204860      -0.04223914
C       -1.04523516      -0.77420945      -0.11387828
O       -0.16211979      -1.66850228      -0.12121100
H        1.16903781       1.03479816      -1.31671357
H       -1.23965264       1.43280642       0.16591377
H       -2.07887813      -1.01845088       0.16776936
9
Frame=6 idx=006317 GeodesicLength=0.36774808571797324 rxn_smarts="[O:1]=[c:2]1[n:3]([H:7])[c:4]([H:8])[c:5]([H:9])[o:6]1>>[O:1]=[C:2]1[N:3]([H:7])[C@:4]1([C:5](=[O:6])[H:9])[H:8]"
O        2.02182664      -0.30424254       1.24928496
C        1.23164629      -0.02708676       0.44989697
N        0.73154527       0.73485212      -0.47009818
C       -0.63550559       0.55649492      -0.03891992
C       -1.05311447      -0.77679322      -0.11740083
O       -0.16360094      -1.66846825      -0.09882800
H        1.18432239       1.07432745      -1.30259770
H       -1.23205136       1.43084538       0.15999265
H       -2.08506824      -1.01992910       0.16867005
9
Frame=7 idx=006317 GeodesicLength=0.42831367824483724 rxn_smarts="[O:1]=[c:2]1[n:3]([H:7])[c:4]([H:8])[c:5]([H:9])[o:6]1>>[O:1]=[C:2]1[N:3]([H:7])[C@:4]1([C:5](=[O:6])[H:9])[H:8]"
O        2.02830566      -0.29312120       1.23623122
C        1.21383181      -0.04616298       0.44641361
N        0.73028272       0.71130492      -0.49205957
C       -0.62888409       0.54988510      -0.03783440
C       -1.06114183      -0.78007305      -0.11906768
O       -0.16641192      -1.66918611      -0.07331024
H        1.19911058       1.11992606      -1.28192581
H       -1.22285565       1.42819148       0.15200389
H       -2.09223729      -1.02076422       0.16954899
9
Frame=8 idx=006317 GeodesicLength=0.4890964457134029 rxn_smarts="[O:1]=[c:2]1[n:3]([H:7])[c:4]([H:8])[c:5]([H:9])[o:6]1>>[O:1]=[C:2]1[N:3]([H:7])[C@:4]1([C:5](=[O:6])[H:9])[H:8]"
O        2.03227756      -0.28169725       1.22236547
C        1.19628489      -0.06519142       0.44106090
N        0.72945803       0.68439052      -0.51853217
C       -0.62145507       0.54270382      -0.04041535
C       -1.06892091      -0.78396751      -0.11948428
O       -0.16973297      -1.67078083      -0.04758110
H        1.21246685       1.16988173      -1.25315516
H       -1.21150633       1.42551416       0.14206869
H       -2.09887205      -1.02085322       0.17367300
9
Frame=9 idx=006317 GeodesicLength=0.5492045084471225 rxn_smarts="[O:1]=[c:2]1[n:3]([H:7])[c:4]([H:8])[c:5]([H:9])[o:6]1>>[O:1]=[C:2]1[N:3]([H:7])[C@:4]1([C:5](=[O:6])[H:9])[H:8]"
O        2.03556593      -0.27111066       1.20779140
C        1.17952802      -0.08291695       0.43544238
N        0.72980513       0.65640426      -0.54727089
C       -0.61316191       0.53555034      -0.04521436
C       -1.07628034      -0.78771614      -0.11929120
O       -0.17287896      -1.67181932      -0.02292772
H        1.22135818       1.21900849      -1.21781594
H       -1.19908752       1.42294686       0.12972013
H       -2.10484852      -1.02034689       0.17956620
9
Frame=10 idx=006317 GeodesicLength=0.6096729310077752 rxn_smarts="[O:1]=[c:2]1[n:3]([H:7])[c:4]([H:8])[c:5]([H:9])[o:6]1>>[O:1]=[C:2]1[N:3]([H:7])[C@:4]1([C:5](=[O:6])[H:9])[H:8]"
O        2.03590390      -0.26027691       1.19473511
C        1.16240721      -0.09861810       0.43069946
N        0.73083838       0.63162778      -0.57401576
C       -0.60449706       0.52966923      -0.05089813
C       -1.08236299      -0.79030153      -0.11994568
O       -0.17398498      -1.67100640      -0.00546112
H        1.22626718       1.25774852      -1.18206744
H       -1.18659698       1.42094146       0.11843198
H       -2.10797467      -1.01978404       0.18852158
9
Frame=11 idx=006317 GeodesicLength=0.670018219308421 rxn_smarts="[O:1]=[c:2]1[n:3]([H:7])[c:4]([H:8])[c:5]([H:9])[o:6]1>>[O:1]=[C:2]1[N:3]([H:7])[C@:4]1([C:5](=[O:6])[H:9])[H:8]"
O        2.03531623      -0.25031537       1.18332782
C        1.14547262      -0.11197946       0.42807784
N        0.73237744       0.61108176      -0.59697874
C       -0.59594538       0.52516188      -0.05555494
C       -1.08743983      -0.79160954      -0.12127282
O       -0.17313596      -1.66822012       0.00621700
H        1.22794406       1.28605141      -1.15023502
H       -1.17526232       1.41944008       0.10873665
H       -2.10932686      -1.01961065       0.19768219
9
Frame=12 idx=006317 GeodesicLength=0.7304187586763072 rxn_smarts="[O:1]=[c:2]1[n:3]([H:7])[c:4]([H:8])[c:5]([H:9])[o:6]1>>[O:1]=[C:2]1[N:3]([H:7])[C@:4]1([C:5](=[O:6])[H:9])[H:8]"
O        2.03385407      -0.24072576       1.17315456
C        1.12865584      -0.12374499       0.42684684
N        0.73416250       0.59369305      -0.61707411
C       -0.58763416       0.52166498      -0.05941195
C       -1.09185159      -0.79209868      -0.12308689
O       -0.17093198      -1.66435660       0.01377895
H        1.22811781       1.30700327      -1.12179037
H       -1.16487288       1.41838993       0.10058551
H       -2.10949961      -1.01982519       0.20699746
9
Frame=13 idx=006317 GeodesicLength=0.7909210439178362 rxn_smarts="[O:1]=[c:2]1[n:3]([H:7])[c:4]([H:8])[c:5]([H:9])[o:6]1>>[O:1]=[C:2]1[N:3]([H:7])[C@:4]1([C:5](=[O:6])[H:9])[H:8]"
O        2.03174293      -0.23142197       1.16391782
C        1.11206481      -0.13436186       0.42656768
N        0.73607035       0.57845746      -0.63504332
C       -0.57946591       0.51883785      -0.06263248
C       -1.09578067      -0.79201245      -0.12512515
O       -0.16788395      -1.65981254       0.01868528
H        1.22716121       1.32298615      -1.09609339
H       -1.15503073       1.41763424       0.09366973
H       -2.10887804      -1.02030689       0.21605383
9
Frame=14 idx=006317 GeodesicLength=0.851570166537212 rxn_smarts="[O:1]=[c:2]1[n:3]([H:7])[c:4]([H:8])[c:5]([H:9])[o:6]1>>[O:1]=[C:2]1[N:3]([H:7])[C@:4]1([C:5](=[O:6])[H:9])[H:8]"
O        2.02904771      -0.22256445       1.15518224
C        1.09550224      -0.14391576       0.42712276
N        0.73801858       0.56500173      -0.65120960
C       -0.57153229       0.51655228      -0.06529955
C       -1.09931370      -0.79146781      -0.12726272
O       -0.16414706      -1.65471224       0.02145323
H        1.22584011       1.33512379      -1.07263302
H       -1.14587893       1.41708469       0.08754009
H       -2.10753666      -1.02110222       0.22510657
9
Frame=15 idx=006317 GeodesicLength=0.912429706496802 rxn_smarts="[O:1]=[c:2]1[n:3]([H:7])[c:4]([H:8])[c:5]([H:9])[o:6]1>>[O:1]=[C:2]1[N:3]([H:7])[C@:4]1([C:5](=[O:6])[H:9])[H:8]"
O        2.02595103      -0.21387726       1.14699325
C        1.07921212      -0.15273158       0.42815926
N        0.73993326       0.55266797      -0.66605620
C       -0.56364854       0.51457340      -0.06756978
C       -1.10252486      -0.79055264      -0.12938414
O       -0.16003516      -1.64919973       0.02294001
H        1.22371599       1.34451149      -1.05094616
H       -1.13687356       1.41658125       0.08225839
H       -2.10573027      -1.02197290       0.23360537
9
Frame=16 idx=006317 GeodesicLength=0.9732329604154155 rxn_smarts="[O:1]=[c:2]1[n:3]([H:7])[c:4]([H:8])[c:5]([H:9])[o:6]1>>[O:1]=[C:2]1[N:3]([H:7])[C@:4]1([C:5](=[O:6])[H:9])[H:8]"
O        2.02253321      -0.20545207       1.13924264
C        1.06314989      -0.16087982       0.42964743
N        0.74188522       0.54141999      -0.67977510
C       -0.55593083       0.51293812      -0.06946477
C       -1.10552541      -0.78940081      -0.13143271
O       -0.15557579      -1.64351280       0.02334156
H        1.22139756       1.35171816      -1.03099391
H       -1.12825202       1.41628284       0.07770107
H       -2.10368181      -1.02311362       0.24173378
