8
Frame=0 idx=000357 GeodesicLength=0.0 rxn_smarts="[n:1]1([H:6])[c:2]([H:7])[c:3]([H:8])[n:4][n:5]1>>[N:1](=[N:5][N:4]=[C:3]=[C:2]([H:7])[H:8])[H:6]"
N       -1.52452773      -0.32302696       0.14167578
C        0.74388904       1.23356216      -0.33081261
C        0.84415279      -0.04184620      -0.06575627
N        0.49551689      -1.26444899      -0.01585388
N       -0.91090355      -1.37590827      -0.01661344
H       -2.51877720      -0.55290702       0.08841931
H        0.90220952       2.00525303       0.41752643
H        1.96844024       0.31932225      -0.21858531
8
Frame=1 idx=000357 GeodesicLength=0.06822207901717704 rxn_smarts="[n:1]1([H:6])[c:2]([H:7])[c:3]([H:8])[n:4][n:5]1>>[N:1](=[N:5][N:4]=[C:3]=[C:2]([H:7])[H:8])[H:6]"
N       -1.50958877      -0.31173360       0.13328853
C        0.71792897       1.20848755      -0.31203788
C        0.86200005      -0.05879792      -0.02103773
N        0.49513128      -1.27776649      -0.01865714
N       -0.90784382      -1.37585404      -0.01898447
H       -2.50731036      -0.52431550       0.08274334
H        0.87748164       2.00292954       0.41105615
H        1.97220103       0.33705046      -0.25637080
8
Frame=2 idx=000357 GeodesicLength=0.1368433233981941 rxn_smarts="[n:1]1([H:6])[c:2]([H:7])[c:3]([H:8])[n:4][n:5]1>>[N:1](=[N:5][N:4]=[C:3]=[C:2]([H:7])[H:8])[H:6]"
N       -1.49426364      -0.30033411       0.12584945
C        0.69416702       1.18389409      -0.29473034
C        0.87983568      -0.07561326       0.01354247
N        0.49509056      -1.28964770      -0.01699100
N       -0.90441875      -1.37526250      -0.02174972
H       -2.49524815      -0.49558785       0.07762453
H        0.85154224       1.99753769       0.40663664
H        1.97329503       0.35501364      -0.29018204
8
Frame=3 idx=000357 GeodesicLength=0.20551272060895007 rxn_smarts="[n:1]1([H:6])[c:2]([H:7])[c:3]([H:8])[n:4][n:5]1>>[N:1](=[N:5][N:4]=[C:3]=[C:2]([H:7])[H:8])[H:6]"
N       -1.47813739      -0.28901808       0.12151665
C        0.67215786       1.15966054      -0.27924658
C        0.89707007      -0.09253153       0.04009343
N        0.49500116      -1.30099015      -0.01420075
N       -0.90058088      -1.37431654      -0.02384589
H       -2.48181978      -0.46596167       0.07167239
H        0.82409183       1.98965111       0.40291983
H        1.97221713       0.37350634      -0.31890908
8
Frame=4 idx=000357 GeodesicLength=0.2743662911404009 rxn_smarts="[n:1]1([H:6])[c:2]([H:7])[c:3]([H:8])[n:4][n:5]1>>[N:1](=[N:5][N:4]=[C:3]=[C:2]([H:7])[H:8])[H:6]"
N       -1.46228339      -0.27822840       0.11885929
C        0.65143605       1.13609619      -0.26388278
C        0.91406926      -0.10874528       0.06199000
N        0.49510108      -1.31163069      -0.00657892
N       -0.89657838      -1.37313045      -0.02707555
H       -2.46831113      -0.43674460       0.06411464
H        0.79744842       1.98032735       0.40101713
H        1.96911809       0.39205588      -0.34844380
8
Frame=5 idx=000357 GeodesicLength=0.3432836455884434 rxn_smarts="[n:1]1([H:6])[c:2]([H:7])[c:3]([H:8])[n:4][n:5]1>>[N:1](=[N:5][N:4]=[C:3]=[C:2]([H:7])[H:8])[H:6]"
N       -1.44638236      -0.26797317       0.11876514
C        0.63210574       1.11303581      -0.24941350
C        0.93059744      -0.12466021       0.07966065
N        0.49493919      -1.32205196       0.00264489
N       -0.89252829      -1.37191333      -0.03032833
H       -2.45416292      -0.40745274       0.05510323
H        0.77096450       1.96996715       0.39974751
H        1.96446671       0.41104845      -0.37617959
8
Frame=6 idx=000357 GeodesicLength=0.41230457998581854 rxn_smarts="[n:1]1([H:6])[c:2]([H:7])[c:3]([H:8])[n:4][n:5]1>>[N:1](=[N:5][N:4]=[C:3]=[C:2]([H:7])[H:8])[H:6]"
N       -1.43075114      -0.25803612       0.11895762
C        0.61407377       1.09040523      -0.23541108
C        0.94675762      -0.14007530       0.09437384
N        0.49465995      -1.33203153       0.01400558
N       -0.88834240      -1.37049667      -0.03425016
H       -2.43985753      -0.37864980       0.04617285
H        0.74500275       1.95876797       0.39912846
H        1.95845698       0.43011623      -0.40297711
8
Frame=7 idx=000357 GeodesicLength=0.4813260435176643 rxn_smarts="[n:1]1([H:6])[c:2]([H:7])[c:3]([H:8])[n:4][n:5]1>>[N:1](=[N:5][N:4]=[C:3]=[C:2]([H:7])[H:8])[H:6]"
N       -1.41546277      -0.24857903       0.11993621
C        0.59731058       1.06826220      -0.22178458
C        0.96256746      -0.15503305       0.10654246
N        0.49407897      -1.34167758       0.02698542
N       -0.88418486      -1.36910206      -0.03837718
H       -2.42539922      -0.35036369       0.03666668
H        0.71985936       1.94705182       0.39909760
H        1.95123048       0.44944138      -0.42906661
8
Frame=8 idx=000357 GeodesicLength=0.5503977552661339 rxn_smarts="[n:1]1([H:6])[c:2]([H:7])[c:3]([H:8])[n:4][n:5]1>>[N:1](=[N:5][N:4]=[C:3]=[C:2]([H:7])[H:8])[H:6]"
N       -1.40038349      -0.23953869       0.12169379
C        0.58163402       1.04650015      -0.20863091
C        0.97792534      -0.16971846       0.11639313
N        0.49318035      -1.35102914       0.04097522
N       -0.87991538      -1.36768657      -0.04251489
H       -2.41047777      -0.32232880       0.02671979
H        0.69526017       1.93478972       0.39936161
H        1.94277676       0.46901179      -0.45399773
8
Frame=9 idx=000357 GeodesicLength=0.6194644970752036 rxn_smarts="[n:1]1([H:6])[c:2]([H:7])[c:3]([H:8])[n:4][n:5]1>>[N:1](=[N:5][N:4]=[C:3]=[C:2]([H:7])[H:8])[H:6]"
N       -1.38569563      -0.23072715       0.12256496
C        0.56718761       1.02518359      -0.19587739
C        0.99290161      -0.18404117       0.12443626
N        0.49190231      -1.35997496       0.05618257
N       -0.87564030      -1.36624677      -0.04700353
H       -2.39565697      -0.29514025       0.01763903
H        0.67148570       1.92223571       0.39992899
H        1.93351568       0.48871100      -0.47787089
8
Frame=10 idx=000357 GeodesicLength=0.6885170923494035 rxn_smarts="[n:1]1([H:6])[c:2]([H:7])[c:3]([H:8])[n:4][n:5]1>>[N:1](=[N:5][N:4]=[C:3]=[C:2]([H:7])[H:8])[H:6]"
N       -1.37136968      -0.22218071       0.12288429
C        0.55381773       1.00429865      -0.18330609
C        1.00754158      -0.19806850       0.13079410
N        0.49025137      -1.36849103       0.07271034
N       -0.87129436      -1.36481092      -0.05166987
H       -2.38086400      -0.26869722       0.00882909
H        0.64864597       1.90940243       0.40094585
H        1.92327139       0.50854730      -0.50118771
8
Frame=11 idx=000357 GeodesicLength=0.7575856035573351 rxn_smarts="[n:1]1([H:6])[c:2]([H:7])[c:3]([H:8])[n:4][n:5]1>>[N:1](=[N:5][N:4]=[C:3]=[C:2]([H:7])[H:8])[H:6]"
N       -1.35733948      -0.21385217       0.12285200
C        0.54145187       0.98375168      -0.17115098
C        1.02176741      -0.21195082       0.13548158
N        0.48819159      -1.37661432       0.08985613
N       -0.86689378      -1.36341461      -0.05616999
H       -2.36599129      -0.24285166       0.00034033
H        0.62653868       1.89625996       0.40208924
H        1.91227500       0.52867194      -0.52329830
8
Frame=12 idx=000357 GeodesicLength=0.8265882786177225 rxn_smarts="[n:1]1([H:6])[c:2]([H:7])[c:3]([H:8])[n:4][n:5]1>>[N:1](=[N:5][N:4]=[C:3]=[C:2]([H:7])[H:8])[H:6]"
N       -1.34364295      -0.20570826       0.12190785
C        0.53012493       0.96358588      -0.15914291
C        1.03565983      -0.22565525       0.13863210
N        0.48567633      -1.38420509       0.10802025
N       -0.86247378      -1.36205483      -0.06050165
H       -2.35125006      -0.21785328      -0.00776999
H        0.60539380       1.88286407       0.40364644
H        1.90051190       0.54902675      -0.54479209
8
Frame=13 idx=000357 GeodesicLength=0.8955848556528806 rxn_smarts="[n:1]1([H:6])[c:2]([H:7])[c:3]([H:8])[n:4][n:5]1>>[N:1](=[N:5][N:4]=[C:3]=[C:2]([H:7])[H:8])[H:6]"
N       -1.33024336      -0.19775186       0.12044228
C        0.51967263       0.94380806      -0.14704903
C        1.04928818      -0.23927731       0.14012926
N        0.48280968      -1.39127734       0.12730623
N       -0.85796617      -1.36085036      -0.06411594
H       -2.33648048      -0.19345719      -0.01645001
H        0.58529950       1.86914311       0.40603234
H        1.88762002       0.56966290      -0.56629513
8
Frame=14 idx=000357 GeodesicLength=0.9645628136525098 rxn_smarts="[n:1]1([H:6])[c:2]([H:7])[c:3]([H:8])[n:4][n:5]1>>[N:1](=[N:5][N:4]=[C:3]=[C:2]([H:7])[H:8])[H:6]"
N       -1.31711895      -0.18999800       0.11864738
C        0.51003738       0.92440344      -0.13472127
C        1.06270090      -0.25291863       0.13977510
N        0.47962439      -1.39780541       0.14780522
N       -0.85338364      -1.35988555      -0.06663747
H       -2.32157272      -0.16952963      -0.02626997
H        0.56630145       1.85506845       0.40952623
H        1.87341118       0.59066533      -0.58812523
8
Frame=15 idx=000357 GeodesicLength=1.0336151566765939 rxn_smarts="[n:1]1([H:6])[c:2]([H:7])[c:3]([H:8])[n:4][n:5]1>>[N:1](=[N:5][N:4]=[C:3]=[C:2]([H:7])[H:8])[H:6]"
N       -1.30416421      -0.18237952       0.11601467
C        0.50125381       0.90539738      -0.12184404
C        1.07586522      -0.26661512       0.13747489
N        0.47607499      -1.40360766       0.16992096
N       -0.84867682      -1.35915871      -0.06784866
H       -2.30640657      -0.14618277      -0.03744557
H        0.54862146       1.84055670       0.41456527
H        1.85743213       0.61198971      -0.61083753
8
Frame=16 idx=000357 GeodesicLength=1.102690244383668 rxn_smarts="[n:1]1([H:6])[c:2]([H:7])[c:3]([H:8])[n:4][n:5]1>>[N:1](=[N:5][N:4]=[C:3]=[C:2]([H:7])[H:8])[H:6]"
N       -1.29140633      -0.17487141       0.11285560
C        0.49328455       0.88665778      -0.10885999
C        1.08868445      -0.28047019       0.13321444
N        0.47226690      -1.40870833       0.19281288
N       -0.84398891      -1.35872413      -0.06747461
H       -2.29102667      -0.12329338      -0.04974394
H        0.53201138       1.82560829       0.42064344
H        1.84017463       0.63380139      -0.63344782
