10
Frame=0 idx=001752 GeodesicLength=0.0 rxn_smarts="[C:1]([n:2]1[n:3][c:4]([H:10])[n:5][n:6]1)([H:7])([H:8])[H:9]>>[C:1]([N:2]=[N:6][N:5]=[C:4]=[N:3][H:10])([H:7])([H:8])[H:9]"
C       -1.46816438       0.01897533       0.07561379
N       -0.03782896      -0.10481722      -0.09557347
N        0.87365753       0.26805107       0.82175964
C        2.09892918      -0.08145153       0.27453380
N        1.80694041      -0.66936922      -0.94771431
N        0.52838320      -0.72319123      -1.09371769
H       -1.78981082      -0.56255188       0.93807284
H       -1.93729607      -0.36039384      -0.82794769
H       -1.72652303       1.06643861       0.22113820
H        1.65171293       1.14830991       0.63383487
10
Frame=1 idx=001752 GeodesicLength=0.13412618317429773 rxn_smarts="[C:1]([n:2]1[n:3][c:4]([H:10])[n:5][n:6]1)([H:7])([H:8])[H:9]>>[C:1]([N:2]=[N:6][N:5]=[C:4]=[N:3][H:10])([H:7])([H:8])[H:9]"
C       -1.47982976       0.01199861       0.07150309
N       -0.04676575      -0.08808182      -0.09408908
N        0.90277972       0.30473853       0.82783710
C        2.10284511      -0.08435384       0.27198213
N        1.79720907      -0.71073307      -0.91933399
N        0.51682202      -0.70863946      -1.08906397
H       -1.80379606      -0.59999419       0.91185883
H       -1.94087411      -0.34328345      -0.84622426
H       -1.75708000       1.04964175       0.24878290
H        1.70868976       1.16870694       0.61674726
10
Frame=2 idx=001752 GeodesicLength=0.2681534227218649 rxn_smarts="[C:1]([n:2]1[n:3][c:4]([H:10])[n:5][n:6]1)([H:7])([H:8])[H:9]>>[C:1]([N:2]=[N:6][N:5]=[C:4]=[N:3][H:10])([H:7])([H:8])[H:9]"
C       -1.49189638       0.00459873       0.06724662
N       -0.05645489      -0.07231425      -0.09171480
N        0.93332462       0.34282532       0.83318853
C        2.10641052      -0.08664864       0.26931739
N        1.78498553      -0.75120348      -0.88859424
N        0.50579131      -0.69329503      -1.08394919
H       -1.81811794      -0.63775058       0.88385031
H       -1.94456657      -0.32522399      -0.86435702
H       -1.78750187       1.03107723       0.27664814
H        1.76802568       1.18793470       0.59836426
10
Frame=3 idx=001752 GeodesicLength=0.4021659798714394 rxn_smarts="[C:1]([n:2]1[n:3][c:4]([H:10])[n:5][n:6]1)([H:7])([H:8])[H:9]>>[C:1]([N:2]=[N:6][N:5]=[C:4]=[N:3][H:10])([H:7])([H:8])[H:9]"
C       -1.50447041      -0.00316398       0.06280960
N       -0.06694654      -0.05776331      -0.08825326
N        0.96544739       0.38223972       0.83768814
C        2.10971679      -0.08823290       0.26647709
N        1.77059990      -0.78940602      -0.85616491
N        0.49516651      -0.67862803      -1.07750881
H       -1.83320415      -0.67569147       0.85383853
H       -1.94836265      -0.30590737      -0.88242767
H       -1.81775277       1.01078572       0.30475972
H        1.82980592       1.20576764       0.57878157
10
Frame=4 idx=001752 GeodesicLength=0.5361252576314063 rxn_smarts="[C:1]([n:2]1[n:3][c:4]([H:10])[n:5][n:6]1)([H:7])([H:8])[H:9]>>[C:1]([N:2]=[N:6][N:5]=[C:4]=[N:3][H:10])([H:7])([H:8])[H:9]"
C       -1.51760533      -0.01123411       0.05820002
N       -0.07827357      -0.04508148      -0.08330090
N        0.99929254       0.42233993       0.84144130
C        2.11292918      -0.08875682       0.26312772
N        1.75465711      -0.82403965      -0.82300889
N        0.48469636      -0.66558426      -1.06924168
H       -1.84958965      -0.71313586       0.82200393
H       -1.95222571      -0.28555059      -0.90024463
H       -1.84752962       0.98906183       0.33248117
H        1.89364871       1.22198100       0.55854196
10
Frame=5 idx=001752 GeodesicLength=0.6700598214096838 rxn_smarts="[C:1]([n:2]1[n:3][c:4]([H:10])[n:5][n:6]1)([H:7])([H:8])[H:9]>>[C:1]([N:2]=[N:6][N:5]=[C:4]=[N:3][H:10])([H:7])([H:8])[H:9]"
C       -1.53143166      -0.01966648       0.05345302
N       -0.09050061      -0.03442514      -0.07663393
N        1.03493579       0.46354661       0.84406998
C        2.11604609      -0.08820546       0.25948914
N        1.73763704      -0.85513008      -0.78903668
N        0.47424189      -0.65427109      -1.05896562
H       -1.86760540      -0.75035640       0.78800272
H       -1.95610906      -0.26373846      -0.91785362
H       -1.87705884       0.96573538       0.36018364
H        1.95984475       1.23651114       0.53729134
10
Frame=6 idx=001752 GeodesicLength=0.8039431962659332 rxn_smarts="[C:1]([n:2]1[n:3][c:4]([H:10])[n:5][n:6]1)([H:7])([H:8])[H:9]>>[C:1]([N:2]=[N:6][N:5]=[C:4]=[N:3][H:10])([H:7])([H:8])[H:9]"
C       -1.54605310      -0.02850139       0.04861898
N       -0.10368291      -0.02614627      -0.06787573
N        1.07244815       0.50575024       0.84548500
C        2.11919028      -0.08644661       0.25545425
N        1.72004440      -0.88251618      -0.75455699
N        0.46366407      -0.64446842      -1.04672005
H       -1.88758102      -0.78705061       0.75193038
H       -1.95995421      -0.24070822      -0.93506030
H       -1.90645571       0.94090223       0.38748655
H        2.02838006       1.24918521       0.51523792
10
Frame=7 idx=001752 GeodesicLength=0.9378014656920616 rxn_smarts="[C:1]([n:2]1[n:3][c:4]([H:10])[n:5][n:6]1)([H:7])([H:8])[H:9]>>[C:1]([N:2]=[N:6][N:5]=[C:4]=[N:3][H:10])([H:7])([H:8])[H:9]"
C       -1.56156962      -0.03784180       0.04373019
N       -0.11789009      -0.02041773      -0.05670540
N        1.11190983       0.54959627       0.84504402
C        2.12225484      -0.08341445       0.25128959
N        1.70211955      -0.90644406      -0.71922766
N        0.45286551      -0.63601478      -1.03234514
H       -1.90979727      -0.82358009       0.71324396
H       -1.96359919      -0.21594748      -0.95186883
H       -1.93599204       0.91422569       0.41484705
H        2.09969847       1.25983844       0.49199221
10
Frame=8 idx=001752 GeodesicLength=1.0716273486639334 rxn_smarts="[C:1]([n:2]1[n:3][c:4]([H:10])[n:5][n:6]1)([H:7])([H:8])[H:9]>>[C:1]([N:2]=[N:6][N:5]=[C:4]=[N:3][H:10])([H:7])([H:8])[H:9]"
C       -1.57806296      -0.04773887       0.03883140
N       -0.13318530      -0.01739354      -0.04282248
N        1.15333596       0.59514768       0.84247828
C        2.12530802      -0.07899540       0.24690564
N        1.68418763      -0.92692979      -0.68319074
N        0.44176750      -0.62855470      -1.01591179
H       -1.93435012      -0.85970939       0.67198028
H       -1.96695545      -0.18969986      -0.96803894
H       -1.96595680       0.88570304       0.44193199
H        2.17391152       1.26817084       0.46783636
10
Frame=9 idx=001752 GeodesicLength=1.2053616254818766 rxn_smarts="[C:1]([n:2]1[n:3][c:4]([H:10])[n:5][n:6]1)([H:7])([H:8])[H:9]>>[C:1]([N:2]=[N:6][N:5]=[C:4]=[N:3][H:10])([H:7])([H:8])[H:9]"
C       -1.59558233      -0.05827129       0.03395641
N       -0.14964236      -0.01719810      -0.02591261
N        1.19669909       0.64300081       0.83695810
C        2.12825746      -0.07300759       0.24249744
N        1.66642840      -0.94419301      -0.64600086
N        0.43031346      -0.62204593      -0.99713575
H       -1.96135463      -0.89572543       0.62743079
H       -1.96978255      -0.16131273      -0.98345992
H       -1.99664892       0.85489287       0.46922174
H        2.25131238       1.27386041       0.44244465
10
Frame=10 idx=001752 GeodesicLength=1.3389993534164324 rxn_smarts="[C:1]([n:2]1[n:3][c:4]([H:10])[n:5][n:6]1)([H:7])([H:8])[H:9]>>[C:1]([N:2]=[N:6][N:5]=[C:4]=[N:3][H:10])([H:7])([H:8])[H:9]"
C       -1.61414193      -0.06947456       0.02914681
N       -0.16732681      -0.01966280      -0.00599949
N        1.24191268       0.69315854       0.82811768
C        2.13105773      -0.06538518       0.23790878
N        1.64900747      -0.95812410      -0.60800234
N        0.41843026      -0.61598039      -0.97629909
H       -1.99041444      -0.93113806       0.58008693
H       -1.97212469      -0.13160056      -0.99771130
H       -2.02848062       0.82190547       0.49598514
H        2.33208034       1.27630163       0.41676689
10
Frame=11 idx=001752 GeodesicLength=1.4725839974715713 rxn_smarts="[C:1]([n:2]1[n:3][c:4]([H:10])[n:5][n:6]1)([H:7])([H:8])[H:9]>>[C:1]([N:2]=[N:6][N:5]=[C:4]=[N:3][H:10])([H:7])([H:8])[H:9]"
C       -1.63370937      -0.08145147       0.02443256
N       -0.18637248      -0.02453960       0.01686952
N        1.28890450       0.74643544       0.81451209
C        2.13334594      -0.05594946       0.23350117
N        1.63182852      -0.96873355      -0.56871306
N        0.40600028      -0.61019036      -0.95318976
H       -2.02118636      -0.96615230       0.52938114
H       -1.97384190      -0.10023869      -1.01044937
H       -2.06177507       0.78614867       0.52255547
H        2.41680595       1.27467131       0.39110023
10
Frame=12 idx=001752 GeodesicLength=1.6061583673198847 rxn_smarts="[C:1]([n:2]1[n:3][c:4]([H:10])[n:5][n:6]1)([H:7])([H:8])[H:9]>>[C:1]([N:2]=[N:6][N:5]=[C:4]=[N:3][H:10])([H:7])([H:8])[H:9]"
C       -1.65427499      -0.09422870       0.01986157
N       -0.20686986      -0.03124698       0.04224966
N        1.33762118       0.80289745       0.79538252
C        2.13505447      -0.04450433       0.22905325
N        1.61489634      -0.97591993      -0.52832246
N        0.39297402      -0.60413837      -0.92819432
H       -2.05283867      -1.00036725       0.47602265
H       -1.97525208      -0.06819095      -1.02123645
H       -2.09696630       0.74769571       0.54827285
H        2.50565590       1.26800334       0.36691072
10
Frame=13 idx=001752 GeodesicLength=1.7393536661493454 rxn_smarts="[C:1]([n:2]1[n:3][c:4]([H:10])[n:5][n:6]1)([H:7])([H:8])[H:9]>>[C:1]([N:2]=[N:6][N:5]=[C:4]=[N:3][H:10])([H:7])([H:8])[H:9]"
C       -1.67567740      -0.10775168       0.01548453
N       -0.22876694      -0.03978220       0.07013616
N        1.38795548       0.86226237       0.77019385
C        2.13627415      -0.03059776       0.22403289
N        1.59839419      -0.97977908      -0.48662163
N        0.37943040      -0.59785024      -0.90120943
H       -2.08490459      -1.03356637       0.42002854
H       -1.97627424      -0.03530038      -1.02983067
H       -2.13404959       0.70655557       0.57304268
H        2.59761855       1.25580977       0.34474308
10
Frame=14 idx=001752 GeodesicLength=1.872804926232373 rxn_smarts="[C:1]([n:2]1[n:3][c:4]([H:10])[n:5][n:6]1)([H:7])([H:8])[H:9]>>[C:1]([N:2]=[N:6][N:5]=[C:4]=[N:3][H:10])([H:7])([H:8])[H:9]"
C       -1.69816362      -0.12212788       0.01138340
N       -0.25226002      -0.04906825       0.09959370
N        1.44030593       0.92499264       0.73751607
C        2.13706743      -0.01403895       0.21813828
N        1.58230875      -0.97993713      -0.44412991
N        0.36528257      -0.59045622      -0.87314320
H       -2.11633443      -1.06551459       0.36298738
H       -1.97805360      -0.00343863      -1.03601273
H       -2.17375574       0.66303141       0.59610561
H        2.69360273       1.23655761       0.32756139
10
Frame=15 idx=001752 GeodesicLength=2.0059079826179027 rxn_smarts="[C:1]([n:2]1[n:3][c:4]([H:10])[n:5][n:6]1)([H:7])([H:8])[H:9]>>[C:1]([N:2]=[N:6][N:5]=[C:4]=[N:3][H:10])([H:7])([H:8])[H:9]"
C       -1.72117490      -0.13746275       0.00773508
N       -0.27731245      -0.05896976       0.13034862
N        1.49480920       0.99160389       0.69422309
C        2.13663578       0.00577613       0.21069668
N        1.56593934      -0.97582786      -0.40077769
N        0.35016747      -0.58179944      -0.84369513
H       -2.14647465      -1.09629377       0.30505443
H       -1.98017352       0.02725890      -1.03908068
H       -2.21512320       0.61685659       0.61730709
H        2.79270692       1.20885807       0.31818850
10
Frame=16 idx=001752 GeodesicLength=2.138510861334224 rxn_smarts="[C:1]([n:2]1[n:3][c:4]([H:10])[n:5][n:6]1)([H:7])([H:8])[H:9]>>[C:1]([N:2]=[N:6][N:5]=[C:4]=[N:3][H:10])([H:7])([H:8])[H:9]"
C       -1.74447409      -0.15379769       0.00480610
N       -0.30374801      -0.06940757       0.16214152
N        1.55179471       1.06287171       0.63597581
C        2.13496035       0.02954955       0.20032334
N        1.54937905      -0.96721097      -0.35667219
N        0.33401329      -0.57215357      -0.81295549
H       -2.17479675      -1.12591855       0.24689278
H       -1.98279838       0.05695464      -1.03867403
H       -2.25776166       0.56791008       0.63697573
H        2.89343148       1.17120235       0.32118643
