16
Frame=0 idx=005942 GeodesicLength=0.0 rxn_smarts="[C:1]([C:2]([C:3]([H:11])([H:12])[H:13])([C:4]([C:5]#[C:6][H:16])([H:14])[H:15])[H:10])([H:7])([H:8])[H:9]>>[C:1]([C:2](=[C:3]([H:11])[H:13])[H:10])([H:7])([H:8])[H:9].[C:4](=[C:5]=[C:6]([H:12])[H:16])([H:14])[H:15]"
C       -1.45194784       0.35711220      -1.09949149
C       -0.86913991      -0.10073837       0.21620999
C       -0.30671858      -1.37634908       0.30755367
C        0.61560702       1.43030742       0.47104214
C        1.74382002       0.68227596       0.47021050
C        2.22222888      -0.47761385       0.42165860
H       -2.36483824      -0.20178372      -1.32320973
H       -0.74961167       0.17996735      -1.91717544
H       -1.70951367       1.41691648      -1.09603307
H       -1.37035276       0.27230692       1.10218669
H       -0.31543355      -2.00200756      -0.58086448
H        1.10929027      -1.14427760       0.33982027
H       -0.38428895      -1.91443951       1.24610336
H        0.38836299       2.02534142      -0.40700507
H        0.29320899       1.87152131       1.40888176
H        3.14932705      -1.01853930       0.44011232
16
Frame=1 idx=005942 GeodesicLength=0.10113388064770287 rxn_smarts="[C:1]([C:2]([C:3]([H:11])([H:12])[H:13])([C:4]([C:5]#[C:6][H:16])([H:14])[H:15])[H:10])([H:7])([H:8])[H:9]>>[C:1]([C:2](=[C:3]([H:11])[H:13])[H:10])([H:7])([H:8])[H:9].[C:4](=[C:5]=[C:6]([H:12])[H:16])([H:14])[H:15]"
C       -1.43397613       0.35129501      -1.11549566
C       -0.87694143      -0.09983435       0.21359849
C       -0.32556537      -1.37985287       0.32672600
C        0.61227634       1.43446117       0.49646898
C        1.74347795       0.68801349       0.45955781
C        2.22523237      -0.46926737       0.38336943
H       -2.33145886      -0.22034500      -1.36690940
H       -0.70743515       0.19053663      -1.91526819
H       -1.71137947       1.40620733      -1.11706508
H       -1.39660234       0.28113933       1.08582199
H       -0.39886875      -2.05188613      -0.52407096
H        1.10330024      -1.16791729       0.28343071
H       -0.35588560      -1.88240753       1.28781697
H        0.38400815       2.06172767      -0.35883613
H        0.30826366       1.85239500       1.45121435
H        3.16155439      -0.99426507       0.40964069
16
Frame=2 idx=005942 GeodesicLength=0.20158406797325062 rxn_smarts="[C:1]([C:2]([C:3]([H:11])([H:12])[H:13])([C:4]([C:5]#[C:6][H:16])([H:14])[H:15])[H:10])([H:7])([H:8])[H:9]>>[C:1]([C:2](=[C:3]([H:11])[H:13])[H:10])([H:7])([H:8])[H:9].[C:4](=[C:5]=[C:6]([H:12])[H:16])([H:14])[H:15]"
C       -1.41607161       0.34507283      -1.13085250
C       -0.88471600      -0.09911513       0.21098717
C       -0.34345188      -1.38291233       0.34468218
C        0.60932551       1.43818680       0.52111817
C        1.74295831       0.69401675       0.44935437
C        2.22688097      -0.46074376       0.34789087
H       -2.29680101      -0.23976189      -1.40907917
H       -0.66647048       0.20120464      -1.91240521
H       -1.71327399       1.39467671      -1.13819243
H       -1.42155649       0.28966090       1.06957135
H       -0.48016605      -2.09571272      -0.46412086
H        1.09492484      -1.19126252       0.22997773
H       -0.32704732      -1.85170452       1.32340840
H        0.38037695       2.09577783      -0.31117788
H        0.32337696       1.83312713       1.49135900
H        3.17171129      -0.97051072       0.37747881
16
Frame=3 idx=005942 GeodesicLength=0.30152387138665715 rxn_smarts="[C:1]([C:2]([C:3]([H:11])([H:12])[H:13])([C:4]([C:5]#[C:6][H:16])([H:14])[H:15])[H:10])([H:7])([H:8])[H:9]>>[C:1]([C:2](=[C:3]([H:11])[H:13])[H:10])([H:7])([H:8])[H:9].[C:4](=[C:5]=[C:6]([H:12])[H:16])([H:14])[H:15]"
C       -1.39792860       0.33841112      -1.14578418
C       -0.89248243      -0.09851956       0.20832940
C       -0.36082486      -1.38567093       0.36174154
C        0.60659993       1.44154031       0.54537284
C        1.74218668       0.70029923       0.44008765
C        2.22732079      -0.45199702       0.31498056
H       -2.26042040      -0.26013693      -1.45014738
H       -0.62616664       0.21200977      -1.90861575
H       -1.71500552       1.38223876      -1.15974038
H       -1.44559252       0.29803654       1.05319578
H       -0.55950280      -2.13385978      -0.40101207
H        1.08439470      -1.21474013       0.18040154
H       -0.29883330      -1.82247371       1.35374980
H        0.37750915       2.12780179      -0.26367654
H        0.33829047       1.81376006       1.52977636
H        3.18045537      -0.94669953       0.34134083
16
Frame=4 idx=005942 GeodesicLength=0.40111294139976295 rxn_smarts="[C:1]([C:2]([C:3]([H:11])([H:12])[H:13])([C:4]([C:5]#[C:6][H:16])([H:14])[H:15])[H:10])([H:7])([H:8])[H:9]>>[C:1]([C:2](=[C:3]([H:11])[H:13])[H:10])([H:7])([H:8])[H:9].[C:4](=[C:5]=[C:6]([H:12])[H:16])([H:14])[H:15]"
C       -1.37962717       0.33135954      -1.16030633
C       -0.90017132      -0.09803489       0.20555763
C       -0.37788023      -1.38827061       0.37784592
C        0.60409068       1.44455236       0.56924836
C        1.74124058       0.70687295       0.43162185
C        2.22683383      -0.44294600       0.28388668
H       -2.22232709      -0.28147253      -1.49007913
H       -0.58663508       0.22315453      -1.90398063
H       -1.71678613       1.36887662      -1.18164113
H       -1.46869548       0.30626912       1.03665942
H       -0.63724165      -2.16655180      -0.33506417
H        1.07207601      -1.23867474       0.13422722
H       -0.27142662      -1.79487853       1.37927864
H        0.37537737       2.15804017      -0.21629049
H        0.35309262       1.79430204       1.56661934
H        3.18807967      -0.92259823       0.30241682
16
Frame=5 idx=005942 GeodesicLength=0.500417786294586 rxn_smarts="[C:1]([C:2]([C:3]([H:11])([H:12])[H:13])([C:4]([C:5]#[C:6][H:16])([H:14])[H:15])[H:10])([H:7])([H:8])[H:9]>>[C:1]([C:2](=[C:3]([H:11])[H:13])[H:10])([H:7])([H:8])[H:9].[C:4](=[C:5]=[C:6]([H:12])[H:16])([H:14])[H:15]"
C       -1.36142314       0.32399074      -1.17435557
C       -0.90767276      -0.09766376       0.20259231
C       -0.39464526      -1.39081537       0.39276630
C        0.60186103       1.44724858       0.59257010
C        1.74024555       0.71381372       0.42335144
C        2.22573338      -0.43345389       0.25364849
H       -2.18280432      -0.30369092      -1.52857184
H       -0.54830962       0.23484453      -1.89864926
H       -1.71895298       1.35459168      -1.20367313
H       -1.49068201       0.31428184       1.02002884
H       -0.71351782      -2.19390911      -0.26665221
H        1.05830865      -1.26321467       0.09047884
H       -0.24467811      -1.76910193       1.40012942
H        0.37386081       2.18674661      -0.16904266
H        0.36810758       1.77464236       1.60190709
H        3.19456902      -0.89831039       0.26347183
16
Frame=6 idx=005942 GeodesicLength=0.5995229055438537 rxn_smarts="[C:1]([C:2]([C:3]([H:11])([H:12])[H:13])([C:4]([C:5]#[C:6][H:16])([H:14])[H:15])[H:10])([H:7])([H:8])[H:9]>>[C:1]([C:2](=[C:3]([H:11])[H:13])[H:10])([H:7])([H:8])[H:9].[C:4](=[C:5]=[C:6]([H:12])[H:16])([H:14])[H:15]"
C       -1.34325581       0.31629718      -1.18800718
C       -0.91496403      -0.09740087       0.19941760
C       -0.41128640      -1.39341379       0.40658162
C        0.59985324       1.44966493       0.61548280
C        1.73919781       0.72110101       0.41564680
C        2.22408813      -0.42351153       0.22453048
H       -2.14168305      -0.32683959      -1.56574532
H       -0.51106970       0.24716354      -1.89264069
H       -1.72155851       1.33929811      -1.22593598
H       -1.51166164       0.32211710       1.00323334
H       -0.78856336      -2.21598273      -0.19578413
H        1.04322224      -1.28854603       0.04879141
H       -0.21871178      -1.74525482       1.41671572
H        0.37308731       2.21400325      -0.12188990
H        0.38316507       1.75495876       1.63575905
H        3.20014048      -0.87365451       0.22384438
16
Frame=7 idx=005942 GeodesicLength=0.6984333978922683 rxn_smarts="[C:1]([C:2]([C:3]([H:11])([H:12])[H:13])([C:4]([C:5]#[C:6][H:16])([H:14])[H:15])[H:10])([H:7])([H:8])[H:9]>>[C:1]([C:2](=[C:3]([H:11])[H:13])[H:10])([H:7])([H:8])[H:9].[C:4](=[C:5]=[C:6]([H:12])[H:16])([H:14])[H:15]"
C       -1.32515806       0.30828569      -1.20129204
C       -0.92200780      -0.09724384       0.19600689
C       -0.42789138      -1.39613635       0.41928089
C        0.59804510       1.45181124       0.63801761
C        1.73811932       0.72874160       0.40846076
C        2.22199222      -0.41308349       0.19637366
H       -2.09894813      -0.35089776      -1.60154518
H       -0.47498669       0.26017690      -1.88601440
H       -1.72469354       1.32291765      -1.24846132
H       -1.53164866       0.32978136       0.98624950
H       -0.86237679      -2.23273347      -0.12252082
H        1.02690623      -1.31476123       0.00863160
H       -0.19351377      -1.72343005       1.42928226
H        0.37305069       2.23993614      -0.07476495
H        0.39829407       1.73524530       1.66827744
H        3.20481718      -0.84860969       0.18401812
16
Frame=8 idx=005942 GeodesicLength=0.7971856202531982 rxn_smarts="[C:1]([C:2]([C:3]([H:11])([H:12])[H:13])([C:4]([C:5]#[C:6][H:16])([H:14])[H:15])[H:10])([H:7])([H:8])[H:9]>>[C:1]([C:2](=[C:3]([H:11])[H:13])[H:10])([H:7])([H:8])[H:9].[C:4](=[C:5]=[C:6]([H:12])[H:16])([H:14])[H:15]"
C       -1.30710471       0.29994415      -1.21427031
C       -0.92880279      -0.09718339       0.19234838
C       -0.44459007      -1.39904007       0.43092856
C        0.59639428       1.45369425       0.66027335
C        1.73701354       0.73671490       0.40190399
C        2.21949414      -0.40217513       0.16921137
H       -2.05451191      -0.37585267      -1.63598700
H       -0.44003713       0.27389473      -1.87880086
H       -1.72836968       1.30535407      -1.27136508
H       -1.55072415       0.33732559       0.96902054
H       -0.93483516      -2.24408795      -0.04688523
H        1.00936146      -1.34196093      -0.03034243
H       -0.16914732      -1.70368506       1.43811515
H        0.37377163       2.26463639      -0.02756336
H        0.41344321       1.71551811       1.69960847
H        3.20864468      -0.82309696       0.14380448
16
Frame=9 idx=005942 GeodesicLength=0.8957932739308883 rxn_smarts="[C:1]([C:2]([C:3]([H:11])([H:12])[H:13])([C:4]([C:5]#[C:6][H:16])([H:14])[H:15])[H:10])([H:7])([H:8])[H:9]>>[C:1]([C:2](=[C:3]([H:11])[H:13])[H:10])([H:7])([H:8])[H:9].[C:4](=[C:5]=[C:6]([H:12])[H:16])([H:14])[H:15]"
C       -1.28928066       0.29130280      -1.22692964
C       -0.93534205      -0.09721144       0.18841119
C       -0.46140662      -1.40215214       0.44144095
C        0.59491985       1.45532746       0.68215641
C        1.73592296       0.74508688       0.39556376
C        2.21670571      -0.39070089       0.14253405
H       -2.00865553      -0.40156846      -1.66884039
H       -0.40652844       0.28833190      -1.87112015
H       -1.73273278       1.28657948      -1.29458784
H       -1.56885371       0.34475248       0.95158650
H       -1.00546327      -2.25000186       0.03090803
H        0.99058851      -1.37014524      -0.06878362
H       -0.14545918      -1.68608430       1.44325813
H        0.37514940       2.28824915       0.01978621
H        0.42881434       1.69566136       1.72976493
H        3.21162148      -0.79742718       0.10485149
16
Frame=10 idx=005942 GeodesicLength=0.9943085898132311 rxn_smarts="[C:1]([C:2]([C:3]([H:11])([H:12])[H:13])([C:4]([C:5]#[C:6][H:16])([H:14])[H:15])[H:10])([H:7])([H:8])[H:9]>>[C:1]([C:2](=[C:3]([H:11])[H:13])[H:10])([H:7])([H:8])[H:9].[C:4](=[C:5]=[C:6]([H:12])[H:16])([H:14])[H:15]"
C       -1.27155069       0.28232625      -1.23935032
C       -0.94166081      -0.09731565       0.18421937
C       -0.47853395      -1.40550751       0.45101629
C        0.59354950       1.45671379       0.70384755
C        1.73480511       0.75379312       0.38979591
C        2.21358888      -0.37872131       0.11671207
H       -1.96116196      -0.42802935      -1.70021561
H       -0.37427972       0.30342537      -1.86294566
H       -1.73764724       1.26647154      -1.31833974
H       -1.58618436       0.35216620       0.93385646
H       -1.07400674      -2.25038432       0.11081231
H        0.97043636      -1.39945030      -0.10673323
H       -0.12263704      -1.67067031       1.44505611
H        0.37726583       2.31079181       0.06739605
H        0.44422013       1.67574659       1.75892348
H        3.21379672      -0.77135593       0.06594897
16
Frame=11 idx=005942 GeodesicLength=1.0927246364143228 rxn_smarts="[C:1]([C:2]([C:3]([H:11])([H:12])[H:13])([C:4]([C:5]#[C:6][H:16])([H:14])[H:15])[H:10])([H:7])([H:8])[H:9]>>[C:1]([C:2](=[C:3]([H:11])[H:13])[H:10])([H:7])([H:8])[H:9].[C:4](=[C:5]=[C:6]([H:12])[H:16])([H:14])[H:15]"
C       -1.25390626       0.27300583      -1.25155948
C       -0.94778991      -0.09747781       0.17977843
C       -0.49608392      -1.40908984       0.45976175
C        0.59224470       1.45784449       0.72539901
C        1.73363111       0.76282622       0.38455960
C        2.21013880      -0.36622948       0.09167433
H       -1.91205225      -0.45512753      -1.73004170
H       -0.34332267       0.31909447      -1.85430482
H       -1.74302807       1.24495197      -1.34271851
H       -1.60277913       0.35964572       0.91578946
H       -1.13997741      -2.24519364       0.19265131
H        0.94874387      -1.42994219      -0.14445180
H       -0.10071223      -1.65744036       1.44369760
H        0.38008913       2.33231221       0.11538746
H        0.45965970       1.65570375       1.78718332
H        3.21514453      -0.74488382       0.02719404
16
Frame=12 idx=005942 GeodesicLength=1.1911011825282571 rxn_smarts="[C:1]([C:2]([C:3]([H:11])([H:12])[H:13])([C:4]([C:5]#[C:6][H:16])([H:14])[H:15])[H:10])([H:7])([H:8])[H:9]>>[C:1]([C:2](=[C:3]([H:11])[H:13])[H:10])([H:7])([H:8])[H:9].[C:4](=[C:5]=[C:6]([H:12])[H:16])([H:14])[H:15]"
C       -1.23632444       0.26333096      -1.26359179
C       -0.95378709      -0.09767308       0.17509509
C       -0.51418392      -1.41286806       0.46782529
C        0.59096757       1.45872554       0.74688658
C        1.73237847       0.77218344       0.37986087
C        2.20635533      -0.35322945       0.06740861
H       -1.86135266      -0.48275201      -1.75827031
H       -0.31365318       0.33522708      -1.84521434
H       -1.74874579       1.22196196      -1.36784834
H       -1.61873487       0.36729860       0.89732292
H       -1.20284700      -2.23447962       0.27621886
H        0.92530317      -1.46172034      -0.18211986
H       -0.07974278      -1.64636489       1.43938724
H        0.38359581       2.35286320       0.16390155
H        0.47511237       1.63547558       1.81465679
H        3.21565901      -0.71797891      -0.01151916
16
Frame=13 idx=005942 GeodesicLength=1.2894615566607497 rxn_smarts="[C:1]([C:2]([C:3]([H:11])([H:12])[H:13])([C:4]([C:5]#[C:6][H:16])([H:14])[H:15])[H:10])([H:7])([H:8])[H:9]>>[C:1]([C:2](=[C:3]([H:11])[H:13])[H:10])([H:7])([H:8])[H:9].[C:4](=[C:5]=[C:6]([H:12])[H:16])([H:14])[H:15]"
C       -1.21896854       0.25334425      -1.27543210
C       -0.95969376      -0.09788455       0.17016370
C       -0.53282893      -1.41678901       0.47523250
C        0.58972663       1.45938060       0.76820885
C        1.73103122       0.78196509       0.37529645
C        2.20227298      -0.33958905       0.04342950
H       -1.80944270      -0.51067410      -1.78470803
H       -0.28553985       0.35173899      -1.83580452
H       -1.75479885       1.19754232      -1.39366677
H       -1.63404174       0.37515902       0.87850214
H       -1.26187211      -2.21841887       0.36121185
H        0.89989800      -1.49479676      -0.22022178
H       -0.05954074      -1.63740891       1.43211002
H        0.38767952       2.37253271       0.21300974
H        0.49074770       1.61492450       1.84129920
H        3.21537119      -0.69102623      -0.04863076
16
Frame=14 idx=005942 GeodesicLength=1.3878630077079654 rxn_smarts="[C:1]([C:2]([C:3]([H:11])([H:12])[H:13])([C:4]([C:5]#[C:6][H:16])([H:14])[H:15])[H:10])([H:7])([H:8])[H:9]>>[C:1]([C:2](=[C:3]([H:11])[H:13])[H:10])([H:7])([H:8])[H:9].[C:4](=[C:5]=[C:6]([H:12])[H:16])([H:14])[H:15]"
C       -1.20161936       0.24299635      -1.28713281
C       -0.96557194      -0.09808203       0.16501410
C       -0.55221482      -1.42078948       0.48226090
C        0.58843970       1.45980231       0.78957471
C        1.72952477       0.79210296       0.37122651
C        2.19782392      -0.32538540       0.02014375
H       -1.75602584      -0.53886699      -1.80945334
H       -0.25870052       0.36847780      -1.82599198
H       -1.76087787       1.17156539      -1.42040133
H       -1.64884991       0.38337873       0.85919040
H       -1.31676747      -2.19704468       0.44751093
H        0.87219084      -1.52937083      -0.25861008
H       -0.04034190      -1.63052484       1.42215653
H        0.39239007       2.39127962       0.26287667
H        0.50635048       1.59405846       1.86730503
H        3.21424983      -0.66359736      -0.08566998
16
Frame=15 idx=005942 GeodesicLength=1.4863461488072989 rxn_smarts="[C:1]([C:2]([C:3]([H:11])([H:12])[H:13])([C:4]([C:5]#[C:6][H:16])([H:14])[H:15])[H:10])([H:7])([H:8])[H:9]>>[C:1]([C:2](=[C:3]([H:11])[H:13])[H:10])([H:7])([H:8])[H:9].[C:4](=[C:5]=[C:6]([H:12])[H:16])([H:14])[H:15]"
C       -1.18428108       0.23229418      -1.29870043
C       -0.97146391      -0.09824408       0.15964591
C       -0.57238573      -1.42479233       0.48902002
C        0.58707868       1.46000279       0.81099673
C        1.72781803       0.80265112       0.36753448
C        2.19300312      -0.31054152      -0.00259898
H       -1.70120747      -0.56719216      -1.83242241
H       -0.23317440       0.38533041      -1.81582671
H       -1.76683464       1.14401358      -1.44808671
H       -1.66319240       0.39202158       0.83935392
H       -1.36701765      -2.17049076       0.53494594
H        0.84184838      -1.56554690      -0.29751251
H       -0.02209795      -1.62566606       1.40955303
H        0.39766816       2.40912226       0.31361250
H        0.52194084       1.57278275       1.89270449
H        3.21229801      -0.63574487      -0.12221924
16
Frame=16 idx=005942 GeodesicLength=1.584979270009365 rxn_smarts="[C:1]([C:2]([C:3]([H:11])([H:12])[H:13])([C:4]([C:5]#[C:6][H:16])([H:14])[H:15])[H:10])([H:7])([H:8])[H:9]>>[C:1]([C:2](=[C:3]([H:11])[H:13])[H:10])([H:7])([H:8])[H:9].[C:4](=[C:5]=[C:6]([H:12])[H:16])([H:14])[H:15]"
C       -1.16694493       0.22124513      -1.31014397
C       -0.97741490      -0.09834853       0.15405566
C       -0.59338648      -1.42871975       0.49562230
C        0.58561193       1.46000128       0.83249753
C        1.72587058       0.81366884       0.36414908
C        2.18781255      -0.29497920      -0.02488745
H       -1.64506008      -0.59553444      -1.85354812
H       -0.20896891       0.40219293      -1.80535161
H       -1.77251586       1.11487324      -1.47675874
H       -1.67711117       0.40114726       0.81894810
H       -1.41212255      -2.13889165       0.62338948
H        0.80847585      -1.60346037      -0.33712097
H       -0.00477683      -1.62279610       1.39428460
H        0.40346264       2.42606842       0.36532007
H        0.53751757       1.55102299       1.91752225
H        3.20955061      -0.60749004      -0.15797819
