17
Frame=0 idx=010580 GeodesicLength=0.0 rxn_smarts="[C:1]([C@@:2]1([H:11])[C:3]([H:12])([H:13])[C@:4]1([C:5]([C:6]#[C:7][H:17])([H:15])[H:16])[H:14])([H:8])([H:9])[H:10]>>[C:1]([C:2](=[C:3]([H:12])[H:13])[C@@:4]1([H:14])[C:5]([H:15])([H:16])[C:6]1=[C:7]([H:11])[H:17])([H:8])([H:9])[H:10]"
C       -1.16200078       1.25514191       0.18806887
C       -0.94032638      -0.22352981       0.09805493
C       -1.35137470      -0.86444096      -1.08496184
C        0.26744931      -0.82380346      -0.50939558
C        1.48313308      -0.05519457      -0.75833301
C        1.80024540      -0.00797626       0.72241590
C        1.18088596      -0.13820402       1.84980841
H       -2.15907025       1.43984196       0.59179492
H       -0.43770119       1.73684255       0.84226844
H       -1.12274799       1.74353618      -0.79650853
H        0.07654380      -0.44366644       1.83488950
H       -1.45828971      -1.93923992      -1.16520033
H       -1.80793464      -0.30240301      -1.90007627
H        0.43613743      -1.86582146      -0.26317410
H        1.32876974       0.95581628      -1.13265877
H        2.25990183      -0.54732428      -1.33943768
H        1.60637909       0.08042530       2.82244508
17
Frame=1 idx=010580 GeodesicLength=0.10755849453717994 rxn_smarts="[C:1]([C@@:2]1([H:11])[C:3]([H:12])([H:13])[C@:4]1([C:5]([C:6]#[C:7][H:17])([H:15])[H:16])[H:14])([H:8])([H:9])[H:10]>>[C:1]([C:2](=[C:3]([H:12])[H:13])[C@@:4]1([H:14])[C:5]([H:15])([H:16])[C:6]1=[C:7]([H:11])[H:17])([H:8])([H:9])[H:10]"
C       -1.16309378       1.25552391       0.18420352
C       -0.94048443      -0.22455727       0.09926137
C       -1.35742609      -0.86884289      -1.08027955
C        0.27153710      -0.82148589      -0.50749490
C        1.48771973      -0.04758079      -0.75780681
C        1.79715164      -0.02255921       0.72112345
C        1.19482422      -0.14620575       1.85692114
H       -2.16843800       1.44210191       0.56576284
H       -0.45131167       1.73626772       0.85303495
H       -1.09824030       1.74788824      -0.79650154
H        0.05724074      -0.44322508       1.83137250
H       -1.47311399      -1.94323792      -1.15285978
H       -1.81550071      -0.30918826      -1.89566914
H        0.44313376      -1.86697581      -0.27759796
H        1.32924612       0.96501080      -1.12523165
H        2.26235147      -0.53869497      -1.34245535
H        1.62440419       0.08576128       2.82421692
17
Frame=2 idx=010580 GeodesicLength=0.2147948943415484 rxn_smarts="[C:1]([C@@:2]1([H:11])[C:3]([H:12])([H:13])[C@:4]1([C:5]([C:6]#[C:7][H:17])([H:15])[H:16])[H:14])([H:8])([H:9])[H:10]>>[C:1]([C:2](=[C:3]([H:12])[H:13])[C@@:4]1([H:14])[C:5]([H:15])([H:16])[C:6]1=[C:7]([H:11])[H:17])([H:8])([H:9])[H:10]"
C       -1.16445072       1.25605855       0.17990872
C       -0.94082713      -0.22541482       0.10033356
C       -1.36346889      -0.87335800      -1.07559815
C        0.27558489      -0.81906806      -0.50533410
C        1.49227745      -0.03982205      -0.75694045
C        1.79374777      -0.03639047       0.71991316
C        1.20906146      -0.15312813       1.86411547
H       -2.17760570       1.44447854       0.53906678
H       -0.46560926       1.73602846       0.86313844
H       -1.07423145       1.75209324      -0.79639760
H        0.03737374      -0.44258851       1.82786304
H       -1.48800603      -1.94724131      -1.14017082
H       -1.82283920      -0.31624492      -1.89148756
H        0.45002937      -1.86776161      -0.29172063
H        1.32966522       0.97414074      -1.11787451
H        2.26487151      -0.53002663      -1.34489215
H        1.64442697       0.08824498       2.82607682
17
Frame=3 idx=010580 GeodesicLength=0.3218304341443036 rxn_smarts="[C:1]([C@@:2]1([H:11])[C:3]([H:12])([H:13])[C@:4]1([C:5]([C:6]#[C:7][H:17])([H:15])[H:16])[H:14])([H:8])([H:9])[H:10]>>[C:1]([C:2](=[C:3]([H:12])[H:13])[C@@:4]1([H:14])[C:5]([H:15])([H:16])[C:6]1=[C:7]([H:11])[H:17])([H:8])([H:9])[H:10]"
C       -1.16595298       1.25663895       0.17539034
C       -0.94132775      -0.22620826       0.10126112
C       -1.36952642      -0.87790691      -1.07101149
C        0.27957928      -0.81664479      -0.50300638
C        1.49682811      -0.03204647      -0.75576001
C        1.79008602      -0.04979677       0.71876718
C        1.22374761      -0.15939431       1.87137401
H       -2.18643973       1.44685973       0.51194858
H       -0.48045147       1.73587275       0.87285345
H       -1.05057561       1.75619760      -0.79592271
H        0.01689918      -0.44221945       1.82430533
H       -1.50305562      -1.95114356      -1.12738312
H       -1.82995390      -0.32335620      -1.88754248
H        0.45676049      -1.86831081      -0.30576681
H        1.33009229       0.98313690      -1.11048697
H        2.26744665      -0.52141430      -1.34685392
H        1.66584386       0.08973593       2.82783388
17
Frame=4 idx=010580 GeodesicLength=0.42878591870948624 rxn_smarts="[C:1]([C@@:2]1([H:11])[C:3]([H:12])([H:13])[C@:4]1([C:5]([C:6]#[C:7][H:17])([H:15])[H:16])[H:14])([H:8])([H:9])[H:10]>>[C:1]([C:2](=[C:3]([H:12])[H:13])[C@@:4]1([H:14])[C:5]([H:15])([H:16])[C:6]1=[C:7]([H:11])[H:17])([H:8])([H:9])[H:10]"
C       -1.16755622       1.25722136       0.17073408
C       -0.94198451      -0.22698105       0.10203413
C       -1.37560768      -0.88245713      -1.06656845
C        0.28351127      -0.81425873      -0.50053543
C        1.50137521      -0.02430974      -0.75427140
C        1.78617653      -0.06289398       0.71768651
C        1.23899076      -0.16514460       1.87869780
H       -2.19489415       1.44920534       0.48449115
H       -0.49579754       1.73568647       0.88230077
H       -1.02719768       1.76023110      -0.79496168
H       -0.00427293      -0.44234274       1.82067446
H       -1.51830425      -1.95489411      -1.11461747
H       -1.83684063      -0.33043162      -1.88385167
H        0.46329927      -1.86867458      -0.31980102
H        1.33054555       0.99196449      -1.10303785
H        2.27006772      -0.51290381      -1.34837271
H        1.68848929       0.09098334       2.82939877
17
Frame=5 idx=010580 GeodesicLength=0.535597232666776 rxn_smarts="[C:1]([C@@:2]1([H:11])[C:3]([H:12])([H:13])[C@:4]1([C:5]([C:6]#[C:7][H:17])([H:15])[H:16])[H:14])([H:8])([H:9])[H:10]>>[C:1]([C:2](=[C:3]([H:12])[H:13])[C@@:4]1([H:14])[C:5]([H:15])([H:16])[C:6]1=[C:7]([H:11])[H:17])([H:8])([H:9])[H:10]"
C       -1.16926533       1.25780676       0.16593593
C       -0.94280878      -0.22773259       0.10264479
C       -1.38171382      -0.88701034      -1.06228097
C        0.28737671      -0.81191327      -0.49790411
C        1.50591239      -0.01661338      -0.75246636
C        1.78200456      -0.07565912       0.71668922
C        1.25484789      -0.17034231       1.88609555
H       -2.20297413       1.45151809       0.45667412
H       -0.51167129       1.73545903       0.89148700
H       -1.00408979       1.76420795      -0.79351567
H       -0.02622703      -0.44298880       1.81697269
H       -1.53375976      -1.95848515      -1.10189449
H       -1.84349595      -0.33747466      -1.88043210
H        0.46964678      -1.86884893      -0.33379199
H        1.33101385       1.00061842      -1.09553774
H        2.27273425      -0.50449984      -1.34943139
H        1.71246946       0.09195814       2.83075551
17
Frame=6 idx=010580 GeodesicLength=0.6424889767023458 rxn_smarts="[C:1]([C@@:2]1([H:11])[C:3]([H:12])([H:13])[C@:4]1([C:5]([C:6]#[C:7][H:17])([H:15])[H:16])[H:14])([H:8])([H:9])[H:10]>>[C:1]([C:2](=[C:3]([H:12])[H:13])[C@@:4]1([H:14])[C:5]([H:15])([H:16])[C:6]1=[C:7]([H:11])[H:17])([H:8])([H:9])[H:10]"
C       -1.17105190       1.25836439       0.16105829
C       -0.94381033      -0.22849539       0.10307901
C       -1.38784928      -0.89154018      -1.05820045
C        0.29116438      -0.80964542      -0.49511285
C        1.51043573      -0.00900438      -0.75034415
C        1.77756625      -0.08815865       0.71578359
C        1.27144961      -0.17505955       1.89357388
H       -2.21064683       1.45378258       0.42854279
H       -0.52805983       1.73509282       0.90051250
H       -0.98119087       1.76815364      -0.79148065
H       -0.04910565      -0.44435453       1.81317532
H       -1.54945444      -1.96187518      -1.08932698
H       -1.84990475      -0.34441210      -1.87731488
H        0.47577733      -1.86887226      -0.34775772
H        1.33150232       1.00906352      -1.08797256
H        2.27543480      -0.49624821      -1.35004240
H        1.73774346       0.09320889       2.83182727
17
Frame=7 idx=010580 GeodesicLength=0.7495041909079772 rxn_smarts="[C:1]([C@@:2]1([H:11])[C:3]([H:12])([H:13])[C@:4]1([C:5]([C:6]#[C:7][H:17])([H:15])[H:16])[H:14])([H:8])([H:9])[H:10]>>[C:1]([C:2](=[C:3]([H:12])[H:13])[C@@:4]1([H:14])[C:5]([H:15])([H:16])[C:6]1=[C:7]([H:11])[H:17])([H:8])([H:9])[H:10]"
C       -1.17291676       1.25888717       0.15611567
C       -0.94500736      -0.22927772       0.10332423
C       -1.39401354      -0.89603992      -1.05435713
C        0.29486555      -0.80746948      -0.49213787
C        1.51493541      -0.00149783      -0.74789323
C        1.77283900      -0.10037729       0.71499063
C        1.28889496      -0.17926146       1.90114038
H       -2.21790905       1.45600404       0.40008186
H       -0.54498845       1.73455130       0.90940592
H       -0.95848278       1.77208286      -0.78882040
H       -0.07303728      -0.44651861       1.80927286
H       -1.56540440      -1.96504514      -1.07697288
H       -1.85605155      -0.35122328      -1.87453017
H        0.48168276      -1.86875137      -0.36165868
H        1.33199855       1.01728111      -1.08035238
H        2.27816582      -0.48817064      -1.35018139
H        1.76442912       0.09482623       2.83257257
17
Frame=8 idx=010580 GeodesicLength=0.8567291676781175 rxn_smarts="[C:1]([C@@:2]1([H:11])[C:3]([H:12])([H:13])[C@:4]1([C:5]([C:6]#[C:7][H:17])([H:15])[H:16])[H:14])([H:8])([H:9])[H:10]>>[C:1]([C:2](=[C:3]([H:12])[H:13])[C@@:4]1([H:14])[C:5]([H:15])([H:16])[C:6]1=[C:7]([H:11])[H:17])([H:8])([H:9])[H:10]"
C       -1.17485488       1.25936085       0.15113757
C       -0.94641958      -0.23009643       0.10336615
C       -1.40020702      -0.90049502      -1.05079451
C        0.29846867      -0.80540848      -0.48895499
C        1.51940046       0.00587973      -0.74510184
C        1.76779756      -0.11231505       0.71433257
C        1.30730467      -0.18292817       1.90880219
H       -2.22474520       1.45819125       0.37128799
H       -0.56247974       1.73377476       0.91821931
H       -0.93593213       1.77601363      -0.78546582
H       -0.09817412      -0.44960582       1.80524631
H       -1.58162991      -1.96797173      -1.06491523
H       -1.86191539      -0.35786699      -1.87211569
H        0.48734750      -1.86850427      -0.37546011
H        1.33249298       1.02524291      -1.07268592
H        2.28091994      -0.48030179      -1.34982820
H        1.79262620       0.09703061       2.83293022
17
Frame=9 idx=010580 GeodesicLength=0.9651775769408947 rxn_smarts="[C:1]([C@@:2]1([H:11])[C:3]([H:12])([H:13])[C@:4]1([C:5]([C:6]#[C:7][H:17])([H:15])[H:16])[H:14])([H:8])([H:9])[H:10]>>[C:1]([C:2](=[C:3]([H:12])[H:13])[C@@:4]1([H:14])[C:5]([H:15])([H:16])[C:6]1=[C:7]([H:11])[H:17])([H:8])([H:9])[H:10]"
C       -1.17680580       1.25971256       0.14630807
C       -0.94808960      -0.23102407       0.10316171
C       -1.40641769      -0.90480867      -1.04767238
C        0.30192600      -0.80356291      -0.48553110
C        1.52380578       0.01299075      -0.74194687
C        1.76239619      -0.12415279       0.71383270
C        1.32706654      -0.18622931       1.91656658
H       -2.23109275       1.46032202       0.34228513
H       -0.58048517       1.73250635       0.92724642
H       -0.91341243       1.77996611      -0.78113884
H       -0.12491976      -0.45412650       1.80101544
H       -1.59817510      -1.97053771      -1.05348396
H       -1.86739898      -0.36410755      -1.87017489
H        0.49266960      -1.86825045      -0.38917928
H        1.33300247       1.03282812      -1.06491419
H        2.28365688      -0.47279782      -1.34896947
H        1.82227384       0.10127189       2.83259493
17
Frame=10 idx=010580 GeodesicLength=1.0738488420892895 rxn_smarts="[C:1]([C@@:2]1([H:11])[C:3]([H:12])([H:13])[C@:4]1([C:5]([C:6]#[C:7][H:17])([H:15])[H:16])[H:14])([H:8])([H:9])[H:10]>>[C:1]([C:2](=[C:3]([H:12])[H:13])[C@@:4]1([H:14])[C:5]([H:15])([H:16])[C:6]1=[C:7]([H:11])[H:17])([H:8])([H:9])[H:10]"
C       -1.17883603       1.25998923       0.14150334
C       -0.95003231      -0.23201933       0.10272135
C       -1.41264931      -0.90904454      -1.04493505
C        0.30525345      -0.80188160      -0.48181958
C        1.52814565       0.01991413      -0.73840984
C        1.75660405      -0.13566515       0.71354432
C        1.34808337      -0.18889049       1.92442207
H       -2.23699137       1.46243887       0.31293338
H       -0.59913706       1.73088278       0.93629621
H       -0.89099203       1.78393890      -0.77597007
H       -0.15322896      -0.45978739       1.79660455
H       -1.61503712      -1.97280067      -1.04254820
H       -1.87252915      -0.37008998      -1.86870491
H        0.49771850      -1.86790786      -0.40267142
H        1.33347775       1.04008639      -1.05712403
H        2.28640382      -0.46559286      -1.34753168
H        1.85374675       0.10642956       2.83168957
17
Frame=11 idx=010580 GeodesicLength=1.1826714276502872 rxn_smarts="[C:1]([C@@:2]1([H:11])[C:3]([H:12])([H:13])[C@:4]1([C:5]([C:6]#[C:7][H:17])([H:15])[H:16])[H:14])([H:8])([H:9])[H:10]>>[C:1]([C:2](=[C:3]([H:12])[H:13])[C@@:4]1([H:14])[C:5]([H:15])([H:16])[C:6]1=[C:7]([H:11])[H:17])([H:8])([H:9])[H:10]"
C       -1.18095247       1.26017968       0.13674904
C       -0.95227809      -0.23309562       0.10202991
C       -1.41889888      -0.91318454      -1.04263635
C        0.30843374      -0.80038680      -0.47777751
C        1.53240463       0.02662153      -0.73446645
C        1.75038209      -0.14682472       0.71351393
C        1.37049963      -0.19085301       1.93236107
H       -2.24243536       1.46454531       0.28322792
H       -0.61847950       1.72885084       0.94541712
H       -0.86864311       1.78794012      -0.76989385
H       -0.18327646      -0.46667537       1.79198932
H       -1.63223568      -1.97473227      -1.03220728
H       -1.87726920      -0.37577005      -1.86775956
H        0.50247955      -1.86749463      -0.41586457
H        1.33390173       1.04698180      -1.04932984
H        2.28915581      -0.45873405      -1.34546694
H        1.88721157       0.11263177       2.83011404
17
Frame=12 idx=010580 GeodesicLength=1.2916343312013352 rxn_smarts="[C:1]([C@@:2]1([H:11])[C:3]([H:12])([H:13])[C@:4]1([C:5]([C:6]#[C:7][H:17])([H:15])[H:16])[H:14])([H:8])([H:9])[H:10]>>[C:1]([C:2](=[C:3]([H:12])[H:13])[C@@:4]1([H:14])[C:5]([H:15])([H:16])[C:6]1=[C:7]([H:11])[H:17])([H:8])([H:9])[H:10]"
C       -1.18316818       1.26026883       0.13207836
C       -0.95486903      -0.23427107       0.10106737
C       -1.42515825      -0.91720710      -1.04084465
C        0.31144340      -0.79910667      -0.47334568
C        1.53655944       0.03307841      -0.73008426
C        1.74367148      -0.15758581       0.71380564
C        1.39448570      -0.19202414       1.94037952
H       -2.24741302       1.46666113       0.25314551
H       -0.63858118       1.72634147       0.95466401
H       -0.84633645       1.79197516      -0.76281455
H       -0.21528083      -0.47490893       1.78713157
H       -1.64979451      -1.97629635      -1.02259315
H       -1.88156410      -0.38109040      -1.86740679
H        0.50693265      -1.86703701      -0.42865898
H        1.33425005       1.05346834      -1.04155445
H        2.29190485      -0.45228277      -1.34270268
H        1.92291798       0.12001690       2.82773322
17
Frame=13 idx=010580 GeodesicLength=1.400615624857904 rxn_smarts="[C:1]([C@@:2]1([H:11])[C:3]([H:12])([H:13])[C@:4]1([C:5]([C:6]#[C:7][H:17])([H:15])[H:16])[H:14])([H:8])([H:9])[H:10]>>[C:1]([C:2](=[C:3]([H:12])[H:13])[C@@:4]1([H:14])[C:5]([H:15])([H:16])[C:6]1=[C:7]([H:11])[H:17])([H:8])([H:9])[H:10]"
C       -1.18546860       1.26022602       0.12756460
C       -0.95783650      -0.23558196       0.09981859
C       -1.43142700      -0.92107438      -1.03964031
C        0.31425866      -0.79808735      -0.46848426
C        1.54059518       0.03922467      -0.72523642
C        1.73642853      -0.16796469       0.71447342
C        1.42024184      -0.19240725       1.94844336
H       -2.25187532       1.46879654       0.22272757
H       -0.65946386       1.72324935       0.96413668
H       -0.82402532       1.79604682      -0.75458972
H       -0.24943041      -0.48465571       1.78198271
H       -1.66775490      -1.97744208      -1.01387150
H       -1.88536645      -0.38595266      -1.86771314
H        0.51104873      -1.86658322      -0.44100271
H        1.33451452       1.05948202      -1.03380306
H        2.29464435      -0.44632104      -1.33918949
H        1.96091653       0.12904492       2.82438368
17
Frame=14 idx=010580 GeodesicLength=1.5095828974234455 rxn_smarts="[C:1]([C@@:2]1([H:11])[C:3]([H:12])([H:13])[C@:4]1([C:5]([C:6]#[C:7][H:17])([H:15])[H:16])[H:14])([H:8])([H:9])[H:10]>>[C:1]([C:2](=[C:3]([H:12])[H:13])[C@@:4]1([H:14])[C:5]([H:15])([H:16])[C:6]1=[C:7]([H:11])[H:17])([H:8])([H:9])[H:10]"
C       -1.18787897       1.26004038       0.12323731
C       -0.96123672      -0.23704458       0.09826048
C       -1.43768919      -0.92476165      -1.03910862
C        0.31684928      -0.79735786      -0.46310435
C        1.54448046       0.04502359      -0.71987662
C        1.72856893      -0.17786895       0.71560765
C        1.44797465      -0.19185067       1.95653494
H       -2.25581398       1.47097701       0.19192973
H       -0.68123376       1.71950382       0.97388793
H       -0.80168958       1.80015428      -0.74510227
H       -0.28600051      -0.49602545       1.77648743
H       -1.68613991      -1.97812866      -1.00619981
H       -1.88859686      -0.39029402      -1.86876975
H        0.51480728      -1.86616164      -0.45273859
H        1.33465715       1.06496567      -1.02611962
H        2.29736679      -0.44092773      -1.33482065
H        2.00157495       0.13975645       2.81989483
17
Frame=15 idx=010580 GeodesicLength=1.6184200984050634 rxn_smarts="[C:1]([C@@:2]1([H:11])[C:3]([H:12])([H:13])[C@:4]1([C:5]([C:6]#[C:7][H:17])([H:15])[H:16])[H:14])([H:8])([H:9])[H:10]>>[C:1]([C:2](=[C:3]([H:12])[H:13])[C@@:4]1([H:14])[C:5]([H:15])([H:16])[C:6]1=[C:7]([H:11])[H:17])([H:8])([H:9])[H:10]"
C       -1.19040831       1.25968586       0.11916086
C       -0.96512397      -0.23869048       0.09637221
C       -1.44393166      -0.92822992      -1.03934967
C        0.31918118      -0.79696248      -0.45712327
C        1.54818559       0.05041814      -0.71395658
C        1.72000806      -0.18723985       0.71730376
C        1.47792433      -0.19026662       1.96460794
H       -2.25918893       1.47322858       0.16075513
H       -0.70397010       1.71500566       0.98400047
H       -0.77929801       1.80429226      -0.73419177
H       -0.32525575      -0.50916748       1.77057730
H       -1.70498341      -1.97830275      -0.99977512
H       -1.89117281      -0.39401521      -1.87067240
H        0.51817992      -1.86582121      -0.46373042
H        1.33464801       1.06984326      -1.01853701
H        2.30006593      -0.43620400      -1.32949093
H        2.04513992       0.15242624       2.81404951
17
Frame=16 idx=010580 GeodesicLength=1.7270016543617603 rxn_smarts="[C:1]([C@@:2]1([H:11])[C:3]([H:12])([H:13])[C@:4]1([C:5]([C:6]#[C:7][H:17])([H:15])[H:16])[H:14])([H:8])([H:9])[H:10]>>[C:1]([C:2](=[C:3]([H:12])[H:13])[C@@:4]1([H:14])[C:5]([H:15])([H:16])[C:6]1=[C:7]([H:11])[H:17])([H:8])([H:9])[H:10]"
C       -1.19307825       1.25913884       0.11539605
C       -0.96956536      -0.24055095       0.09413185
C       -1.45013527      -0.93144066      -1.04047506
C        0.32121417      -0.79694441      -0.45043516
C        1.55167338       0.05535192      -0.70741540
C        1.71063968      -0.19598102       0.71968362
C        1.51035699      -0.18753030       1.97259945
H       -2.26195948       1.47558879       0.12918035
H       -0.72778662       1.70965550       0.99456022
H       -0.75682293       1.80845013      -0.72167914
H       -0.36749588      -0.52421998       1.76418177
H       -1.72431529      -1.97790976      -0.99481353
H       -1.89299136      -0.39701702      -1.87353452
H        0.52113907      -1.86561188      -0.47380023
H        1.33444448       1.07403159      -1.01110175
H        2.30273599      -0.43226106      -1.32306502
H        2.09194667       0.16725027       2.80658649
