14
Frame=0 idx=003991 GeodesicLength=0.0 rxn_smarts="[C:1]([C:2]([N:3]1[C:4]([H:11])([H:12])[C:5]1([H:13])[H:14])([H:9])[H:10])([H:6])([H:7])[H:8]>>[C-:2]([N+:3]1=[C:5]([H:14])[C:4]1([H:11])[H:12])([H:9])[H:10].[C:1]([H:6])([H:7])([H:8])[H:13]"
C        1.37406338       1.01570621       0.26711402
C        0.51963060      -1.26433755      -0.43252451
N       -0.70501918      -1.00118850      -0.04384163
C       -1.64191262      -0.03867904      -0.56037644
C       -1.11159423      -0.01355288       0.83922481
H        1.18585238       2.06920829       0.49266411
H        2.10088174       0.63880137       0.98763580
H        1.80926443       0.97309164      -0.72947768
H        1.20692131      -1.67945045       0.29233703
H        0.70778687      -1.41492761      -1.48884574
H       -2.61514973      -0.44052895      -0.82001753
H       -1.23772435       0.70975213      -1.24289678
H        0.09827249       0.65194073       0.70670499
H       -1.69127303      -0.20583540       1.73229959
14
Frame=1 idx=003991 GeodesicLength=0.09482570588493948 rxn_smarts="[C:1]([C:2]([N:3]1[C:4]([H:11])([H:12])[C:5]1([H:13])[H:14])([H:9])[H:10])([H:6])([H:7])[H:8]>>[C-:2]([N+:3]1=[C:5]([H:14])[C:4]1([H:11])[H:12])([H:9])[H:10].[C:1]([H:6])([H:7])([H:8])[H:13]"
C        1.39433794       1.00740856       0.26888739
C        0.53088176      -1.24127768      -0.44073937
N       -0.69801255      -0.97250705      -0.06614010
C       -1.67537342      -0.04383445      -0.56087364
C       -1.12176271      -0.00302101       0.82837419
H        1.22081533       2.06953224       0.46406939
H        2.09140362       0.63271327       1.01957109
H        1.87581736       0.95239943      -0.70610888
H        1.19435718      -1.67747424       0.29466865
H        0.71552760      -1.40831530      -1.49520412
H       -2.63350150      -0.48962409      -0.80624629
H       -1.30946317       0.71541177      -1.25245929
H        0.09074604       0.68348179       0.72138639
H       -1.67577349      -0.22489324       1.73081460
14
Frame=2 idx=003991 GeodesicLength=0.1890713845965322 rxn_smarts="[C:1]([C:2]([N:3]1[C:4]([H:11])([H:12])[C:5]1([H:13])[H:14])([H:9])[H:10])([H:6])([H:7])[H:8]>>[C-:2]([N+:3]1=[C:5]([H:14])[C:4]1([H:11])[H:12])([H:9])[H:10].[C:1]([H:6])([H:7])([H:8])[H:13]"
C        1.41512343       0.99883348       0.27137784
C        0.54179404      -1.21781226      -0.44955306
N       -0.69099653      -0.94150776      -0.08978603
C       -1.70965178      -0.05038723      -0.56123920
C       -1.13152086       0.00904339       0.81642939
H        1.25726058       2.06844569       0.43700702
H        2.08092906       0.62670214       1.05138018
H        1.94240393       0.93051168      -0.67934935
H        1.18031784      -1.67522033       0.29582174
H        0.72349771      -1.40056966      -1.50193792
H       -2.65003371      -0.54100754      -0.79100130
H       -1.38488487       0.71841031      -1.26224784
H        0.08359121       0.71610982       0.73516836
H       -1.65783006      -0.24155173       1.72793017
14
Frame=3 idx=003991 GeodesicLength=0.2827381053380112 rxn_smarts="[C:1]([C:2]([N:3]1[C:4]([H:11])([H:12])[C:5]1([H:13])[H:14])([H:9])[H:10])([H:6])([H:7])[H:8]>>[C-:2]([N+:3]1=[C:5]([H:14])[C:4]1([H:11])[H:12])([H:9])[H:10].[C:1]([H:6])([H:7])([H:8])[H:13]"
C        1.43650456       0.98991288       0.27467635
C        0.55232849      -1.19387423      -0.45901185
N       -0.68397169      -0.90787581      -0.11504957
C       -1.74468498      -0.05849006      -0.56140223
C       -1.14089987       0.02276644       0.80326605
H        1.29536243       2.06592819       0.41162917
H        2.06950531       0.62059943       1.08304096
H        2.00873041       0.90730897      -0.64914994
H        1.16458177      -1.67264769       0.29576888
H        0.73173704      -1.39155425      -1.50912449
H       -2.66435934      -0.59482488      -0.77409971
H       -1.46423959       0.71841572      -1.27204528
H        0.07683809       0.74992312       0.74801616
H       -1.63743262      -0.25558784       1.72348549
14
Frame=4 idx=003991 GeodesicLength=0.37582540553215366 rxn_smarts="[C:1]([C:2]([N:3]1[C:4]([H:11])([H:12])[C:5]1([H:13])[H:14])([H:9])[H:10])([H:6])([H:7])[H:8]>>[C-:2]([N+:3]1=[C:5]([H:14])[C:4]1([H:11])[H:12])([H:9])[H:10].[C:1]([H:6])([H:7])([H:8])[H:13]"
C        1.45855460       0.98057235       0.27889157
C        0.56241617      -1.16938433      -0.46916749
N       -0.67693970      -0.87121478      -0.14225111
C       -1.78037876      -0.06831641      -0.56128173
C       -1.14993141       0.03830492       0.78874646
H        1.33532301       2.06195880       0.38811888
H        2.05717953       0.61421395       1.11454656
H        2.07448617       0.88266583      -0.61550110
H        1.14685306      -1.66971417       0.29448039
H        0.74026455      -1.38115801      -1.51684669
H       -2.67596662      -0.65126343      -0.75536993
H       -1.54781725       0.71504967      -1.28157414
H        0.07052331       0.78505062       0.75991018
H       -1.61456665      -0.26676500       1.71729814
14
Frame=5 idx=003991 GeodesicLength=0.4683143239729986 rxn_smarts="[C:1]([C:2]([N:3]1[C:4]([H:11])([H:12])[C:5]1([H:13])[H:14])([H:9])[H:10])([H:6])([H:7])[H:8]>>[C-:2]([N+:3]1=[C:5]([H:14])[C:4]1([H:11])[H:12])([H:9])[H:10].[C:1]([H:6])([H:7])([H:8])[H:13]"
C        1.48132983       0.97070335       0.28414552
C        0.57195348      -1.14420662      -0.48010521
N       -0.66987529      -0.83098744      -0.17170817
C       -1.81661458      -0.08008831      -0.56074492
C       -1.15863646       0.05588504       0.77273106
H        1.37739498       2.05646597       0.36665142
H        2.04390035       0.60730682       1.14593329
H        2.13943971       0.85636787      -0.57836120
H        1.12677082      -1.66634664       0.29183952
H        0.74906832      -1.36924342      -1.52520471
H       -2.68414428      -0.71063707      -0.73466857
H       -1.63601957       0.70786722      -1.29042427
H        0.06466443       0.82168191       0.77078270
H       -1.58923173      -0.27476869       1.70913355
14
Frame=6 idx=003991 GeodesicLength=0.5601997699890254 rxn_smarts="[C:1]([C:2]([N:3]1[C:4]([H:11])([H:12])[C:5]1([H:13])[H:14])([H:9])[H:10])([H:6])([H:7])[H:8]>>[C-:2]([N+:3]1=[C:5]([H:14])[C:4]1([H:11])[H:12])([H:9])[H:10].[C:1]([H:6])([H:7])([H:8])[H:13]"
C        1.50487786       0.96019304       0.29058721
C        0.58075489      -1.11817282      -0.49192512
N       -0.66279741      -0.78654372      -0.20387356
C       -1.85317542      -0.09409359      -0.55967755
C       -1.16706436       0.07576403       0.75501918
H        1.42186403       2.04936613       0.34750626
H        2.02963195       0.59963150       1.17724493
H        2.20331662       0.82817442      -0.53771172
H        1.10381332      -1.66242784       0.28772765
H        0.75810314      -1.35564589      -1.53431224
H       -2.68802808      -0.77322195      -0.71175801
H       -1.72922552       0.69619574      -1.29818673
H        0.05930570       0.86003144       0.78059949
H       -1.56137672      -0.27925048       1.69876021
14
Frame=7 idx=003991 GeodesicLength=0.6514280702993884 rxn_smarts="[C:1]([C:2]([N:3]1[C:4]([H:11])([H:12])[C:5]1([H:13])[H:14])([H:9])[H:10])([H:6])([H:7])[H:8]>>[C-:2]([N+:3]1=[C:5]([H:14])[C:4]1([H:11])[H:12])([H:9])[H:10].[C:1]([H:6])([H:7])([H:8])[H:13]"
C        1.52920020       0.94888335       0.29837619
C        0.58853452      -1.09103714      -0.50474402
N       -0.65574274      -0.73708083      -0.23924266
C       -1.88969769      -0.11068423      -0.55793829
C       -1.17527894       0.09826805       0.73536863
H        1.46902448       2.04050168       0.33104460
H        2.01430347       0.59086691       1.20849318
H        2.26577150       0.79778432      -0.49356448
H        1.07733179      -1.65774949       0.28194164
H        0.76723569      -1.34016419      -1.54426761
H       -2.68642524      -0.83931298      -0.68639589
H       -1.82776584       0.67913510      -1.30430576
H        0.05450151       0.90032261       0.78935335
H       -1.53099272      -0.27973317       1.68588113
14
Frame=8 idx=003991 GeodesicLength=0.7419245060188099 rxn_smarts="[C:1]([C:2]([N:3]1[C:4]([H:11])([H:12])[C:5]1([H:13])[H:14])([H:9])[H:10])([H:6])([H:7])[H:8]>>[C-:2]([N+:3]1=[C:5]([H:14])[C:4]1([H:11])[H:12])([H:9])[H:10].[C:1]([H:6])([H:7])([H:8])[H:13]"
C        1.55422866       0.93657906       0.30766514
C        0.59485872      -1.06246953      -0.51872071
N       -0.64881472      -0.68170659      -0.27825782
C       -1.92557935      -0.13029280      -0.55536712
C       -1.18337497       0.12379068       0.71355141
H        1.51914340       2.02966566       0.31765861
H        1.99776852       0.58065073       1.23967820
H        2.32640386       0.76480899      -0.44597279
H        1.04656556      -1.65203798       0.27412766
H        0.77617003      -1.32255282      -1.55520248
H       -2.67773797      -0.90915023      -0.65840184
H       -1.93177401       0.65551252      -1.30807002
H        0.05031211       0.94277858       0.79710708
H       -1.49816985      -0.27557628       1.67020469
14
Frame=9 idx=003991 GeodesicLength=0.8314873644274055 rxn_smarts="[C:1]([C:2]([N:3]1[C:4]([H:11])([H:12])[C:5]1([H:13])[H:14])([H:9])[H:10])([H:6])([H:7])[H:8]>>[C-:2]([N+:3]1=[C:5]([H:14])[C:4]1([H:11])[H:12])([H:9])[H:10].[C:1]([H:6])([H:7])([H:8])[H:13]"
C        1.57971249       0.92305764       0.31850401
C        0.59909707      -1.03208219      -0.53400313
N       -0.64220213      -0.61971561      -0.32100081
C       -1.95979917      -0.15335027      -0.55182933
C       -1.19148568       0.15272736       0.68948182
H        1.57228489       2.01658238       0.30774502
H        1.97981992       0.56860393       1.27062608
H        2.38454968       0.72883919      -0.39523924
H        1.01078223      -1.64490362       0.26376544
H        0.78432752      -1.30253427      -1.56724856
H       -2.65995408      -0.98266665      -0.62784838
H       -2.04063597       0.62395743      -1.30867857
H        0.04679165       0.98747843       0.80413894
H       -1.46328842      -0.26599375       1.65158671
14
Frame=10 idx=003991 GeodesicLength=0.9199839273337423 rxn_smarts="[C:1]([C:2]([N:3]1[C:4]([H:11])([H:12])[C:5]1([H:13])[H:14])([H:9])[H:10])([H:6])([H:7])[H:8]>>[C-:2]([N+:3]1=[C:5]([H:14])[C:4]1([H:11])[H:12])([H:9])[H:10].[C:1]([H:6])([H:7])([H:8])[H:13]"
C        1.60516250       0.90808071       0.33074654
C        0.60055070      -0.99948666      -0.55066702
N       -0.63640397      -0.55126349      -0.36700864
C       -1.99078120      -0.18006953      -0.54726892
C       -1.19987091       0.18516544       0.66327400
H        1.62798272       2.00093880       0.30140991
H        1.96027891       0.55454849       1.30096761
H        2.43929238       0.68956632      -0.34196405
H        0.96969350      -1.63588594       0.25021264
H        0.79088177      -1.27970272      -1.58050318
H       -2.63122080      -1.05873588      -0.59493280
H       -2.15226595       0.58296174      -1.30537834
H        0.04392378       1.03412955       0.81097008
H       -1.42722343      -0.25024686       1.63014216
14
Frame=11 idx=003991 GeodesicLength=1.0073115789430325 rxn_smarts="[C:1]([C:2]([N:3]1[C:4]([H:11])([H:12])[C:5]1([H:13])[H:14])([H:9])[H:10])([H:6])([H:7])[H:8]>>[C-:2]([N+:3]1=[C:5]([H:14])[C:4]1([H:11])[H:12])([H:9])[H:10].[C:1]([H:6])([H:7])([H:8])[H:13]"
C        1.62969398       0.89151096       0.34383326
C        0.59875021      -0.96461386      -0.56850985
N       -0.63211452      -0.47821056      -0.41466807
C       -2.01658704      -0.20994444      -0.54176785
C       -1.20883735       0.22050444       0.63559544
H        1.68482937       1.98250342       0.29804236
H        1.93899951       0.53879821       1.32997689
H        2.48934957       0.64704220      -0.28731816
H        0.92409789      -1.62465291       0.23297747
H        0.79491164      -1.25378843      -1.59489373
H       -2.59073499      -1.13468184      -0.56037963
H       -2.26235270       0.53196344      -1.29776617
H        0.04145640       1.08186165       0.81833685
H       -1.39146198      -0.22829229       1.60654118
14
Frame=12 idx=003991 GeodesicLength=1.0937225744936663 rxn_smarts="[C:1]([C:2]([N:3]1[C:4]([H:11])([H:12])[C:5]1([H:13])[H:14])([H:9])[H:10])([H:6])([H:7])[H:8]>>[C-:2]([N+:3]1=[C:5]([H:14])[C:4]1([H:11])[H:12])([H:9])[H:10].[C:1]([H:6])([H:7])([H:8])[H:13]"
C        1.65227758       0.87346151       0.35683939
C        0.59385308      -0.92797751      -0.58702787
N       -0.63003235      -0.40404299      -0.46150541
C       -2.03574336      -0.24162562      -0.53553735
C       -1.21862735       0.25728468       0.60772274
H        1.74081998       1.96135948       0.29607014
H        1.91581693       0.52238573       1.35683941
H        2.53363582       0.60173284      -0.23265928
H        0.87602965      -1.61133964       0.21208133
H        0.79592102      -1.22492595      -1.61018377
H       -2.53973607      -1.20684453      -0.52546393
H       -2.36542425       0.47233704      -1.28600483
H        0.03883064       1.12957623       0.82677535
H       -1.35762132      -0.20138128       1.58205409
14
Frame=13 idx=003991 GeodesicLength=1.1796860940899128 rxn_smarts="[C:1]([C:2]([N:3]1[C:4]([H:11])([H:12])[C:5]1([H:13])[H:14])([H:9])[H:10])([H:6])([H:7])[H:8]>>[C-:2]([N+:3]1=[C:5]([H:14])[C:4]1([H:11])[H:12])([H:9])[H:10].[C:1]([H:6])([H:7])([H:8])[H:13]"
C        1.67212593       0.85433836       0.36876193
C        0.58671151      -0.89068919      -0.60531522
N       -0.63049917      -0.33247762      -0.50516366
C       -2.04799139      -0.27325762      -0.52897510
C       -1.22938686       0.29352851       0.58108177
H        1.79394921       1.93793709       0.29374700
H        1.89125222       0.50666409       1.38064569
H        2.57141898       0.55478130      -0.17960644
H        0.82814614      -1.59639096       0.18854410
H        0.79417737      -1.19414760      -1.62562534
H       -2.48138580      -1.27179535      -0.49200722
H       -2.45703165       0.40737882      -1.27083841
H        0.03537544       1.17613123       0.83675424
H       -1.32686193      -0.17200106       1.55799667
14
Frame=14 idx=003991 GeodesicLength=1.2654924239155465 rxn_smarts="[C:1]([C:2]([N:3]1[C:4]([H:11])([H:12])[C:5]1([H:13])[H:14])([H:9])[H:10])([H:6])([H:7])[H:8]>>[C-:2]([N+:3]1=[C:5]([H:14])[C:4]1([H:11])[H:12])([H:9])[H:10].[C:1]([H:6])([H:7])([H:8])[H:13]"
C        1.68904817       0.83455757       0.37907058
C        0.57830087      -0.85369648      -0.62273728
N       -0.63323898      -0.26559833      -0.54476537
C       -2.05413326      -0.30341638      -0.52239293
C       -1.24094013       0.32780175       0.55644986
H        1.84314275       1.91272352       0.28968846
H        1.86566791       0.49271483       1.40124146
H        2.60280400       0.50708809      -0.12883883
H        0.78219144      -1.58038767       0.16356403
H        0.79042921      -1.16244629      -1.64065258
H       -2.41902787      -1.32806944      -0.46085522
H       -2.53567466       0.34028261      -1.25314226
H        0.03071129       1.22093850       0.84835238
H       -1.29928074      -0.14249227       1.53501769
14
Frame=15 idx=003991 GeodesicLength=1.3513505061019542 rxn_smarts="[C:1]([C:2]([N:3]1[C:4]([H:11])([H:12])[C:5]1([H:13])[H:14])([H:9])[H:10])([H:6])([H:7])[H:8]>>[C-:2]([N+:3]1=[C:5]([H:14])[C:4]1([H:11])[H:12])([H:9])[H:10].[C:1]([H:6])([H:7])([H:8])[H:13]"
C        1.70326130       0.81445683       0.38761335
C        0.56936321      -0.81764508      -0.63888838
N       -0.63783190      -0.20398323      -0.58024694
C       -2.05538615      -0.33140866      -0.51604871
C       -1.25311744       0.35936738       0.53411084
H        1.88823499       1.88613823       0.28325216
H        1.83959544       0.48109672       1.41873464
H        2.62833683       0.45935618      -0.08060793
H        0.73903024      -1.56379410       0.13817836
H        0.78540086      -1.13072374      -1.65480388
H       -2.35506202      -1.37574727      -0.43259322
H       -2.60197329       0.27338464      -1.23363113
H        0.02465574       1.26385445       0.86159876
H       -1.27450781      -0.11435232       1.51333210
14
Frame=16 idx=003991 GeodesicLength=1.4373290703898092 rxn_smarts="[C:1]([C:2]([N:3]1[C:4]([H:11])([H:12])[C:5]1([H:13])[H:14])([H:9])[H:10])([H:6])([H:7])[H:8]>>[C-:2]([N+:3]1=[C:5]([H:14])[C:4]1([H:11])[H:12])([H:9])[H:10].[C:1]([H:6])([H:7])([H:8])[H:13]"
C        1.71517296       0.79430493       0.39446434
C        0.56036068      -0.78297209      -0.65353908
N       -0.64384567      -0.14741688      -0.61196330
C       -2.05292755      -0.35695300      -0.51019841
C       -1.26578107       0.38800031       0.51406587
H        1.92934399       1.85861070       0.27435104
H        1.81380898       0.47194760       1.43338374
H        2.64869497       0.41227523      -0.03517093
H        0.69891859      -1.54702246       0.11321911
H        0.77959564      -1.09976681      -1.66779084
H       -2.29115430      -1.41557053      -0.40740267
H       -2.65727884       0.20809088      -1.21317221
H        0.01719887       1.30482691       0.87680361
H       -1.25210727      -0.08835480       1.49294974
