12
Frame=0 idx=000611 GeodesicLength=0.0 rxn_smarts="[C:1]1([H:7])([H:8])[C@@:2]2([H:9])[C@:3]3([H:10])[O:4][C@@:5]2([H:11])[C@:6]13[H:12]>>[C-:1]1([H:7])[C@:2]2([H:9])[C:3]3=[O+:4][C@:5]2([H:11])[C@@:6]13[H:12].[H:8][H:10]"
C        0.91910300      -0.61281354      -0.07506285
C       -0.34621927      -0.71221141       0.61907864
C       -0.44424719       0.86900882       0.46891097
O       -1.80545484       0.91029427      -0.07380165
C       -1.13888091      -0.20179916      -0.63248655
C        0.28208676       0.41285714      -0.87158673
H        1.79689246      -1.23132023      -0.17082764
H        1.56263102       0.55561560       1.07582918
H       -0.70457666      -1.32114460       1.43851311
H        0.93352581       1.12845942       1.24374337
H       -1.66698254      -0.83762993      -1.33417450
H        0.61212234       1.04068367      -1.68813536
12
Frame=1 idx=000611 GeodesicLength=0.06199931000504151 rxn_smarts="[C:1]1([H:7])([H:8])[C@@:2]2([H:9])[C@:3]3([H:10])[O:4][C@@:5]2([H:11])[C@:6]13[H:12]>>[C-:1]1([H:7])[C@:2]2([H:9])[C:3]3=[O+:4][C@:5]2([H:11])[C@@:6]13[H:12].[H:8][H:10]"
C        0.92427925      -0.60848000      -0.06975997
C       -0.34581553      -0.71126150       0.61952929
C       -0.44525091       0.87166771       0.47038582
O       -1.80520556       0.90928074      -0.07441841
C       -1.13735337      -0.20259987      -0.63235741
C        0.28227624       0.41351544      -0.87076566
H        1.78871710      -1.24261066      -0.18297225
H        1.56812546       0.55324445       1.07701148
H       -0.70516086      -1.32098238       1.43812549
H        0.92607062       1.13867067       1.24837719
H       -1.66197466      -0.84087699      -1.33452071
H        0.61129223       1.04043239      -1.68863485
12
Frame=2 idx=000611 GeodesicLength=0.12394999590475544 rxn_smarts="[C:1]1([H:7])([H:8])[C@@:2]2([H:9])[C@:3]3([H:10])[O:4][C@@:5]2([H:11])[C@:6]13[H:12]>>[C-:1]1([H:7])[C@:2]2([H:9])[C:3]3=[O+:4][C@:5]2([H:11])[C@@:6]13[H:12].[H:8][H:10]"
C        0.92949357      -0.60420933      -0.06449022
C       -0.34534802      -0.71031396       0.61999033
C       -0.44624356       0.87430434       0.47184761
O       -1.80492718       0.90822153      -0.07505748
C       -1.13577265      -0.20343733      -0.63223369
C        0.28252182       0.41415879      -0.86991872
H        1.78001905      -1.25364774      -0.19514742
H        1.57394854       0.55061132       1.07813716
H       -0.70567568      -1.32081905       1.43775105
H        0.91834528       1.14913168       1.25308723
H       -1.65688449      -0.84416630      -1.33486320
H        0.61052332       1.04016606      -1.68910266
12
Frame=3 idx=000611 GeodesicLength=0.18571871962413075 rxn_smarts="[C:1]1([H:7])([H:8])[C@@:2]2([H:9])[C@:3]3([H:10])[O:4][C@@:5]2([H:11])[C@:6]13[H:12]>>[C-:1]1([H:7])[C@:2]2([H:9])[C:3]3=[O+:4][C@:5]2([H:11])[C@@:6]13[H:12].[H:8][H:10]"
C        0.93473101      -0.60002392      -0.05927660
C       -0.34482605      -0.70937597       0.62045317
C       -0.44721937       0.87691252       0.47329416
O       -1.80461769       0.90712703      -0.07571018
C       -1.13415194      -0.20430564      -0.63211647
C        0.28281444       0.41478038      -0.86905548
H        1.77086285      -1.26435787      -0.20727106
H        1.58011294       0.54768415       1.07918917
H       -0.70612945      -1.32066134       1.43738197
H        0.91035703       1.15982247       1.25785992
H       -1.65174137      -0.84748047      -1.33520126
H        0.60980758       1.03987866      -1.68954736
12
Frame=4 idx=000611 GeodesicLength=0.24710176457168564 rxn_smarts="[C:1]1([H:7])([H:8])[C@@:2]2([H:9])[C@:3]3([H:10])[O:4][C@@:5]2([H:11])[C@:6]13[H:12]>>[C-:1]1([H:7])[C@:2]2([H:9])[C:3]3=[O+:4][C@:5]2([H:11])[C@@:6]13[H:12].[H:8][H:10]"
C        0.93997829      -0.59594361      -0.05414215
C       -0.34426088      -0.70845574       0.62090765
C       -0.44817249       0.87948737       0.47472355
O       -1.80427648       0.90600949      -0.07636649
C       -1.13250644      -0.20519813      -0.63200685
C        0.28314431       0.41537401      -0.86818648
H        1.76132089      -1.27467826      -0.21925555
H        1.58662880       0.54445288       1.08014567
H       -0.70653333      -1.32051806       1.43700815
H        0.90211850       1.17070660       1.26268488
H       -1.64657785      -0.85080190      -1.33553416
H        0.60913667       1.03956535      -1.68997822
12
Frame=5 idx=000611 GeodesicLength=0.30967803656218207 rxn_smarts="[C:1]1([H:7])([H:8])[C@@:2]2([H:9])[C@:3]3([H:10])[O:4][C@@:5]2([H:11])[C@:6]13[H:12]>>[C-:1]1([H:7])[C@:2]2([H:9])[C:3]3=[O+:4][C@:5]2([H:11])[C@@:6]13[H:12].[H:8][H:10]"
C        0.94521165      -0.59197611      -0.04909417
C       -0.34364294      -0.70752805       0.62137888
C       -0.44912774       0.88203490       0.47613165
O       -1.80391701       0.90484836      -0.07704949
C       -1.13081981      -0.20612346      -0.63190487
C        0.28351846       0.41596230      -0.86729054
H        1.75139412      -1.28464008      -0.23115434
H        1.59368037       0.54063331       1.08093025
H       -0.70687319      -1.32036053       1.43665804
H        0.89341634       1.18204911       1.26763076
H       -1.64135895      -0.85414818      -1.33586310
H        0.60851872       1.03924843      -1.69037307
12
Frame=6 idx=000611 GeodesicLength=0.3718496519454487 rxn_smarts="[C:1]1([H:7])([H:8])[C@@:2]2([H:9])[C@:3]3([H:10])[O:4][C@@:5]2([H:11])[C@:6]13[H:12]>>[C-:1]1([H:7])[C@:2]2([H:9])[C:3]3=[O+:4][C@:5]2([H:11])[C@@:6]13[H:12].[H:8][H:10]"
C        0.95042952      -0.58813981      -0.04415825
C       -0.34299792      -0.70662044       0.62183619
C       -0.45006361       0.88454952       0.47752095
O       -1.80353761       0.90367717      -0.07772776
C       -1.12912944      -0.20706689      -0.63181197
C        0.28391775       0.41652350      -0.86639616
H        1.74120886      -1.29416072      -0.24282255
H        1.60114331       0.53641239       1.08157464
H       -0.70718182      -1.32021939       1.43629743
H        0.88442796       1.19362436       1.27263146
H       -1.63615521      -0.85749028      -1.33618731
H        0.60793820       1.03891061      -1.69075668
12
Frame=7 idx=000611 GeodesicLength=0.433516279967483 rxn_smarts="[C:1]1([H:7])([H:8])[C@@:2]2([H:9])[C@:3]3([H:10])[O:4][C@@:5]2([H:11])[C@:6]13[H:12]>>[C-:1]1([H:7])[C@:2]2([H:9])[C:3]3=[O+:4][C@:5]2([H:11])[C@@:6]13[H:12].[H:8][H:10]"
C        0.95562428      -0.58443593      -0.03933841
C       -0.34232088      -0.70572774       0.62228261
C       -0.45097565       0.88702284       0.47888586
O       -1.80312240       0.90248877      -0.07840688
C       -1.12742444      -0.20802391      -0.63173006
C        0.28433492       0.41705964      -0.86550784
H        1.73074470      -1.30322968      -0.25424607
H        1.60903118       0.53177812       1.08206941
H       -0.70744312      -1.32007935       1.43593990
H        0.87511958       1.20540954       1.27769222
H       -1.63094922      -0.86081859      -1.33650689
H        0.60738104       1.03855628      -1.69113383
12
Frame=8 idx=000611 GeodesicLength=0.49552012120186967 rxn_smarts="[C:1]1([H:7])([H:8])[C@@:2]2([H:9])[C@:3]3([H:10])[O:4][C@@:5]2([H:11])[C@:6]13[H:12]>>[C-:1]1([H:7])[C@:2]2([H:9])[C:3]3=[O+:4][C@:5]2([H:11])[C@@:6]13[H:12].[H:8][H:10]"
C        0.96078371      -0.58087798      -0.03464049
C       -0.34162119      -0.70483694       0.62273087
C       -0.45188462       0.88946601       0.48022892
O       -1.80269706       0.90127928      -0.07909378
C       -1.12571076      -0.20900217      -0.63165443
C        0.28477659       0.41758656      -0.86460709
H        1.72006204      -1.31185919      -0.26546372
H        1.61748771       0.52653603       1.08240129
H       -0.70767500      -1.31993515       1.43558869
H        0.86536082       1.21759836       1.28281555
H       -1.62574309      -0.86415031      -1.33681905
H        0.60686084       1.03819548      -1.69148676
12
Frame=9 idx=000611 GeodesicLength=0.5575539523090223 rxn_smarts="[C:1]1([H:7])([H:8])[C@@:2]2([H:9])[C@:3]3([H:10])[O:4][C@@:5]2([H:11])[C@:6]13[H:12]>>[C-:1]1([H:7])[C@:2]2([H:9])[C:3]3=[O+:4][C@:5]2([H:11])[C@@:6]13[H:12].[H:8][H:10]"
C        0.96590394      -0.57747141      -0.03007762
C       -0.34090160      -0.70395045       0.62317792
C       -0.45279190       0.89188429       0.48155210
O       -1.80227080       0.90006309      -0.07978647
C       -1.12400049      -0.20999501      -0.63159259
C        0.28523209       0.41810450      -0.86370398
H        1.70921891      -1.32006130      -0.27641781
H        1.62652571       0.52070384       1.08252874
H       -0.70787652      -1.31978943       1.43524388
H        0.85515223       1.23016007       1.28804070
H       -1.62055483      -0.86747774      -1.33713685
H        0.60636327       1.03782955      -1.69182804
12
Frame=10 idx=000611 GeodesicLength=0.6196996304206732 rxn_smarts="[C:1]1([H:7])([H:8])[C@@:2]2([H:9])[C@:3]3([H:10])[O:4][C@@:5]2([H:11])[C@:6]13[H:12]>>[C-:1]1([H:7])[C@:2]2([H:9])[C:3]3=[O+:4][C@:5]2([H:11])[C@@:6]13[H:12].[H:8][H:10]"
C        0.97094789      -0.57420961      -0.02565990
C       -0.34016599      -0.70305910       0.62363051
C       -0.45369880       0.89426628       0.48284712
O       -1.80182341       0.89882526      -0.08048523
C       -1.12227959      -0.21099830      -0.63153333
C        0.28569988       0.41862322      -0.86279221
H        1.69826182      -1.32782595      -0.28709156
H        1.63614908       0.51416102       1.08238395
H       -0.70805123      -1.31963224       1.43491210
H        0.84443317       1.24316827       1.29337636
H       -1.61536129      -0.87078753      -1.33743826
H        0.60588847       1.03746869      -1.69214953
12
Frame=11 idx=000611 GeodesicLength=0.6814966114060641 rxn_smarts="[C:1]1([H:7])([H:8])[C@@:2]2([H:9])[C@:3]3([H:10])[O:4][C@@:5]2([H:11])[C@:6]13[H:12]>>[C-:1]1([H:7])[C@:2]2([H:9])[C:3]3=[O+:4][C@:5]2([H:11])[C@@:6]13[H:12].[H:8][H:10]"
C        0.97594676      -0.57110387      -0.02138160
C       -0.33941907      -0.70216708       0.62408448
C       -0.45460737       0.89662473       0.48412219
O       -1.80137871       0.89758197      -0.08118901
C       -1.12056604      -0.21201336      -0.63148560
C        0.28617575       0.41913954      -0.86187725
H        1.68719422      -1.33517292      -0.29750125
H        1.64639454       0.50699107       1.08204922
H       -0.70820407      -1.31946835       1.43458876
H        0.83322240       1.25657053       1.29879026
H       -1.61018952      -0.87409079      -1.33774200
H        0.60543110       1.03710853      -1.69245821
12
Frame=12 idx=000611 GeodesicLength=0.7436359734218465 rxn_smarts="[C:1]1([H:7])([H:8])[C@@:2]2([H:9])[C@:3]3([H:10])[O:4][C@@:5]2([H:11])[C@:6]13[H:12]>>[C-:1]1([H:7])[C@:2]2([H:9])[C:3]3=[O+:4][C@:5]2([H:11])[C@@:6]13[H:12].[H:8][H:10]"
C        0.98087918      -0.56815507      -0.01725176
C       -0.33865502      -0.70125396       0.62455975
C       -0.45553575       0.89896387       0.48537383
O       -1.80094268       0.89631642      -0.08191372
C       -1.11884361      -0.21304523      -0.63144627
C        0.28666710       0.41967512      -0.86094068
H        1.67602364      -1.34214200      -0.30767318
H        1.65740907       0.49898126       1.08142327
H       -0.70832885      -1.31927656       1.43429432
H        0.82133475       1.27056274       1.30435118
H       -1.60500723      -0.87739910      -1.33804277
H        0.60499939       1.03677251      -1.69273394
12
Frame=13 idx=000611 GeodesicLength=0.80564703599438 rxn_smarts="[C:1]1([H:7])([H:8])[C@@:2]2([H:9])[C@:3]3([H:10])[O:4][C@@:5]2([H:11])[C@:6]13[H:12]>>[C-:1]1([H:7])[C@:2]2([H:9])[C:3]3=[O+:4][C@:5]2([H:11])[C@@:6]13[H:12].[H:8][H:10]"
C        0.98574891      -0.56536032      -0.01326963
C       -0.33787598      -0.70031986       0.62505550
C       -0.45648166       0.90128391       0.48660146
O       -1.80051303       0.89503014      -0.08265670
C       -1.11711265      -0.21409089      -0.63141375
C        0.28717024       0.42023191      -0.85998515
H        1.66475719      -1.34874337      -0.31760655
H        1.66918122       0.49015919       1.08052783
H       -0.70842558      -1.31905731       1.43402905
H        0.80877578       1.28511268       1.31003566
H       -1.59981376      -0.88070881      -1.33833818
H        0.60458932       1.03646274      -1.69297954
12
Frame=14 idx=000611 GeodesicLength=0.8675732273758565 rxn_smarts="[C:1]1([H:7])([H:8])[C@@:2]2([H:9])[C@:3]3([H:10])[O:4][C@@:5]2([H:11])[C@:6]13[H:12]>>[C-:1]1([H:7])[C@:2]2([H:9])[C:3]3=[O+:4][C@:5]2([H:11])[C@@:6]13[H:12].[H:8][H:10]"
C        0.99054969      -0.56272041      -0.00943689
C       -0.33708047      -0.69935491       0.62558308
C       -0.45745498       0.90358942       0.48780754
O       -1.80009796       0.89371642      -0.08342291
C       -1.11536898      -0.21515411      -0.63138621
C        0.28768748       0.42081992      -0.85900204
H        1.65340735      -1.35500679      -0.32733097
H        1.68177137       0.48042882       1.07934089
H       -0.70849304      -1.31880014       1.43380428
H        0.79546853       1.30031877       1.31585794
H       -1.59459460      -0.88402834      -1.33863095
H        0.60420562       1.03619134      -1.69318375
12
Frame=15 idx=000611 GeodesicLength=0.9295433364412771 rxn_smarts="[C:1]1([H:7])([H:8])[C@@:2]2([H:9])[C@:3]3([H:10])[O:4][C@@:5]2([H:11])[C@:6]13[H:12]>>[C-:1]1([H:7])[C@:2]2([H:9])[C:3]3=[O+:4][C@:5]2([H:11])[C@@:6]13[H:12].[H:8][H:10]"
C        0.99528003      -0.56023958      -0.00575887
C       -0.33626360      -0.69834661       0.62615321
C       -0.45846517       0.90588690       0.48898991
O       -1.79970454       0.89236761      -0.08422028
C       -1.11360340      -0.21623713      -0.63136294
C        0.28822382       0.42145365      -0.85798158
H        1.64196466      -1.36095952      -0.33686732
H        1.69528621       0.46967454       1.07781707
H       -0.70852269      -1.31848730       1.43363648
H        0.78128114       1.31628052       1.32184874
H       -1.58933151      -0.88736710      -1.33891902
H        0.60385506       1.03597402      -1.69333539
12
Frame=16 idx=000611 GeodesicLength=0.9914854548733998 rxn_smarts="[C:1]1([H:7])([H:8])[C@@:2]2([H:9])[C@:3]3([H:10])[O:4][C@@:5]2([H:11])[C@:6]13[H:12]>>[C-:1]1([H:7])[C@:2]2([H:9])[C:3]3=[O+:4][C@:5]2([H:11])[C@@:6]13[H:12].[H:8][H:10]"
C        0.99994090      -0.55791654      -0.00223712
C       -0.33542038      -0.69728415       0.62677688
C       -0.45951857       0.90818117       0.49015009
O       -1.79933653       0.89097657      -0.08505378
C       -1.11180741      -0.21734153      -0.63134185
C        0.28878356       0.42214538      -0.85691456
H        1.63041875      -1.36662990      -0.34623833
H        1.70979770       0.45781213       1.07593267
H       -0.70851082      -1.31810968       1.43353493
H        0.76612026       1.33307639       1.32802004
H       -1.58400610      -0.89073195      -1.33920160
H        0.60353865       1.03582211      -1.69342735
