13
Frame=0 idx=010424 GeodesicLength=0.0 rxn_smarts="[O:1]([C:2]([C@@:3]([C:4](=[O:5])[H:12])([C:6]#[C:7][H:13])[H:11])([H:9])[H:10])[H:8]>>[O:1]([C:2]([C:3]([C:4](=[O:5])[H:12])=[C:6]=[C:7]([H:11])[H:13])([H:9])[H:10])[H:8]"
O       -2.25843252      -0.47041035      -0.19782114
C       -1.04003706      -0.87206134       0.36479266
C        0.08560483       0.10369434       0.13765607
C       -0.14536425       1.51715217       0.32250541
O       -1.19049292       1.97287218       0.74757326
C        1.36624053      -0.30683420      -0.27266863
C        2.47993701      -0.87993305      -0.40755803
H       -2.44687345       0.41036737       0.14928628
H       -1.12855033      -1.00664633       1.45549225
H       -0.78625322      -1.84189077      -0.06167972
H        1.18073656       0.39562644      -1.16384596
H        0.70595823       2.18536482       0.08203069
H        3.17752663      -1.20730128      -1.15576318
13
Frame=1 idx=010424 GeodesicLength=0.09852963423127827 rxn_smarts="[O:1]([C:2]([C@@:3]([C:4](=[O:5])[H:12])([C:6]#[C:7][H:13])[H:11])([H:9])[H:10])[H:8]>>[O:1]([C:2]([C:3]([C:4](=[O:5])[H:12])=[C:6]=[C:7]([H:11])[H:13])([H:9])[H:10])[H:8]"
O       -2.24797953      -0.47963747      -0.21184309
C       -1.03116999      -0.86906750       0.36304730
C        0.08684468       0.11477035       0.13016672
C       -0.15292042       1.52769380       0.32942873
O       -1.20333453       1.97146563       0.75190358
C        1.38493284      -0.28494796      -0.22248888
C        2.47040241      -0.88355683      -0.43321894
H       -2.45109971       0.39733823       0.13617823
H       -1.12595485      -0.99493186       1.45385948
H       -0.76544430      -1.83935122      -0.05500869
H        1.18688891       0.38865332      -1.16877700
H        0.69526423       2.20370766       0.10079906
H        3.15357025      -1.25213616      -1.17404651
13
Frame=2 idx=010424 GeodesicLength=0.19695579097385024 rxn_smarts="[O:1]([C:2]([C@@:3]([C:4](=[O:5])[H:12])([C:6]#[C:7][H:13])[H:11])([H:9])[H:10])[H:8]>>[O:1]([C:2]([C:3]([C:4](=[O:5])[H:12])=[C:6]=[C:7]([H:11])[H:13])([H:9])[H:10])[H:8]"
O       -2.24003893      -0.48659213      -0.22254295
C       -1.02399938      -0.86614729       0.36088674
C        0.08784351       0.12357355       0.11949589
C       -0.15826500       1.53607176       0.33505111
O       -1.21174791       1.96946553       0.75841096
C        1.39933547      -0.26761145      -0.18105740
C        2.45693644      -0.88495588      -0.45795761
H       -2.45529558       0.38658895       0.12728081
H       -1.12220021      -0.98392017       1.45189952
H       -0.74959557      -1.83715900      -0.04980035
H        1.18838326       0.37795811      -1.18042318
H        0.68808521       2.21819084       0.11893156
H        3.14055869      -1.28546281      -1.18017509
13
Frame=3 idx=010424 GeodesicLength=0.2953005180482425 rxn_smarts="[O:1]([C:2]([C@@:3]([C:4](=[O:5])[H:12])([C:6]#[C:7][H:13])[H:11])([H:9])[H:10])[H:8]>>[O:1]([C:2]([C:3]([C:4](=[O:5])[H:12])=[C:6]=[C:7]([H:11])[H:13])([H:9])[H:10])[H:8]"
O       -2.23500702      -0.49107268      -0.23015290
C       -1.01910913      -0.86319987       0.35869315
C        0.08823357       0.13005003       0.10645671
C       -0.16141022       1.54233552       0.33961767
O       -1.21594649       1.96725518       0.76666795
C        1.40962623      -0.25540786      -0.14704333
C        2.43980580      -0.88657414      -0.48306608
H       -2.45983358       0.37850962       0.12215930
H       -1.11835067      -0.97325491       1.45001895
H       -0.73923951      -1.83539925      -0.04545285
H        1.18519543       0.36294138      -1.19797812
H        0.68437569       2.22872732       0.13601788
H        3.14165990      -1.30491034      -1.17593832
13
Frame=4 idx=010424 GeodesicLength=0.3935391862807994 rxn_smarts="[O:1]([C:2]([C@@:3]([C:4](=[O:5])[H:12])([C:6]#[C:7][H:13])[H:11])([H:9])[H:10])[H:8]>>[O:1]([C:2]([C:3]([C:4](=[O:5])[H:12])=[C:6]=[C:7]([H:11])[H:13])([H:9])[H:10])[H:8]"
O       -2.23362983      -0.49237703      -0.23469248
C       -1.01770594      -0.86018668       0.35716274
C        0.08761045       0.13334551       0.09192505
C       -0.16160097       1.54592948       0.34324635
O       -1.21515558       1.96533069       0.77588572
C        1.41561383      -0.25033018      -0.11942654
C        2.41773657      -0.89272865      -0.51016988
H       -2.46494345       0.37421685       0.12031758
H       -1.11614779      -0.96233521       1.44893364
H       -0.73608855      -1.83445414      -0.04076595
H        1.17667866       0.34145309      -1.22091914
H        0.68518958       2.23413288       0.15110537
H        3.16244301      -1.30199663      -1.16260245
13
Frame=5 idx=010424 GeodesicLength=0.49160089049653616 rxn_smarts="[O:1]([C:2]([C@@:3]([C:4](=[O:5])[H:12])([C:6]#[C:7][H:13])[H:11])([H:9])[H:10])[H:8]>>[O:1]([C:2]([C:3]([C:4](=[O:5])[H:12])=[C:6]=[C:7]([H:11])[H:13])([H:9])[H:10])[H:8]"
O       -2.23269811      -0.49294112      -0.23819914
C       -1.01626107      -0.85724185       0.35513592
C        0.08741576       0.13611110       0.07674059
C       -0.16071593       1.54876792       0.34739081
O       -1.21266558       1.96291569       0.78671677
C        1.42017304      -0.24656361      -0.09683041
C        2.39555038      -0.89454230      -0.53981619
H       -2.46969748       0.37056673       0.12010389
H       -1.11290344      -0.95237645       1.44731042
H       -0.73399553      -1.83351550      -0.03742303
H        1.16406582       0.31946621      -1.24788144
H        0.68706801       2.23843369       0.16603085
H        3.18466412      -1.29908052      -1.13927905
13
Frame=6 idx=010424 GeodesicLength=0.5893346207289138 rxn_smarts="[O:1]([C:2]([C@@:3]([C:4](=[O:5])[H:12])([C:6]#[C:7][H:13])[H:11])([H:9])[H:10])[H:8]>>[O:1]([C:2]([C:3]([C:4](=[O:5])[H:12])=[C:6]=[C:7]([H:11])[H:13])([H:9])[H:10])[H:8]"
O       -2.23573533      -0.48978565      -0.23866906
C       -1.01882615      -0.85447796       0.35384178
C        0.08609763       0.13484911       0.06028844
C       -0.15578806       1.54823304       0.35062412
O       -1.20400856       1.96087115       0.79798651
C        1.42078504      -0.25181630      -0.08022214
C        2.36948791      -0.90174080      -0.57398274
H       -2.47486313       0.37144706       0.12320392
H       -1.11198505      -0.94225182       1.44654928
H       -0.74018870      -1.83383729      -0.03362574
H        1.14522904       0.28966637      -1.28013350
H        0.69488790       2.23636736       0.17808719
H        3.22490747      -1.26752428      -1.10394808
13
Frame=7 idx=010424 GeodesicLength=0.687048356811974 rxn_smarts="[O:1]([C:2]([C@@:3]([C:4](=[O:5])[H:12])([C:6]#[C:7][H:13])[H:11])([H:9])[H:10])[H:8]>>[O:1]([C:2]([C:3]([C:4](=[O:5])[H:12])=[C:6]=[C:7]([H:11])[H:13])([H:9])[H:10])[H:8]"
O       -2.23792974      -0.48726499      -0.23837230
C       -1.01941650      -0.85191883       0.35126971
C        0.08560739       0.13451280       0.04237743
C       -0.15086076       1.54795639       0.35393465
O       -1.19504818       1.95783539       0.81097268
C        1.42152523      -0.25555907      -0.06802524
C        2.34652534      -0.89960833      -0.61154024
H       -2.47940588       0.37108667       0.12828097
H       -1.10769445      -0.93374990       1.44446624
H       -0.74437806      -1.83379417      -0.03243168
H        1.12303540       0.26243965      -1.31625768
H        0.70248421       2.23497524       0.19129549
H        3.25555600      -1.24691086      -1.05597003
13
Frame=8 idx=010424 GeodesicLength=0.7847894504285374 rxn_smarts="[O:1]([C:2]([C@@:3]([C:4](=[O:5])[H:12])([C:6]#[C:7][H:13])[H:11])([H:9])[H:10])[H:8]>>[O:1]([C:2]([C:3]([C:4](=[O:5])[H:12])=[C:6]=[C:7]([H:11])[H:13])([H:9])[H:10])[H:8]"
O       -2.23929214      -0.48463674      -0.23897550
C       -1.01971126      -0.84961743       0.34869168
C        0.08608802       0.13331815       0.02533065
C       -0.14456172       1.54679138       0.35743842
O       -1.18481227       1.95455553       0.82311326
C        1.42230966      -0.26140828      -0.05537572
C        2.32684139      -0.89296336      -0.64632015
H       -2.48295470       0.37101748       0.13203373
H       -1.10403066      -0.92538645       1.44226704
H       -0.74866433      -1.83427632      -0.03073893
H        1.09937318       0.23330194      -1.35255951
H        0.71159790       2.23220682       0.20399515
H        3.27781694      -1.22290273      -1.00890012
13
Frame=9 idx=010424 GeodesicLength=0.8826319526326942 rxn_smarts="[O:1]([C:2]([C@@:3]([C:4](=[O:5])[H:12])([C:6]#[C:7][H:13])[H:11])([H:9])[H:10])[H:8]>>[O:1]([C:2]([C:3]([C:4](=[O:5])[H:12])=[C:6]=[C:7]([H:11])[H:13])([H:9])[H:10])[H:8]"
O       -2.23880170      -0.48266957      -0.24188074
C       -1.01928147      -0.84745849       0.34648407
C        0.08797199       0.13173361       0.01048880
C       -0.13759640       1.54527355       0.36155735
O       -1.17489016       1.95134690       0.83314180
C        1.42385114      -0.26824968      -0.03916287
C        2.31148864      -0.88079251      -0.67485235
H       -2.48537558       0.37058806       0.13222947
H       -1.10194134      -0.91655539       1.44026229
H       -0.75164469      -1.83520191      -0.02735529
H        1.07584566       0.20259616      -1.38672048
H        0.72130307       2.22900573       0.21713888
H        3.28907084      -1.19961645      -0.97133093
13
Frame=10 idx=010424 GeodesicLength=0.9806302459517381 rxn_smarts="[O:1]([C:2]([C@@:3]([C:4](=[O:5])[H:12])([C:6]#[C:7][H:13])[H:11])([H:9])[H:10])[H:8]>>[O:1]([C:2]([C:3]([C:4](=[O:5])[H:12])=[C:6]=[C:7]([H:11])[H:13])([H:9])[H:10])[H:8]"
O       -2.23768522      -0.48075714      -0.24538665
C       -1.01836929      -0.84535173       0.34400209
C        0.09059814       0.12998893      -0.00402347
C       -0.13034497       1.54356265       0.36522238
O       -1.16458724       1.94788919       0.84286429
C        1.42542190      -0.27588776      -0.02146196
C        2.29933814      -0.86255202      -0.70019605
H       -2.48735291       0.36996787       0.13194786
H       -1.09987596      -0.90796923       1.43790087
H       -0.75425685      -1.83619816      -0.02414493
H        1.05128418       0.17042523      -1.42094062
H        0.73146331       2.22536244       0.23028814
H        3.29436677      -1.17848028      -0.93607196
13
Frame=11 idx=010424 GeodesicLength=1.0787470316209047 rxn_smarts="[O:1]([C:2]([C@@:3]([C:4](=[O:5])[H:12])([C:6]#[C:7][H:13])[H:11])([H:9])[H:10])[H:8]>>[O:1]([C:2]([C:3]([C:4](=[O:5])[H:12])=[C:6]=[C:7]([H:11])[H:13])([H:9])[H:10])[H:8]"
O       -2.23633636      -0.47824343      -0.24997174
C       -1.01806439      -0.84329945       0.34178546
C        0.09392790       0.12699025      -0.01741266
C       -0.12195114       1.54093247       0.36848509
O       -1.15311951       1.94457015       0.85124078
C        1.42656043      -0.28650803      -0.00087659
C        2.28947805      -0.84054103      -0.72114367
H       -2.48883211       0.37025783       0.13000229
H       -1.09969303      -0.89897890       1.43570194
H       -0.75816014      -1.83767051      -0.01986065
H        1.02570148       0.13423712      -1.45428443
H        0.74349869       2.21980589       0.24348602
H        3.29699015      -1.15155236      -0.90715182
13
Frame=12 idx=010424 GeodesicLength=1.1769797707017466 rxn_smarts="[O:1]([C:2]([C@@:3]([C:4](=[O:5])[H:12])([C:6]#[C:7][H:13])[H:11])([H:9])[H:10])[H:8]>>[O:1]([C:2]([C:3]([C:4](=[O:5])[H:12])=[C:6]=[C:7]([H:11])[H:13])([H:9])[H:10])[H:8]"
O       -2.23470893      -0.47514633      -0.25562478
C       -1.01831171      -0.84128118       0.33982401
C        0.09803671       0.12274229      -0.02970312
C       -0.11243775       1.53740524       0.37138432
O       -1.14051951       1.94136314       0.85835959
C        1.42723828      -0.30008834       0.02251096
C        2.28131222      -0.81396722      -0.73847096
H       -2.48978707       0.37145055       0.12638890
H       -1.10128779      -0.88957480       1.43364864
H       -0.76331764      -1.83957390      -0.01451552
H        0.99872774       0.09394221      -1.48692526
H        0.75740293       2.21232181       0.25694611
H        3.29765253      -1.11959347      -0.88382288
13
Frame=13 idx=010424 GeodesicLength=1.275422628514855 rxn_smarts="[O:1]([C:2]([C@@:3]([C:4](=[O:5])[H:12])([C:6]#[C:7][H:13])[H:11])([H:9])[H:10])[H:8]>>[O:1]([C:2]([C:3]([C:4](=[O:5])[H:12])=[C:6]=[C:7]([H:11])[H:13])([H:9])[H:10])[H:8]"
O       -2.23306700      -0.47115598      -0.26218337
C       -1.01940757      -0.83931790       0.33810669
C        0.10289478       0.11683826      -0.04109150
C       -0.10146733       1.53268365       0.37370478
O       -1.12623509       1.93824177       0.86424596
C        1.42717917      -0.31745697       0.04851567
C        2.27422503      -0.78230401      -0.75264410
H       -2.49020287       0.37393032       0.12131306
H       -1.10479986      -0.87971685       1.43173097
H       -0.77042726      -1.84199808      -0.00811807
H        0.96998379       0.04848828      -1.51910275
H        0.77379074       2.20223087       0.27071045
H        3.29753347      -1.08046337      -0.86518778
13
Frame=14 idx=010424 GeodesicLength=1.3741512993426852 rxn_smarts="[O:1]([C:2]([C@@:3]([C:4](=[O:5])[H:12])([C:6]#[C:7][H:13])[H:11])([H:9])[H:10])[H:8]>>[O:1]([C:2]([C:3]([C:4](=[O:5])[H:12])=[C:6]=[C:7]([H:11])[H:13])([H:9])[H:10])[H:8]"
O       -2.23108883      -0.46648908      -0.26975112
C       -1.02101817      -0.83740012       0.33658851
C        0.10871562       0.10941756      -0.05157272
C       -0.08910774       1.52686092       0.37559742
O       -1.11045788       1.93513331       0.86892126
C        1.42658481      -0.33826407       0.07689439
C        2.26743768      -0.74422548      -0.76405642
H       -2.48991552       0.37746589       0.11461463
H       -1.10987739      -0.86941029       1.42988545
H       -0.77901481      -1.84486271      -0.00069201
H        0.93950367      -0.00200458      -1.55080649
H        0.79246263       2.18970853       0.28501802
H        3.29577592      -1.03592988      -0.85064092
13
Frame=15 idx=010424 GeodesicLength=1.473258773626878 rxn_smarts="[O:1]([C:2]([C@@:3]([C:4](=[O:5])[H:12])([C:6]#[C:7][H:13])[H:11])([H:9])[H:10])[H:8]>>[O:1]([C:2]([C:3]([C:4](=[O:5])[H:12])=[C:6]=[C:7]([H:11])[H:13])([H:9])[H:10])[H:8]"
O       -2.22807520      -0.46179649      -0.27849678
C       -1.02227580      -0.83547164       0.33512908
C        0.11581474       0.10121166      -0.06116538
C       -0.07593623       1.52048494       0.37736556
O       -1.09407790       1.93193304       0.87257207
C        1.42605716      -0.36090596       0.10723006
C        2.26001392      -0.69813257      -0.77283901
H       -2.48876264       0.38123426       0.10615032
H       -1.11559390      -0.85875620       1.42794904
H       -0.78759179      -1.84789251       0.00753177
H        0.90802077      -0.05629122      -1.58185574
H        0.81236548       2.17583411       0.30022622
H        3.29004138      -0.99145141      -0.83979720
13
Frame=16 idx=010424 GeodesicLength=1.572742350849114 rxn_smarts="[O:1]([C:2]([C@@:3]([C:4](=[O:5])[H:12])([C:6]#[C:7][H:13])[H:11])([H:9])[H:10])[H:8]>>[O:1]([C:2]([C:3]([C:4](=[O:5])[H:12])=[C:6]=[C:7]([H:11])[H:13])([H:9])[H:10])[H:8]"
O       -2.22288842      -0.45829948      -0.28872459
C       -1.02168185      -0.83336945       0.33348865
C        0.12457810       0.09383165      -0.06989059
C       -0.06335858       1.51485396       0.37936901
O       -1.07907792       1.92859130       0.87550943
C        1.42668180      -0.38191010       0.13927334
C        2.25091228      -0.64347349      -0.77834620
H       -2.48671754       0.38359337       0.09577970
H       -1.12042238      -0.84789903       1.42565576
H       -0.79331504      -1.85053201       0.01611740
H        0.87761967      -0.11147897      -1.61166620
H        0.83125220       2.16301257       0.31714898
H        3.27641770      -0.95692031      -0.83371469
