12
Frame=0 idx=002286 GeodesicLength=0.0 rxn_smarts="[O:1]=[C:2]1[C:3]([H:7])([H:8])[C:4]([H:9])([H:10])[C:5]([H:11])([H:12])[O:6]1>>[C:5]([H:11])[H:12].[O:1]=[C:2]1[C:3]([H:7])([H:8])[C:4]([H:9])([H:10])[O:6]1"
O        1.91155086       1.38592018      -0.43210047
C        1.08155741       0.59986121      -0.14705298
C        0.84025884      -0.85400442      -0.46599806
C       -0.30970148      -0.92842375       0.49050619
C       -1.27866858       0.95318614      -0.16943942
O        0.03778513       0.84463098       0.74248614
H        0.56596408      -1.01020438      -1.50563080
H        1.69792219      -1.47059698      -0.19528598
H       -1.26585310      -1.29930206       0.16699013
H       -0.05564127      -1.17213146       1.51937414
H       -2.03858933       1.00321144       0.61271363
H       -1.18658479       1.94785311      -0.61656248
12
Frame=1 idx=002286 GeodesicLength=0.0405530049565918 rxn_smarts="[O:1]=[C:2]1[C:3]([H:7])([H:8])[C:4]([H:9])([H:10])[C:5]([H:11])([H:12])[O:6]1>>[C:5]([H:11])[H:12].[O:1]=[C:2]1[C:3]([H:7])([H:8])[C:4]([H:9])([H:10])[O:6]1"
O        1.91418011       1.38911743      -0.44008462
C        1.08602673       0.60255715      -0.15041638
C        0.84419461      -0.85286826      -0.46351923
C       -0.31733860      -0.92047430       0.48221099
C       -1.28610536       0.94847521      -0.14559132
O        0.04268356       0.84896608       0.73771460
H        0.58081761      -1.01207975      -1.50583513
H        1.69876852      -1.46938925      -0.18369386
H       -1.26258380      -1.30888937       0.14500658
H       -0.07635203      -1.17649664       1.51139519
H       -2.03104368       1.02854338       0.64832541
H       -1.19324767       1.92253832      -0.63551222
12
Frame=2 idx=002286 GeodesicLength=0.08103310224239674 rxn_smarts="[O:1]=[C:2]1[C:3]([H:7])([H:8])[C:4]([H:9])([H:10])[C:5]([H:11])([H:12])[O:6]1>>[C:5]([H:11])[H:12].[O:1]=[C:2]1[C:3]([H:7])([H:8])[C:4]([H:9])([H:10])[O:6]1"
O        1.91690386       1.39185960      -0.44826286
C        1.09041478       0.60513470      -0.15409759
C        0.84811789      -0.85172835      -0.46083280
C       -0.32502692      -0.91232038       0.47360839
C       -1.29315396       0.94413809      -0.12161494
O        0.04759158       0.85320796       0.73255485
H        0.59591038      -1.01436481      -1.50556964
H        1.69951333      -1.46794726      -0.17157357
H       -1.25908345      -1.31738732       0.12269741
H       -0.09731955      -1.18057886       1.50275455
H       -2.02250466       1.05374653       0.68298910
H       -1.20136329       1.89624009      -0.65265292
12
Frame=3 idx=002286 GeodesicLength=0.1215370399409569 rxn_smarts="[O:1]=[C:2]1[C:3]([H:7])([H:8])[C:4]([H:9])([H:10])[C:5]([H:11])([H:12])[O:6]1>>[C:5]([H:11])[H:12].[O:1]=[C:2]1[C:3]([H:7])([H:8])[C:4]([H:9])([H:10])[O:6]1"
O        1.91990769       1.39457136      -0.45573258
C        1.09481318       0.60778450      -0.15755946
C        0.85182488      -0.85044907      -0.45821240
C       -0.33268347      -0.90419639       0.46497780
C       -1.29983111       0.94003256      -0.09741247
O        0.05233056       0.85746267       0.72742313
H        0.61062974      -1.01629183      -1.50526309
H        1.69995137      -1.46644740      -0.15980032
H       -1.25543090      -1.32516513       0.10070659
H       -0.11811342      -1.18472626       1.49376705
H       -2.01299550       1.07964561       0.71674345
H       -1.21040302       1.86777937      -0.66963770
12
Frame=4 idx=002286 GeodesicLength=0.16194490991834792 rxn_smarts="[O:1]=[C:2]1[C:3]([H:7])([H:8])[C:4]([H:9])([H:10])[C:5]([H:11])([H:12])[O:6]1>>[C:5]([H:11])[H:12].[O:1]=[C:2]1[C:3]([H:7])([H:8])[C:4]([H:9])([H:10])[O:6]1"
O        1.92315608       1.39712817      -0.46307845
C        1.09918537       0.61044702      -0.16118124
C        0.85548651      -0.84920065      -0.45552668
C       -0.34034924      -0.89604869       0.45622904
C       -1.30610465       0.93624506      -0.07320415
O        0.05694237       0.86176107       0.72205954
H        0.62541181      -1.01843884      -1.50475975
H        1.70025465      -1.46490400      -0.14786396
H       -1.25163673      -1.33212989       0.07874660
H       -0.13899410      -1.18879332       1.48439049
H       -2.00267611       1.10559778       0.74946106
H       -1.22067596       1.83833627      -0.68527250
12
Frame=5 idx=002286 GeodesicLength=0.202305815420068 rxn_smarts="[O:1]=[C:2]1[C:3]([H:7])([H:8])[C:4]([H:9])([H:10])[C:5]([H:11])([H:12])[O:6]1>>[C:5]([H:11])[H:12].[O:1]=[C:2]1[C:3]([H:7])([H:8])[C:4]([H:9])([H:10])[O:6]1"
O        1.92659450       1.39955012      -0.47029077
C        1.10351137       0.61313100      -0.16494164
C        0.85910251      -0.84796866      -0.45277841
C       -0.34800948      -0.88787727       0.44733654
C       -1.31199673       0.93276832      -0.04894286
O        0.06143216       0.86609098       0.71649435
H        0.64026180      -1.02078770      -1.50406907
H        1.70043008      -1.46329502      -0.13575434
H       -1.24771606      -1.33828320       0.05676531
H       -0.15995448      -1.19281457       1.47460665
H       -1.99153599       1.13173788       0.78115438
H       -1.23211967       1.80774812      -0.69958012
12
Frame=6 idx=002286 GeodesicLength=0.24268297256294616 rxn_smarts="[O:1]=[C:2]1[C:3]([H:7])([H:8])[C:4]([H:9])([H:10])[C:5]([H:11])([H:12])[O:6]1>>[C:5]([H:11])[H:12].[O:1]=[C:2]1[C:3]([H:7])([H:8])[C:4]([H:9])([H:10])[O:6]1"
O        1.93020066       1.40182388      -0.47742838
C        1.10777482       0.61582992      -0.16888666
C        0.86268953      -0.84675403      -0.44994356
C       -0.35566892      -0.87966936       0.43827060
C       -1.31750668       0.92957141      -0.02461981
O        0.06580824       0.87043874       0.71069349
H        0.65523764      -1.02339242      -1.50314274
H        1.70049311      -1.46157289      -0.12339772
H       -1.24369237      -1.34360571       0.03469680
H       -0.18102983      -1.19678623       1.46436058
H       -1.97957236       1.15804512       0.81182713
H       -1.24473384       1.77607156      -0.71242973
12
Frame=7 idx=002286 GeodesicLength=0.28311233420894216 rxn_smarts="[O:1]=[C:2]1[C:3]([H:7])([H:8])[C:4]([H:9])([H:10])[C:5]([H:11])([H:12])[O:6]1>>[C:5]([H:11])[H:12].[O:1]=[C:2]1[C:3]([H:7])([H:8])[C:4]([H:9])([H:10])[O:6]1"
O        1.93395036       1.40397511      -0.48455099
C        1.11196127       0.61855515      -0.17305122
C        0.86625711      -0.84556200      -0.44701019
C       -0.36333103      -0.87143018       0.42901993
C       -1.32264236       0.92664059      -0.00023787
O        0.07006839       0.87481182       0.70464261
H        0.67038266      -1.02629473      -1.50196859
H        1.70044864      -1.45970991      -0.11073850
H       -1.23959061      -1.34811470       0.01249085
H       -0.20224908      -1.20073115       1.45364628
H       -1.96681227       1.18448468       0.84150416
H       -1.25844307       1.74337531      -0.72374646
12
Frame=8 idx=002286 GeodesicLength=0.323551792075569 rxn_smarts="[O:1]=[C:2]1[C:3]([H:7])([H:8])[C:4]([H:9])([H:10])[C:5]([H:11])([H:12])[O:6]1>>[C:5]([H:11])[H:12].[O:1]=[C:2]1[C:3]([H:7])([H:8])[C:4]([H:9])([H:10])[O:6]1"
O        1.93787520       1.40598136      -0.49163849
C        1.11606781       0.62129860      -0.17745808
C        0.86980958      -0.84441251      -0.44397777
C       -0.37096829      -0.86316293       0.41960507
C       -1.32738962       0.92393318       0.02410334
O        0.07419407       0.87922672       0.69830105
H        0.68566649      -1.02952693      -1.50053507
H        1.70030833      -1.45772299      -0.09778624
H       -1.23540842      -1.35184576      -0.00979323
H       -0.22355853      -1.20462284       1.44248337
H       -1.95333916       1.21094199       0.87003260
H       -1.27325746       1.70991210      -0.73333656
12
Frame=9 idx=002286 GeodesicLength=0.36400217192042195 rxn_smarts="[O:1]=[C:2]1[C:3]([H:7])([H:8])[C:4]([H:9])([H:10])[C:5]([H:11])([H:12])[O:6]1>>[C:5]([H:11])[H:12].[O:1]=[C:2]1[C:3]([H:7])([H:8])[C:4]([H:9])([H:10])[O:6]1"
O        1.94201500       1.40779595      -0.49864893
C        1.12010627       0.62403743      -0.18209492
C        0.87332874      -0.84328550      -0.44085200
C       -0.37855922      -0.85485233       0.41007261
C       -1.33174177       0.92138235       0.04831787
O        0.07815962       0.88368241       0.69162717
H        0.70100862      -1.03302354      -1.49881513
H        1.70005871      -1.45559828      -0.08461970
H       -1.23115780      -1.35481431      -0.03204734
H       -0.24488828      -1.20841550       1.43089450
H       -1.93927342       1.23724918       0.89728757
H       -1.28905648       1.67584214      -0.74112170
12
Frame=10 idx=002286 GeodesicLength=0.4045152598199401 rxn_smarts="[O:1]=[C:2]1[C:3]([H:7])([H:8])[C:4]([H:9])([H:10])[C:5]([H:11])([H:12])[O:6]1>>[C:5]([H:11])[H:12].[O:1]=[C:2]1[C:3]([H:7])([H:8])[C:4]([H:9])([H:10])[O:6]1"
O        1.94631483       1.40953313      -0.50562177
C        1.12405361       0.62681746      -0.18698035
C        0.87682208      -0.84221144      -0.43763217
C       -0.38610880      -0.84654947       0.40041404
C       -1.33570665       0.91895153       0.07244748
O        0.08196899       0.88820842       0.68465353
H        0.71645981      -1.03686434      -1.49685390
H        1.69970521      -1.45334545      -0.07117205
H       -1.22684693      -1.35710436      -0.05435055
H       -0.26627084      -1.21220569       1.41889758
H       -1.92461871       1.26351374       0.92338082
H       -1.30577260       1.64125648      -0.74718266
12
Frame=11 idx=002286 GeodesicLength=0.44497061333357735 rxn_smarts="[O:1]=[C:2]1[C:3]([H:7])([H:8])[C:4]([H:9])([H:10])[C:5]([H:11])([H:12])[O:6]1>>[C:5]([H:11])[H:12].[O:1]=[C:2]1[C:3]([H:7])([H:8])[C:4]([H:9])([H:10])[O:6]1"
O        1.95062679       1.41105924      -0.51314753
C        1.12783582       0.62958941      -0.19243850
C        0.88042186      -0.84128599      -0.43415985
C       -0.39365401      -0.83820987       0.39048189
C       -1.33928740       0.91675339       0.09638728
O        0.08565413       0.89279883       0.67716373
H        0.73240020      -1.04154281      -1.49439393
H        1.69936706      -1.45082550      -0.05693176
H       -1.22245451      -1.35865549      -0.07701788
H       -0.28795290      -1.21590460       1.40636043
H       -1.90949064       1.28908129       0.94829796
H       -1.32346642       1.60714210      -0.75060186
12
Frame=12 idx=002286 GeodesicLength=0.48549917347842697 rxn_smarts="[O:1]=[C:2]1[C:3]([H:7])([H:8])[C:4]([H:9])([H:10])[C:5]([H:11])([H:12])[O:6]1>>[C:5]([H:11])[H:12].[O:1]=[C:2]1[C:3]([H:7])([H:8])[C:4]([H:9])([H:10])[O:6]1"
O        1.95523440       1.41224053      -0.52019274
C        1.13156194       0.63226809      -0.19796323
C        0.88387047      -0.84026805      -0.43064423
C       -0.40105707      -0.82979147       0.38055333
C       -1.34248723       0.91443813       0.12006385
O        0.08912463       0.89737603       0.66928470
H        0.74799098      -1.04609855      -1.49160464
H        1.69883826      -1.44811088      -0.04282240
H       -1.21799563      -1.35950442      -0.09932310
H       -0.30929660      -1.21941363       1.39341050
H       -1.89395005       1.31443691       0.97164911
H       -1.34183408       1.57242731      -0.75241114
12
Frame=13 idx=002286 GeodesicLength=0.525926633571076 rxn_smarts="[O:1]=[C:2]1[C:3]([H:7])([H:8])[C:4]([H:9])([H:10])[C:5]([H:11])([H:12])[O:6]1>>[C:5]([H:11])[H:12].[O:1]=[C:2]1[C:3]([H:7])([H:8])[C:4]([H:9])([H:10])[O:6]1"
O        1.96000622       1.41332499      -0.52739623
C        1.13518068       0.63497936      -0.20386513
C        0.88733210      -0.83937729      -0.42700049
C       -0.40839217      -0.82143239       0.37055315
C       -1.34532044       0.91218766       0.14343815
O        0.09237258       0.90210213       0.66096355
H        0.76372671      -1.05118171      -1.48852392
H        1.69824657      -1.44527234      -0.02832681
H       -1.21345260      -1.35988625      -0.12161374
H       -0.33065341      -1.22289991       1.38016522
H       -1.87819530       1.33917217       0.99373851
H       -1.36085094       1.53828358      -0.75213226
12
Frame=14 idx=002286 GeodesicLength=0.5663619608085297 rxn_smarts="[O:1]=[C:2]1[C:3]([H:7])([H:8])[C:4]([H:9])([H:10])[C:5]([H:11])([H:12])[O:6]1>>[C:5]([H:11])[H:12].[O:1]=[C:2]1[C:3]([H:7])([H:8])[C:4]([H:9])([H:10])[O:6]1"
O        1.96487322       1.41422170      -0.53479338
C        1.13865917       0.63766958      -0.21017532
C        0.89080959      -0.83857396      -0.42318032
C       -0.41565594      -0.81307990       0.36041635
C       -1.34780034       0.90993230       0.16659133
O        0.09541656       0.90690802       0.65214389
H        0.77964481      -1.05679604      -1.48501514
H        1.69759427      -1.44219592      -0.01336694
H       -1.20882018      -1.35970011      -0.14398088
H       -0.35203677      -1.22634103       1.36647115
H       -1.86217241       1.36328820       1.01463885
H       -1.38051199       1.50466716      -0.74974960
12
Frame=15 idx=002286 GeodesicLength=0.6068380399318037 rxn_smarts="[O:1]=[C:2]1[C:3]([H:7])([H:8])[C:4]([H:9])([H:10])[C:5]([H:11])([H:12])[O:6]1>>[C:5]([H:11])[H:12].[O:1]=[C:2]1[C:3]([H:7])([H:8])[C:4]([H:9])([H:10])[O:6]1"
O        1.96979246       1.41493841      -0.54246111
C        1.14199101       0.64033470      -0.21691792
C        0.89430836      -0.83785323      -0.41915704
C       -0.42286102      -0.80473259       0.35012450
C       -1.34993347       0.90765735       0.18956959
O        0.09826051       0.91179429       0.64280621
H        0.79578369      -1.06296905      -1.48103569
H        1.69688013      -1.43883659       0.00213048
H       -1.20410018      -1.35893902      -0.16650029
H       -0.37348715      -1.22976973       1.35229540
H       -1.84588892       1.38672644       1.03448464
H       -1.40074542       1.47164902      -0.74533877
12
Frame=16 idx=002286 GeodesicLength=0.6473294234383822 rxn_smarts="[O:1]=[C:2]1[C:3]([H:7])([H:8])[C:4]([H:9])([H:10])[C:5]([H:11])([H:12])[O:6]1>>[C:5]([H:11])[H:12].[O:1]=[C:2]1[C:3]([H:7])([H:8])[C:4]([H:9])([H:10])[O:6]1"
O        1.97478147       1.41545768      -0.55035629
C        1.14518344       0.64296047      -0.22407048
C        0.89781353      -0.83720848      -0.41494115
C       -0.42998595      -0.79640308       0.33971532
C       -1.35171576       0.90530568       0.21233545
O        0.10087429       0.91677170       0.63292423
H        0.81208000      -1.06965874      -1.47658416
H        1.69608808      -1.43519639       0.01809955
H       -1.19927689      -1.35765966      -0.18908938
H       -0.39493571      -1.23318227       1.33766942
H       -1.82945195       1.40941418       1.05323353
H       -1.42145453       1.43939893      -0.73893603
