13
Frame=0 idx=000463 GeodesicLength=0.0 rxn_smarts="[O:1]([C@@:2]1([H:8])[C:3]([H:9])([H:10])[C@@:4]2([H:11])[N:5]([H:12])[C@@:6]12[H:13])[H:7]>>[O:1]=[C:2]([C:3]([C@@:4]1([H:11])[N:5]([H:12])[C:6]1([H:7])[H:13])([H:9])[H:10])[H:8]"
O        2.11789070       0.52557536       0.30779543
C        1.14946635       0.05629361      -0.44801134
C        0.35653639      -1.21666587      -0.14233403
C       -0.91761273      -0.41768267       0.01239197
N       -0.90872016       0.36413189       1.22217999
C       -0.38850089       0.98905839      -0.00640036
H        0.97806184       1.15787402       0.35663469
H        1.15542992       0.28945753      -1.52502409
H        0.67801563      -1.70475790       0.77474079
H        0.35651885      -1.91212012      -0.98015950
H       -1.84925038      -0.67230151      -0.47528197
H       -1.83582908       0.73130623       1.40625021
H       -0.89200642       1.80983098      -0.50278185
13
Frame=1 idx=000463 GeodesicLength=0.08632240623986287 rxn_smarts="[O:1]([C@@:2]1([H:8])[C:3]([H:9])([H:10])[C@@:4]2([H:11])[N:5]([H:12])[C@@:6]12[H:13])[H:7]>>[O:1]=[C:2]([C:3]([C@@:4]1([H:11])[N:5]([H:12])[C:6]1([H:7])[H:13])([H:9])[H:10])[H:8]"
O        2.12426478       0.52021202       0.29451636
C        1.15561237       0.05164603      -0.45989301
C        0.35677865      -1.21436043      -0.14045938
C       -0.91789053      -0.41506498       0.00946070
N       -0.91471047       0.36165024       1.22381503
C       -0.39173967       0.99146495      -0.00026156
H        0.97847730       1.16818090       0.37366130
H        1.16381201       0.27897475      -1.53778711
H        0.68054703      -1.69516118       0.77984270
H        0.35214947      -1.91777449      -0.97169225
H       -1.84586863      -0.66832856      -0.48589542
H       -1.84370804       0.72468859       1.40629085
H       -0.89772428       1.81387215      -0.49159823
13
Frame=2 idx=000463 GeodesicLength=0.17262306319478585 rxn_smarts="[O:1]([C@@:2]1([H:8])[C:3]([H:9])([H:10])[C@@:4]2([H:11])[N:5]([H:12])[C@@:6]12[H:13])[H:7]>>[O:1]=[C:2]([C:3]([C@@:4]1([H:11])[N:5]([H:12])[C:6]1([H:7])[H:13])([H:9])[H:10])[H:8]"
O        2.13035237       0.51530735       0.28075175
C        1.16175413       0.04675107      -0.47220531
C        0.35704986      -1.21199451      -0.13858578
C       -0.91811344      -0.41234733       0.00645790
N       -0.92086411       0.35904164       1.22545816
C       -0.39486736       0.99390211       0.00611649
H        0.97883312       1.17847440       0.39175512
H        1.17220296       0.26785433      -1.55102540
H        0.68325417      -1.68529891       0.78492671
H        0.34770210      -1.92353174      -0.96293444
H       -1.84232031      -0.66410049      -0.49672657
H       -1.85174833       0.71796849       1.40617496
H       -0.90323514       1.81797359      -0.48016360
13
Frame=3 idx=000463 GeodesicLength=0.2589068418883953 rxn_smarts="[O:1]([C@@:2]1([H:8])[C:3]([H:9])([H:10])[C@@:4]2([H:11])[N:5]([H:12])[C@@:6]12[H:13])[H:7]>>[O:1]=[C:2]([C:3]([C@@:4]1([H:11])[N:5]([H:12])[C:6]1([H:7])[H:13])([H:9])[H:10])[H:8]"
O        2.13609695       0.51092912       0.26646773
C        1.16788724       0.04158131      -0.48498619
C        0.35735444      -1.20956529      -0.13671381
C       -0.91827222      -0.40952339       0.00338010
N       -0.92719135       0.35629887       1.22710466
C       -0.39786245       0.99636591       0.01275398
H        0.97912240       1.18872552       0.41101408
H        1.18058996       0.25604530      -1.56477335
H        0.68615881      -1.67514889       0.78998696
H        0.34316876      -1.92939940      -0.95386331
H       -1.83858594      -0.65959583      -0.50778832
H       -1.85995833       0.71115157       1.40587900
H       -0.90850826       1.82213521      -0.46846154
13
Frame=4 idx=000463 GeodesicLength=0.345208535940316 rxn_smarts="[O:1]([C@@:2]1([H:8])[C:3]([H:9])([H:10])[C@@:4]2([H:11])[N:5]([H:12])[C@@:6]12[H:13])[H:7]>>[O:1]=[C:2]([C:3]([C@@:4]1([H:11])[N:5]([H:12])[C:6]1([H:7])[H:13])([H:9])[H:10])[H:8]"
O        2.14145645       0.50713722       0.25163541
C        1.17401073       0.03611204      -0.49826807
C        0.35769622      -1.20707428      -0.13484589
C       -0.91836022      -0.40658607       0.00022163
N       -0.93369949       0.35341391       1.22875095
C       -0.40070796       0.99885384       0.01966472
H        0.97932902       1.19892244       0.43152353
H        1.18896943       0.24349973      -1.57905970
H        0.68927878      -1.66469770       0.79502090
H        0.33854262      -1.93538723      -0.94445996
H       -1.83465438      -0.65479404      -0.51909187
H       -1.86834321       0.70424080       1.40538944
H       -0.91351800       1.82635935      -0.45648108
13
Frame=5 idx=000463 GeodesicLength=0.4314965803215473 rxn_smarts="[O:1]([C@@:2]1([H:8])[C:3]([H:9])([H:10])[C@@:4]2([H:11])[N:5]([H:12])[C@@:6]12[H:13])[H:7]>>[O:1]=[C:2]([C:3]([C@@:4]1([H:11])[N:5]([H:12])[C:6]1([H:7])[H:13])([H:9])[H:10])[H:8]"
O        2.14634946       0.50402146       0.23622057
C        1.18011936       0.03030749      -0.51209279
C        0.35808033      -1.20451941      -0.13298129
C       -0.91836567      -0.40352828      -0.00302065
N       -0.94039790       0.35037889       1.23039172
C       -0.40337608       1.00136058       0.02687345
H        0.97944345       1.20902134       0.45338425
H        1.19732709       0.23015621      -1.59392005
H        0.69263835      -1.65392158       0.80001783
H        0.33381742      -1.94149848      -0.93469676
H       -1.83050198      -0.64966977      -0.53065312
H       -1.87690792       0.69724599       1.40467820
H       -0.91822590       1.83064556      -0.44420137
13
Frame=6 idx=000463 GeodesicLength=0.5177732082736736 rxn_smarts="[O:1]([C@@:2]1([H:8])[C:3]([H:9])([H:10])[C@@:4]2([H:11])[N:5]([H:12])[C@@:6]12[H:13])[H:7]>>[O:1]=[C:2]([C:3]([C@@:4]1([H:11])[N:5]([H:12])[C:6]1([H:7])[H:13])([H:9])[H:10])[H:8]"
O        2.15069800       0.50167514       0.22018968
C        1.18621040       0.02412911      -0.52650013
C        0.35851233      -1.20190031      -0.13112479
C       -0.91827787      -0.40034184      -0.00635179
N       -0.94729455       0.34718531       1.23201980
C       -0.40584247       1.00387975       0.03440041
H        0.97945370       1.21898718       0.47670190
H        1.20565440       0.21594950      -1.60938835
H        0.69626173      -1.64279862       0.80496773
H        0.32898388      -1.94773817      -0.92454700
H       -1.82610746      -0.64419478      -0.54248362
H       -1.88565657       0.69017582       1.40372102
H       -0.92259553       1.83499189      -0.43160485
13
Frame=7 idx=000463 GeodesicLength=0.604060028770851 rxn_smarts="[O:1]([C@@:2]1([H:8])[C:3]([H:9])([H:10])[C@@:4]2([H:11])[N:5]([H:12])[C@@:6]12[H:13])[H:7]>>[O:1]=[C:2]([C:3]([C@@:4]1([H:11])[N:5]([H:12])[C:6]1([H:7])[H:13])([H:9])[H:10])[H:8]"
O        2.15443241       0.50017831       0.20350919
C        1.19228331       0.01753924      -0.54152419
C        0.35899725      -1.19921734      -0.12927832
C       -0.91808631      -0.39701834      -0.00977658
N       -0.95439549       0.34382553       1.23363027
C       -0.40808450       1.00640618       0.04226451
H        0.97933899       1.22879947       0.50156737
H        1.21394919       0.20082236      -1.62548979
H        0.70017001      -1.63131304       0.80986156
H        0.32403310      -1.95411422      -0.91398931
H       -1.82145182      -0.63834438      -0.55459403
H       -1.89459164       0.68303760       1.40249777
H       -0.92659449       1.83939864      -0.41867844
13
Frame=8 idx=000463 GeodesicLength=0.6903438746110477 rxn_smarts="[O:1]([C@@:2]1([H:8])[C:3]([H:9])([H:10])[C@@:4]2([H:11])[N:5]([H:12])[C@@:6]12[H:13])[H:7]>>[O:1]=[C:2]([C:3]([C@@:4]1([H:11])[N:5]([H:12])[C:6]1([H:7])[H:13])([H:9])[H:10])[H:8]"
O        2.15745048       0.49963586       0.18614175
C        1.19833544       0.01049012      -0.55720324
C        0.35954160      -1.19646865      -0.12744580
C       -0.91777707      -0.39354954      -0.01329874
N       -0.96170631       0.34029323       1.23521242
C       -0.41007566       1.00893091       0.05048839
H        0.97908584       1.23841606       0.52808605
H        1.22220646       0.18470398      -1.64225215
H        0.70438805      -1.61944304       0.81468247
H        0.31895688      -1.96062523      -0.90299488
H       -1.81650907      -0.63208946      -0.56699377
H       -1.90371338       0.67584502       1.40097933
H       -0.93018325       1.84386075      -0.40540183
13
Frame=9 idx=000463 GeodesicLength=0.7765524321332185 rxn_smarts="[O:1]([C@@:2]1([H:8])[C:3]([H:9])([H:10])[C@@:4]2([H:11])[N:5]([H:12])[C@@:6]12[H:13])[H:7]>>[O:1]=[C:2]([C:3]([C@@:4]1([H:11])[N:5]([H:12])[C:6]1([H:7])[H:13])([H:9])[H:10])[H:8]"
O        2.15962292       0.50018673       0.16805267
C        1.20437496       0.00292649      -0.57357049
C        0.36015275      -1.19365695      -0.12562986
C       -0.91733605      -0.38992398      -0.01692724
N       -0.96922698       0.33657952       1.23675678
C       -0.41178347       1.01145042       0.05909763
H        0.97868075       1.24777577       0.55634294
H        1.23042387       0.16752057      -1.65969803
H        0.70893603      -1.60717380       0.81941990
H        0.31374884      -1.96728134      -0.89153573
H       -1.81126103      -0.62539824      -0.57970131
H       -1.91301527       0.66860743       1.39914515
H       -0.93331729       1.84838739      -0.39175242
13
Frame=10 idx=000463 GeodesicLength=0.862752998763183 rxn_smarts="[O:1]([C@@:2]1([H:8])[C:3]([H:9])([H:10])[C@@:4]2([H:11])[N:5]([H:12])[C@@:6]12[H:13])[H:7]>>[O:1]=[C:2]([C:3]([C@@:4]1([H:11])[N:5]([H:12])[C:6]1([H:7])[H:13])([H:9])[H:10])[H:8]"
O        2.16086037       0.50191050       0.14919042
C        1.21040333      -0.00520010      -0.59065207
C        0.36083775      -1.19077976      -0.12383797
C       -0.91674884      -0.38613060      -0.02066526
N       -0.97696269       0.33267682       1.23825556
C       -0.41318788       1.01395622       0.06811358
H        0.97809441       1.25686530       0.58643765
H        1.23860876       0.14919646      -1.67784136
H        0.71383809      -1.59448840       0.82405299
H        0.30839971      -1.97407268      -0.87958376
H       -1.80567816      -0.61823813      -0.59272293
H       -1.92249846       0.66133463       1.39696949
H       -0.93596639       1.85296973      -0.37771634
13
Frame=11 idx=000463 GeodesicLength=0.9489591395300392 rxn_smarts="[O:1]([C@@:2]1([H:8])[C:3]([H:9])([H:10])[C@@:4]2([H:11])[N:5]([H:12])[C@@:6]12[H:13])[H:7]>>[O:1]=[C:2]([C:3]([C@@:4]1([H:11])[N:5]([H:12])[C:6]1([H:7])[H:13])([H:9])[H:10])[H:8]"
O        2.16105179       0.50490795       0.12950972
C        1.21642999      -0.01394280      -0.60846672
C        0.36160328      -1.18783687      -0.12207365
C       -0.91600100      -0.38215714      -0.02451771
N       -0.98491222       0.32857756       1.23970104
C       -0.41426929       1.01644567       0.07755543
H        0.97730008       1.26565976       0.61844427
H        1.24677879       0.12965526      -1.69668838
H        0.71911120      -1.58137714       0.82856534
H        0.30290284      -1.98099885      -0.86712160
H       -1.79973816      -0.61057844      -0.60606676
H       -1.93215604       0.65403387       1.39443495
H       -0.93810127       1.85761117      -0.36327593
13
Frame=12 idx=000463 GeodesicLength=1.0351451826034503 rxn_smarts="[O:1]([C@@:2]1([H:8])[C:3]([H:9])([H:10])[C@@:4]2([H:11])[N:5]([H:12])[C@@:6]12[H:13])[H:7]>>[O:1]=[C:2]([C:3]([C@@:4]1([H:11])[N:5]([H:12])[C:6]1([H:7])[H:13])([H:9])[H:10])[H:8]"
O        2.16006059       0.50928942       0.10896536
C        1.22247081      -0.02335834      -0.62702358
C        0.36245608      -1.18482676      -0.12034834
C       -0.91507671      -0.37798962      -0.02849059
N       -0.99307073       0.32427544       1.24108257
C       -0.41500936       1.01891289       0.08744566
H        0.97627999       1.27411837       0.65242134
H        1.25495844       0.10881432      -1.71623318
H        0.72477022      -1.56782971       0.83293267
H        0.29725181      -1.98804420      -0.85412638
H       -1.79341611      -0.60238489      -0.61973636
H       -1.94197741       0.64671348       1.39152595
H       -0.93969762       1.86230960      -0.34841509
13
Frame=13 idx=000463 GeodesicLength=1.1213182914496256 rxn_smarts="[O:1]([C@@:2]1([H:8])[C:3]([H:9])([H:10])[C@@:4]2([H:11])[N:5]([H:12])[C@@:6]12[H:13])[H:7]>>[O:1]=[C:2]([C:3]([C@@:4]1([H:11])[N:5]([H:12])[C:6]1([H:7])[H:13])([H:9])[H:10])[H:8]"
O        2.15775122       0.51515079       0.08750600
C        1.22854897      -0.03350668      -0.64632423
C        0.36340359      -1.18174719      -0.11866937
C       -0.91395776      -0.37361131      -0.03258894
N       -1.00142999       0.31976494       1.24239304
C       -0.41539132       1.02135723       0.09780567
H        0.97500179       1.28221714       0.68840608
H        1.26318104       0.08659655      -1.73645668
H        0.73082670      -1.55384395       0.83713383
H        0.29144010      -1.99519745      -0.84058524
H       -1.78668953      -0.59362461      -0.63373715
H       -1.95195084       0.63937727       1.38823193
H       -0.94073396       1.86706726      -0.33311495
13
Frame=14 idx=000463 GeodesicLength=1.2074623718262891 rxn_smarts="[O:1]([C@@:2]1([H:8])[C:3]([H:9])([H:10])[C@@:4]2([H:11])[N:5]([H:12])[C@@:6]12[H:13])[H:7]>>[O:1]=[C:2]([C:3]([C@@:4]1([H:11])[N:5]([H:12])[C:6]1([H:7])[H:13])([H:9])[H:10])[H:8]"
O        2.15397018       0.52258153       0.06508158
C        1.23469075      -0.04444474      -0.66635039
C        0.36445329      -1.17859347      -0.11705083
C       -0.91262801      -0.36900506      -0.03681551
N       -1.00997845       0.31503989       1.24362403
C       -0.41541040       1.02377837       0.10865388
H        0.97345180       1.28992869       0.72641118
H        1.27149609       0.06291607      -1.75732411
H        0.73728870      -1.53941922       0.84113829
H        0.28546165      -2.00243293      -0.82648936
H       -1.77953057      -0.58425994      -0.64806713
H       -1.96205834       0.63202767       1.38454605
H       -0.94120669       1.87188314      -0.31735769
13
Frame=15 idx=000463 GeodesicLength=1.293570343551995 rxn_smarts="[O:1]([C@@:2]1([H:8])[C:3]([H:9])([H:10])[C@@:4]2([H:11])[N:5]([H:12])[C@@:6]12[H:13])[H:7]>>[O:1]=[C:2]([C:3]([C@@:4]1([H:11])[N:5]([H:12])[C:6]1([H:7])[H:13])([H:9])[H:10])[H:8]"
O        2.14857666       0.53164009       0.04164659
C        1.24093240      -0.05622242      -0.68706789
C        0.36560929      -1.17536117      -0.11550792
C       -0.91107209      -0.36415192      -0.04117257
N       -1.01869733       0.31009712       1.24477054
C       -0.41507125       1.02617946       0.12000269
H        0.97161091       1.29724085       0.76640279
H        1.27997287       0.03770262      -1.77877862
H        0.74415267      -1.52456615       0.84491697
H        0.27931260      -2.00971621      -0.81184263
H       -1.77192170      -0.57426080      -0.66271749
H       -1.97227790       0.62466059       1.38047601
H       -0.94112714       1.87675794      -0.30112845
13
Frame=16 idx=000463 GeodesicLength=1.3796453939996287 rxn_smarts="[O:1]([C@@:2]1([H:8])[C:3]([H:9])([H:10])[C@@:4]2([H:11])[N:5]([H:12])[C@@:6]12[H:13])[H:7]>>[O:1]=[C:2]([C:3]([C@@:4]1([H:11])[N:5]([H:12])[C:6]1([H:7])[H:13])([H:9])[H:10])[H:8]"
O        2.14142306       0.54235948       0.01715027
C        1.24731854      -0.06888942      -0.70842176
C        0.36687624      -1.17204088      -0.11405926
C       -0.90927454      -0.35903100      -0.04566082
N       -1.02756265       0.30493317       1.24582859
C       -0.41438632       1.02856859       0.13186587
H        0.96946262       1.30415534       0.80831385
H        1.28869559       0.01088485      -1.80074144
H        0.75140831      -1.50929904       0.84843348
H        0.27298996      -2.01700342      -0.79665895
H       -1.76384444      -0.56359687      -0.67767565
H       -1.98258376       0.61726424       1.37603668
H       -0.94052262       1.88169496      -0.28441086
