15
Frame=0 idx=006680 GeodesicLength=0.0 rxn_smarts="[C:1]([C@@:2]1([O:3][H:11])[C:4]([H:12])([H:13])[C:5]([H:14])([H:15])[C:6]1=[O:7])([H:8])([H:9])[H:10]>>[C:1]([C@@:2]([O:3][H:11])([C:4]([C:5](=[C:6]=[O:7])[H:15])([H:12])[H:13])[H:14])([H:8])([H:9])[H:10]"
C       -1.48380109      -0.45628743      -0.23115492
C       -0.30033940       0.44499925       0.01817317
O       -0.59500134       1.78423683      -0.13789551
C        0.59475393       0.14539080       1.20405419
C        1.57362046      -0.59223982       0.34261027
C        1.02740696      -0.29445500      -0.93554956
O        1.01845509      -0.75326725      -2.07650312
H       -2.33590357      -0.13218602       0.37196821
H       -1.75411304      -0.42103554      -1.28930124
H       -1.24551463      -1.49323229       0.00248391
H       -1.20304759       1.89591229      -0.87317203
H        0.94582309       0.99851950       1.78561163
H        0.09690405      -0.55553962       1.88112107
H        1.38862223       0.80036564      -0.70446706
H        2.27213486      -1.37118135       0.64202105
15
Frame=1 idx=006680 GeodesicLength=0.11279503761317006 rxn_smarts="[C:1]([C@@:2]1([O:3][H:11])[C:4]([H:12])([H:13])[C:5]([H:14])([H:15])[C:6]1=[O:7])([H:8])([H:9])[H:10]>>[C:1]([C@@:2]([O:3][H:11])([C:4]([C:5](=[C:6]=[O:7])[H:15])([H:12])[H:13])[H:14])([H:8])([H:9])[H:10]"
C       -1.48478402      -0.45444777      -0.23103120
C       -0.29904842       0.44760312       0.01179658
O       -0.60622389       1.78763237      -0.12933194
C        0.59220359       0.14386581       1.20052279
C        1.58611267      -0.57879434       0.34069254
C        1.03425124      -0.31691334      -0.94131514
O        1.03085120      -0.77068893      -2.08041146
H       -2.32847012      -0.14122085       0.38921368
H       -1.77205725      -0.40882861      -1.28427576
H       -1.24203645      -1.49378418      -0.01238986
H       -1.19842548       1.90351561      -0.87675606
H        0.93792652       1.00109785       1.77925193
H        0.09764871      -0.55577697       1.88040157
H        1.38861067       0.81064955      -0.69163697
H        2.26344103      -1.37390932       0.64526929
15
Frame=2 idx=006680 GeodesicLength=0.22557844241310113 rxn_smarts="[C:1]([C@@:2]1([O:3][H:11])[C:4]([H:12])([H:13])[C:5]([H:14])([H:15])[C:6]1=[O:7])([H:8])([H:9])[H:10]>>[C:1]([C@@:2]([O:3][H:11])([C:4]([C:5](=[C:6]=[O:7])[H:15])([H:12])[H:13])[H:14])([H:8])([H:9])[H:10]"
C       -1.48607360      -0.45233949      -0.23109200
C       -0.29778875       0.45014240       0.00518498
O       -0.61742649       1.79080635      -0.12053253
C        0.58950886       0.14184817       1.19676620
C        1.59813613      -0.56573910       0.33844842
C        1.04082141      -0.34077088      -0.94672516
O        1.04318372      -0.78912701      -2.08410879
H       -2.32097072      -0.15004830       0.40604158
H       -1.79036313      -0.39622547      -1.27901131
H       -1.23947377      -1.49398445      -0.02751547
H       -1.19326645       1.91165139      -0.87983659
H        0.92997142       1.00295617       1.77287445
H        0.09812108      -0.55642013       1.87943410
H        1.38858556       0.82098666      -0.67864029
H        2.25703471      -1.37373632       0.64871241
15
Frame=3 idx=006680 GeodesicLength=0.33835182493205573 rxn_smarts="[C:1]([C@@:2]1([O:3][H:11])[C:4]([H:12])([H:13])[C:5]([H:14])([H:15])[C:6]1=[O:7])([H:8])([H:9])[H:10]>>[C:1]([C@@:2]([O:3][H:11])([C:4]([C:5](=[C:6]=[O:7])[H:15])([H:12])[H:13])[H:14])([H:8])([H:9])[H:10]"
C       -1.48763947      -0.44998227      -0.23133420
C       -0.29655268       0.45263636      -0.00168254
O       -0.62864512       1.79375679      -0.11152506
C        0.58668713       0.13939441       1.19276623
C        1.60972223      -0.55297018       0.33583376
C        1.04709680      -0.36607910      -0.95173929
O        1.05549652      -0.80849634      -2.08759883
H       -2.31339489      -0.15870816       0.42243960
H       -1.80899184      -0.38326407      -1.27349572
H       -1.23778297      -1.49384848      -0.04285833
H       -1.18762491       1.92030715      -0.88239499
H        0.92195923       1.00416619       1.76645705
H        0.09836863      -0.55742547       1.87821034
H        1.38855117       0.83152474      -0.66543697
H        2.25275016      -1.37101156       0.65235897
15
Frame=4 idx=006680 GeodesicLength=0.45111531160957297 rxn_smarts="[C:1]([C@@:2]1([O:3][H:11])[C:4]([H:12])([H:13])[C:5]([H:14])([H:15])[C:6]1=[O:7])([H:8])([H:9])[H:10]>>[C:1]([C@@:2]([O:3][H:11])([C:4]([C:5](=[C:6]=[O:7])[H:15])([H:12])[H:13])[H:14])([H:8])([H:9])[H:10]"
C       -1.48945583      -0.44739217      -0.23175534
C       -0.29532988       0.45509777      -0.00882929
O       -0.63990209       1.79647646      -0.10233880
C        0.58375525       0.13654739       1.18850305
C        1.62089443      -0.54040342       0.33279838
C        1.05305183      -0.39291696      -0.95630670
O        1.06783203      -0.82871102      -2.09088226
H       -2.30573366      -0.16722594       0.43839442
H       -1.82790792      -0.36998003      -1.26771846
H       -1.23693532      -1.49339036      -0.05838122
H       -1.18154482       1.92946963      -0.88441207
H        0.91389322       1.00478253       1.75997805
H        0.09843404      -0.55875941       1.87672010
H        1.38851459       0.84240278      -0.65197568
H        2.25043414      -1.36599724       0.65620582
15
Frame=5 idx=006680 GeodesicLength=0.5638682742617592 rxn_smarts="[C:1]([C@@:2]1([O:3][H:11])[C:4]([H:12])([H:13])[C:5]([H:14])([H:15])[C:6]1=[O:7])([H:8])([H:9])[H:10]>>[C:1]([C@@:2]([O:3][H:11])([C:4]([C:5](=[C:6]=[O:7])[H:15])([H:12])[H:13])[H:14])([H:8])([H:9])[H:10]"
C       -1.49150210      -0.44458147      -0.23235372
C       -0.29410813       0.45753337      -0.01628144
O       -0.65120776       1.79895363      -0.09300481
C        0.58072886       0.13333732       1.18395498
C        1.63166691      -0.52797254       0.32928411
C        1.05865407      -0.42139198      -0.96036480
O        1.08023088      -0.84968160      -2.09395487
H       -2.29798105      -0.17561282       0.45389140
H       -1.84707952      -0.35640632      -1.26167109
H       -1.23691760      -1.49262318      -0.07404379
H       -1.17505943       1.93912487      -0.88587030
H        0.90577826       1.00484386       1.75341586
H        0.09835524      -0.56039821       1.87495103
H        1.38848421       0.85375456      -0.63819237
H        2.24995716      -1.35887950       0.66023981
15
Frame=6 idx=006680 GeodesicLength=0.6766098917059649 rxn_smarts="[C:1]([C@@:2]1([O:3][H:11])[C:4]([H:12])([H:13])[C:5]([H:14])([H:15])[C:6]1=[O:7])([H:8])([H:9])[H:10]>>[C:1]([C@@:2]([O:3][H:11])([C:4]([C:5](=[C:6]=[O:7])[H:15])([H:12])[H:13])[H:14])([H:8])([H:9])[H:10]"
C       -1.49376284      -0.44155903      -0.23312847
C       -0.29287346       0.45994448      -0.02406886
O       -0.66256240       1.80117298      -0.08355678
C        0.57762237       0.12978322       1.17909800
C        1.64204331      -0.51562738       0.32522217
C        1.06386349      -0.45164104      -0.96383802
O        1.09273178      -0.87131105      -2.09680600
H       -2.29013450      -0.18386694       0.46891508
H       -1.86647858      -0.34257366      -1.25534745
H       -1.23773138      -1.49155958      -0.08980252
H       -1.16819214       1.94925714      -0.88675556
H        0.89762160       1.00437464       1.74674818
H        0.09816609      -0.56232680       1.87288847
H        1.38847051       0.86571250      -0.62400698
H        2.25121615      -1.34977947       0.66443874
15
Frame=7 idx=006680 GeodesicLength=0.789339182178233 rxn_smarts="[C:1]([C@@:2]1([O:3][H:11])[C:4]([H:12])([H:13])[C:5]([H:14])([H:15])[C:6]1=[O:7])([H:8])([H:9])[H:10]>>[C:1]([C@@:2]([O:3][H:11])([C:4]([C:5](=[C:6]=[O:7])[H:15])([H:12])[H:13])[H:14])([H:8])([H:9])[H:10]"
C       -1.49622752      -0.43833024      -0.23407995
C       -0.29161006       0.46232701      -0.03222600
O       -0.67395700       1.80311573      -0.07403097
C        0.57444870       0.12589317       1.17390524
C        1.65201689      -0.50333084       0.32053039
C        1.06863190      -0.48383269      -0.96663524
O        1.10536950      -0.89349617      -2.09941258
H       -2.28219525      -0.19197308       0.48344867
H       -1.88607998      -0.32850960      -1.24874445
H       -1.23939277      -1.49021199      -0.10561124
H       -1.16095537       1.95984972      -0.88705795
H        0.88943148       1.00338516       1.73995238
H        0.09789724      -0.56454014       1.87051422
H        1.38848345       0.87841206      -0.60932155
H        2.25413878      -1.33875810       0.66876902
15
Frame=8 idx=006680 GeodesicLength=0.9020557191962835 rxn_smarts="[C:1]([C@@:2]1([O:3][H:11])[C:4]([H:12])([H:13])[C:5]([H:14])([H:15])[C:6]1=[O:7])([H:8])([H:9])[H:10]>>[C:1]([C@@:2]([O:3][H:11])([C:4]([C:5](=[C:6]=[O:7])[H:15])([H:12])[H:13])[H:14])([H:8])([H:9])[H:10]"
C       -1.49888960      -0.43489705      -0.23521041
C       -0.29029961       0.46467205      -0.04079304
O       -0.68537447       1.80476019      -0.06446663
C        0.57121976       0.12166491       1.16834625
C        1.66157007      -0.49105642       0.31510914
C        1.07290374      -0.51816795      -0.96864788
O        1.11817126      -0.91613005      -2.10173278
H       -2.27416805      -0.19990404       0.49747408
H       -1.90586094      -0.31423813      -1.24186299
H       -1.24193052      -1.48859269      -0.12142263
H       -1.15335097       1.97088445      -0.88677232
H        0.88121724       1.00187195       1.73300562
H        0.09757751      -0.56704346       1.86780560
H        1.38853282       0.89199732      -0.59401464
H        2.25868176      -1.32582106       0.67318262
15
Frame=9 idx=006680 GeodesicLength=1.014759393133939 rxn_smarts="[C:1]([C@@:2]1([O:3][H:11])[C:4]([H:12])([H:13])[C:5]([H:14])([H:15])[C:6]1=[O:7])([H:8])([H:9])[H:10]>>[C:1]([C@@:2]([O:3][H:11])([C:4]([C:5](=[C:6]=[O:7])[H:15])([H:12])[H:13])[H:14])([H:8])([H:9])[H:10]"
C       -1.50174309      -0.43125819      -0.23652566
C       -0.28891977       0.46696772      -0.04981867
O       -0.69678966       1.80608322      -0.05490674
C        0.56794656       0.11708717       1.16238437
C        1.67067169      -0.47878412       0.30883544
C        1.07661894      -0.55487756      -0.96974770
O        1.13114915      -0.93911446      -2.10369507
H       -2.26605550      -0.20762676       0.51097380
H       -1.92580067      -0.29977646      -1.23470729
H       -1.24538022      -1.48671371      -0.13719491
H       -1.14537561       1.98234111      -0.88589530
H        0.87298990       0.99981788       1.72588413
H        0.09723523      -0.56985273       1.86473163
H        1.38863422       0.90662825      -0.57793189
H        2.26481884      -1.31092139       0.67761385
15
Frame=10 idx=006680 GeodesicLength=1.1274467619346524 rxn_smarts="[C:1]([C@@:2]1([O:3][H:11])[C:4]([H:12])([H:13])[C:5]([H:14])([H:15])[C:6]1=[O:7])([H:8])([H:9])[H:10]>>[C:1]([C@@:2]([O:3][H:11])([C:4]([C:5](=[C:6]=[O:7])[H:15])([H:12])[H:13])[H:14])([H:8])([H:9])[H:10]"
C       -1.50478324      -0.42740703      -0.23804020
C       -0.28744403       0.46919972      -0.05935853
O       -0.70817231       1.80705999      -0.04539010
C        0.56463980       0.11213718       1.15597889
C        1.67928180      -0.46649638       0.30155966
C        1.07971778      -0.59421923      -0.96978249
O        1.14428241      -0.96239613      -2.10516903
H       -2.25786411      -0.21509994       0.52392167
H       -1.94587626      -0.28512981      -1.22729289
H       -1.24978369      -1.48458455      -0.15290129
H       -1.13701366       1.99420673      -0.88442197
H        0.86475739       0.99718875       1.71857010
H        0.09689971      -0.57300149       1.86125225
H        1.38879290       0.92249187      -0.56088602
H        2.27256550      -1.29394967       0.68195994
15
Frame=11 idx=006680 GeodesicLength=1.2401131101171878 rxn_smarts="[C:1]([C@@:2]1([O:3][H:11])[C:4]([H:12])([H:13])[C:5]([H:14])([H:15])[C:6]1=[O:7])([H:8])([H:9])[H:10]>>[C:1]([C@@:2]([O:3][H:11])([C:4]([C:5](=[C:6]=[O:7])[H:15])([H:12])[H:13])[H:14])([H:8])([H:9])[H:10]"
C       -1.50799841      -0.42333143      -0.23978066
C       -0.28583858       0.47135738      -0.06947902
O       -0.71948813       1.80766750      -0.03595135
C        0.56131025       0.10678288       1.14907995
C        1.68734644      -0.45416883       0.29309527
C        1.08215058      -0.63645984      -0.96857741
O        1.15749371      -0.98600831      -2.10595291
H       -2.24959100      -0.22228847       0.53628673
H       -1.96606203      -0.27028564      -1.21964410
H       -1.25517376      -1.48220983      -0.16854579
H       -1.12824714       2.00647360      -0.88233943
H        0.85652474       0.99393156       1.71105192
H        0.09660355      -0.57654301       1.85730959
H        1.38901938       0.93981434      -0.54263030
H        2.28195040      -1.27473191       0.68607752
15
Frame=12 idx=006680 GeodesicLength=1.352754141986361 rxn_smarts="[C:1]([C@@:2]1([O:3][H:11])[C:4]([H:12])([H:13])[C:5]([H:14])([H:15])[C:6]1=[O:7])([H:8])([H:9])[H:10]>>[C:1]([C@@:2]([O:3][H:11])([C:4]([C:5](=[C:6]=[O:7])[H:15])([H:12])[H:13])[H:14])([H:8])([H:9])[H:10]"
C       -1.51136472      -0.41901129      -0.24179401
C       -0.28406057       0.47344023      -0.08025578
O       -0.73070343       1.80788772      -0.02661035
C        0.55797011       0.10098263       1.14162951
C        1.69480114      -0.44175759       0.28321246
C        1.08389137      -0.68185437      -0.96593219
O        1.17061287      -1.01014807      -2.10574823
H       -2.24122201      -0.22917031       0.54802321
H       -1.98632222      -0.25520629      -1.21180214
H       -1.26156196      -1.47958458      -0.18418266
H       -1.11905638       2.01915026      -0.87961667
H        0.84828832       0.98997060       1.70333472
H        0.09638620      -0.58055890       1.85282311
H        1.38932007       0.95887822      -0.52284163
H        2.29302121      -1.25301826       0.68976065
15
Frame=13 idx=006680 GeodesicLength=1.4653645496862064 rxn_smarts="[C:1]([C@@:2]1([O:3][H:11])[C:4]([H:12])([H:13])[C:5]([H:14])([H:15])[C:6]1=[O:7])([H:8])([H:9])[H:10]>>[C:1]([C@@:2]([O:3][H:11])([C:4]([C:5](=[C:6]=[O:7])[H:15])([H:12])[H:13])[H:14])([H:8])([H:9])[H:10]"
C       -1.51483739      -0.41441555      -0.24415704
C       -0.28205594       0.47546775      -0.09177092
O       -0.74178884       1.80771118      -0.01736012
C        0.55463374       0.09468644       1.13356132
C        1.70157149      -0.42918254       0.27163208
C        1.08495408      -0.73061537      -0.96161656
O        1.18333510      -1.03527191      -2.10414494
H       -2.23272455      -0.23574988       0.55906109
H       -2.00660196      -0.23981875      -1.20383143
H       -1.26892058      -1.47668707      -0.19994182
H       -1.10942497       2.03227134      -0.87618836
H        0.84003000       0.98520287       1.69545134
H        0.09629616      -0.58516652       1.84768248
H        1.38969184       0.98003265      -0.50109711
H        2.30584181      -1.22846465       0.69271999
15
Frame=14 idx=006680 GeodesicLength=1.577942805804685 rxn_smarts="[C:1]([C@@:2]1([O:3][H:11])[C:4]([H:12])([H:13])[C:5]([H:14])([H:15])[C:6]1=[O:7])([H:8])([H:9])[H:10]>>[C:1]([C@@:2]([O:3][H:11])([C:4]([C:5](=[C:6]=[O:7])[H:15])([H:12])[H:13])[H:14])([H:8])([H:9])[H:10]"
C       -1.51834232      -0.40950051      -0.24698570
C       -0.27975792       0.47749175      -0.10410748
O       -0.75272443       1.80714393      -0.00815533
C        0.55132107       0.08784043       1.12480372
C        1.70757484      -0.41631023       0.25802338
C        1.08540951      -0.78288269      -0.95535972
O        1.19518469      -1.06217996      -2.10063056
H       -2.22404289      -0.24207193       0.56929401
H       -2.02681777      -0.22401026      -1.19582796
H       -1.27716410      -1.47347354      -0.21604984
H       -1.09934948       2.04590811      -0.87193908
H        0.83171541       0.97949867       1.68747430
H        0.09639507      -0.59052086       1.84174568
H        1.39011563       1.00368974      -0.47684940
H        2.32048270      -1.20062265       0.69456396
15
Frame=15 idx=006680 GeodesicLength=1.6904929349238291 rxn_smarts="[C:1]([C@@:2]1([O:3][H:11])[C:4]([H:12])([H:13])[C:5]([H:14])([H:15])[C:6]1=[O:7])([H:8])([H:9])[H:10]>>[C:1]([C@@:2]([O:3][H:11])([C:4]([C:5](=[C:6]=[O:7])[H:15])([H:12])[H:13])[H:14])([H:8])([H:9])[H:10]"
C       -1.52177100      -0.40420901      -0.25043931
C       -0.27708820       0.47960588      -0.11733987
O       -0.76350187       1.80620957       0.00109681
C        0.54806098       0.08039140       1.11528386
C        1.71271613      -0.40294278       0.24200283
C        1.08539374      -0.83870460      -0.94682900
O        1.20550789      -1.09205167      -2.09462091
H       -2.21509876      -0.24822730       0.57856800
H       -2.04684483      -0.20763125      -1.18792631
H       -1.28613826      -1.46987294      -0.23283483
H       -1.08884061       2.06017425      -0.86669166
H        0.82329640       0.97270244       1.67952244
H        0.09675895      -0.59680916       1.83484377
H        1.39053854       1.03029197      -0.44941594
H        2.33701089      -1.16892680       0.69478012
15
Frame=16 idx=006680 GeodesicLength=1.8030345469603688 rxn_smarts="[C:1]([C@@:2]1([O:3][H:11])[C:4]([H:12])([H:13])[C:5]([H:14])([H:15])[C:6]1=[O:7])([H:8])([H:9])[H:10]>>[C:1]([C@@:2]([O:3][H:11])([C:4]([C:5](=[C:6]=[O:7])[H:15])([H:12])[H:13])[H:14])([H:8])([H:9])[H:10]"
C       -1.52497937      -0.39847273      -0.25471822
C       -0.27396099       0.48195177      -0.13152344
O       -0.77412501       1.80495045       0.01053893
C        0.54489580       0.07229614       1.10493081
C        1.71687582      -0.38882279       0.22313219
C        1.08511099      -0.89803556      -0.93560250
O        1.21351090      -1.12639535      -2.08549361
H       -2.20579495      -0.25435532       0.58667749
H       -2.06650947      -0.19050616      -1.18030068
H       -1.29561384      -1.46578598      -0.25071854
H       -1.07793063       2.07522264      -0.86019974
H        0.81472526       0.96464293       1.67175390
H        0.09747661      -0.60422565       1.82679422
H        1.39085875       1.06024051      -0.41799032
H        2.35546014      -1.13270492       0.69271952
