14
Frame=0 idx=006624 GeodesicLength=0.0 rxn_smarts="[O:1]=[C:2]([C@@:3]1([H:9])[C@@:4]2([H:10])[C:5]([H:11])([H:12])[C:6]([H:13])([H:14])[N:7]12)[H:8]>>[O:1]=[C:2](/[C:3](=[C:4](\[N:7]1[C:5]([H:11])([H:12])[C:6]1([H:13])[H:14])[H:10])[H:9])[H:8]"
O        2.63393856       1.90131811       0.66371636
C        1.66462707       1.18564191       0.52200359
C        1.11090744       0.81138420      -0.75953049
C       -0.13279912       0.14002693      -0.83043398
C       -0.37119282      -1.19331418       0.06121015
C       -1.65308677      -0.56116556       0.52927775
N       -1.10921462       0.71692598       0.08638892
H        1.16709142       0.73192989       1.40215488
H        1.63942093       1.14809030      -1.64505834
H       -0.50685640      -0.06167785      -1.84020371
H        0.38555137      -1.27515982       0.83175602
H       -0.39691865      -2.08121500      -0.56500684
H       -1.88747914      -0.62319096       1.59269119
H       -2.54398925      -0.83959391      -0.04896546
14
Frame=1 idx=006624 GeodesicLength=0.08521745169940183 rxn_smarts="[O:1]=[C:2]([C@@:3]1([H:9])[C@@:4]2([H:10])[C:5]([H:11])([H:12])[C:6]([H:13])([H:14])[N:7]12)[H:8]>>[O:1]=[C:2](/[C:3](=[C:4](\[N:7]1[C:5]([H:11])([H:12])[C:6]1([H:13])[H:14])[H:10])[H:9])[H:8]"
O        2.71392418       1.77660404       0.66617282
C        1.66585843       1.18299057       0.52223323
C        1.08008263       0.84941358      -0.75657723
C       -0.12980721       0.12662439      -0.85487141
C       -0.36354409      -1.19476021       0.07648557
C       -1.65368934      -0.56750872       0.52557463
N       -1.10330622       0.69847327       0.06128669
H        1.13236644       0.80436463       1.41684954
H        1.57946556       1.23172588      -1.64099772
H       -0.49865342      -0.07421505      -1.86559059
H        0.38478870      -1.27818476       0.85522679
H       -0.38154033      -2.08928722      -0.54061878
H       -1.88878874      -0.60455747       1.58974000
H       -2.53715659      -0.86168293      -0.05491354
14
Frame=2 idx=006624 GeodesicLength=0.17062151236898815 rxn_smarts="[O:1]=[C:2]([C@@:3]1([H:9])[C@@:4]2([H:10])[C:5]([H:11])([H:12])[C:6]([H:13])([H:14])[N:7]12)[H:8]>>[O:1]=[C:2](/[C:3](=[C:4](\[N:7]1[C:5]([H:11])([H:12])[C:6]1([H:13])[H:14])[H:10])[H:9])[H:8]"
O        2.77877645       1.64850963       0.66050796
C        1.66958488       1.17815565       0.52150183
C        1.05019642       0.88438083      -0.75186523
C       -0.12467554       0.11356681      -0.87706831
C       -0.35546909      -1.19563904       0.09307308
C       -1.65466835      -0.57371743       0.52054346
N       -1.09469425       0.68012610       0.03953557
H        1.10855577       0.87929727       1.42935683
H        1.51637747       1.31658396      -1.63173075
H       -0.48841652      -0.08425251      -1.88909805
H        0.38225846      -1.28160342       0.88172635
H       -0.36483366      -2.09612094      -0.51562144
H       -1.89389575      -0.58734977       1.58401912
H       -2.52909629      -0.88193715      -0.06488041
14
Frame=3 idx=006624 GeodesicLength=0.2571077679722836 rxn_smarts="[O:1]=[C:2]([C@@:3]1([H:9])[C@@:4]2([H:10])[C:5]([H:11])([H:12])[C:6]([H:13])([H:14])[N:7]12)[H:8]>>[O:1]=[C:2](/[C:3](=[C:4](\[N:7]1[C:5]([H:11])([H:12])[C:6]1([H:13])[H:14])[H:10])[H:9])[H:8]"
O        2.82708863       1.51405482       0.65675516
C        1.67096173       1.17602340       0.51944355
C        1.02020567       0.91786228      -0.74684472
C       -0.11866644       0.10217859      -0.89942809
C       -0.34635872      -1.19545304       0.10825848
C       -1.65367431      -0.57956313       0.51674264
N       -1.08535239       0.66206807       0.01857676
H        1.08822513       0.95889346       1.43687901
H        1.45846738       1.39357186      -1.61870872
H       -0.47833159      -0.09054514      -1.91276671
H        0.38049412      -1.28593284       0.90658432
H       -0.34815577      -2.10100783      -0.49305185
H       -1.89512558      -0.57010855       1.57943777
H       -2.51977786      -0.90204196      -0.07187760
14
Frame=4 idx=006624 GeodesicLength=0.344423551043943 rxn_smarts="[O:1]=[C:2]([C@@:3]1([H:9])[C@@:4]2([H:10])[C:5]([H:11])([H:12])[C:6]([H:13])([H:14])[N:7]12)[H:8]>>[O:1]=[C:2](/[C:3](=[C:4](\[N:7]1[C:5]([H:11])([H:12])[C:6]1([H:13])[H:14])[H:10])[H:9])[H:8]"
O        2.85823785       1.39349194       0.64896720
C        1.67441406       1.17107424       0.51697932
C        0.99260431       0.94629817      -0.74040209
C       -0.11127496       0.09120885      -0.92009339
C       -0.33813091      -1.19566344       0.12326347
C       -1.65292376      -0.58483820       0.51252311
N       -1.07294148       0.64442084       0.00137371
H        1.08013878       1.03528651       1.44261128
H        1.40300064       1.46309528      -1.60237157
H       -0.46799546      -0.09320757      -1.93496250
H        0.37680736      -1.29315547       0.93162799
H       -0.33334663      -2.10510963      -0.47227692
H       -1.89818795      -0.55411455       1.57359961
H       -2.51040185      -0.91878700      -0.08083922
14
Frame=5 idx=006624 GeodesicLength=0.43263777740808157 rxn_smarts="[O:1]=[C:2]([C@@:3]1([H:9])[C@@:4]2([H:10])[C:5]([H:11])([H:12])[C:6]([H:13])([H:14])[N:7]12)[H:8]>>[O:1]=[C:2](/[C:3](=[C:4](\[N:7]1[C:5]([H:11])([H:12])[C:6]1([H:13])[H:14])[H:10])[H:9])[H:8]"
O        2.87639794       1.28058260       0.64212799
C        1.67733489       1.16685980       0.51416477
C        0.96674444       0.97092084      -0.73348442
C       -0.10330364       0.08115728      -0.94024977
C       -0.33017605      -1.19601665       0.13729764
C       -1.65158349      -0.58978591       0.50885577
N       -1.05900393       0.62703002      -0.01368343
H        1.07899416       1.11108846       1.44556973
H        1.35166081       1.52435942      -1.58439242
H       -0.45841923      -0.09236417      -1.95668707
H        0.37260059      -1.30278214       0.95538746
H       -0.32010821      -2.10833489      -0.45396068
H       -1.90019097      -0.53889217       1.56809332
H       -2.50094731      -0.93382250      -0.08903887
14
Frame=6 idx=006624 GeodesicLength=0.5220280931858937 rxn_smarts="[O:1]=[C:2]([C@@:3]1([H:9])[C@@:4]2([H:10])[C:5]([H:11])([H:12])[C:6]([H:13])([H:14])[N:7]12)[H:8]>>[O:1]=[C:2](/[C:3](=[C:4](\[N:7]1[C:5]([H:11])([H:12])[C:6]1([H:13])[H:14])[H:10])[H:9])[H:8]"
O        2.88155028       1.17041997       0.64151840
C        1.67809705       1.16543876       0.51094016
C        0.94247479       0.99218710      -0.72701174
C       -0.09519905       0.07231260      -0.96078351
C       -0.32182480      -1.19645335       0.14942454
C       -1.64836944      -0.59429863       0.50677245
N       -1.04394515       0.60985709      -0.02762921
H        1.08015521       1.18893185       1.44408360
H        1.30593814       1.57657225      -1.56648905
H       -0.45062677      -0.08768573      -1.97843309
H        0.36918735      -1.31514477       0.97610406
H       -0.30862278      -2.11058840      -0.43915665
H       -1.89779303      -0.52380998       1.56438481
H       -2.49102180      -0.94773875      -0.09372477
14
Frame=7 idx=006624 GeodesicLength=0.6125637312544597 rxn_smarts="[O:1]=[C:2]([C@@:3]1([H:9])[C@@:4]2([H:10])[C:5]([H:11])([H:12])[C:6]([H:13])([H:14])[N:7]12)[H:8]>>[O:1]=[C:2](/[C:3](=[C:4](\[N:7]1[C:5]([H:11])([H:12])[C:6]1([H:13])[H:14])[H:10])[H:9])[H:8]"
O        2.87812577       1.06717475       0.64107638
C        1.67956192       1.16358998       0.50735565
C        0.91952957       1.01052548      -0.72011188
C       -0.08681946       0.06405389      -0.98044780
C       -0.31377211      -1.19711541       0.16156965
C       -1.64532002      -0.59879521       0.50445508
N       -1.02764251       0.59279928      -0.03940192
H        1.08910124       1.26599483       1.44005792
H        1.26110490       1.62446247      -1.54746218
H       -0.44327285      -0.08084046      -1.99919302
H        0.36444549      -1.32918894       0.99707381
H       -0.29758434      -2.11242027      -0.42532605
H       -1.89652285      -0.50974359       1.55993297
H       -2.48093475      -0.96049681      -0.09957862
14
Frame=8 idx=006624 GeodesicLength=0.7039321138130182 rxn_smarts="[O:1]=[C:2]([C@@:3]1([H:9])[C@@:4]2([H:10])[C:5]([H:11])([H:12])[C:6]([H:13])([H:14])[N:7]12)[H:8]>>[O:1]=[C:2](/[C:3](=[C:4](\[N:7]1[C:5]([H:11])([H:12])[C:6]1([H:13])[H:14])[H:10])[H:9])[H:8]"
O        2.86531664       0.96977153       0.64663958
C        1.68021651       1.16263201       0.50367867
C        0.89838748       1.02556413      -0.71373502
C       -0.07848386       0.05645658      -1.00036466
C       -0.30571345      -1.19832322       0.17234284
C       -1.64114132      -0.60295233       0.50323378
N       -1.01025657       0.57578093      -0.05006268
H        1.10142574       1.34395006       1.43186067
H        1.21956253       1.66621389      -1.52877140
H       -0.43753292      -0.07122873      -2.01977689
H        0.35981602      -1.34614074       1.01571962
H       -0.28832444      -2.11391349      -0.41431386
H       -1.89241448      -0.49586094       1.55672352
H       -2.47085787      -0.97194969      -0.10317418
14
Frame=9 idx=006624 GeodesicLength=0.7960662393500934 rxn_smarts="[O:1]=[C:2]([C@@:3]1([H:9])[C@@:4]2([H:10])[C:5]([H:11])([H:12])[C:6]([H:13])([H:14])[N:7]12)[H:8]>>[O:1]=[C:2](/[C:3](=[C:4](\[N:7]1[C:5]([H:11])([H:12])[C:6]1([H:13])[H:14])[H:10])[H:9])[H:8]"
O        2.84601791       0.87902179       0.65469729
C        1.68117598       1.16128137       0.49985713
C        0.87845420       1.03814932      -0.70731151
C       -0.07017148       0.04934064      -1.01985321
C       -0.29792319      -1.19994547       0.18288206
C       -1.63691102      -0.60706437       0.50208699
N       -0.99206878       0.55873975      -0.05932048
H        1.12002323       1.42123132       1.42033569
H        1.17873917       1.70445411      -1.50948414
H       -0.43247948      -0.05990671      -2.03961968
H        0.35414957      -1.36499486       1.03392766
H       -0.27975789      -2.11522010      -0.40450906
H       -1.88845926      -0.48254256       1.55330567
H       -2.46078895      -0.98254423      -0.10699441
14
Frame=10 idx=006624 GeodesicLength=0.8887586257331048 rxn_smarts="[O:1]=[C:2]([C@@:3]1([H:9])[C@@:4]2([H:10])[C:5]([H:11])([H:12])[C:6]([H:13])([H:14])[N:7]12)[H:8]>>[O:1]=[C:2](/[C:3](=[C:4](\[N:7]1[C:5]([H:11])([H:12])[C:6]1([H:13])[H:14])[H:10])[H:9])[H:8]"
O        2.81885995       0.79443941       0.67118428
C        1.68118608       1.16040517       0.49626070
C        0.86052777       1.04754333      -0.70178274
C       -0.06208695       0.04266450      -1.03995467
C       -0.29013834      -1.20249618       0.19171558
C       -1.63129595      -0.61076407       0.50234088
N       -0.97284693       0.54154488      -0.06797934
H        1.14070429       1.49978767       1.40340450
H        1.14073786       1.73771370      -1.49077006
H       -0.42926539      -0.04614694      -2.05938496
H        0.34874547      -1.38741612       1.04905811
H       -0.27351867      -2.11651678      -0.39795791
H       -1.88064761      -0.46910417       1.55162867
H       -2.45096157      -0.99165440      -0.10776304
14
Frame=11 idx=006624 GeodesicLength=0.9825274596500968 rxn_smarts="[O:1]=[C:2]([C@@:3]1([H:9])[C@@:4]2([H:10])[C:5]([H:11])([H:12])[C:6]([H:13])([H:14])[N:7]12)[H:8]>>[O:1]=[C:2](/[C:3](=[C:4](\[N:7]1[C:5]([H:11])([H:12])[C:6]1([H:13])[H:14])[H:10])[H:9])[H:8]"
O        2.78674662       0.71458606       0.68907211
C        1.68180882       1.15916788       0.49238311
C        0.84293974       1.05589174      -0.69592721
C       -0.05416596       0.03663948      -1.05936789
C       -0.28245141      -1.20515761       0.20099755
C       -1.62607341      -0.61472801       0.50216396
N       -0.95338354       0.52425914      -0.07540566
H        1.16910692       1.57700926       1.38297426
H        1.10201461       1.76926933      -1.47120317
H       -0.42627916      -0.03130811      -2.07811338
H        0.34177014      -1.41085968       1.06482693
H       -0.26677887      -2.11751244      -0.39158612
H       -1.87433936      -0.45643279       1.54904627
H       -2.44091514      -1.00082426      -0.10986076
14
Frame=12 idx=006624 GeodesicLength=1.0767485038780222 rxn_smarts="[O:1]=[C:2]([C@@:3]1([H:9])[C@@:4]2([H:10])[C:5]([H:11])([H:12])[C:6]([H:13])([H:14])[N:7]12)[H:8]>>[O:1]=[C:2](/[C:3](=[C:4](\[N:7]1[C:5]([H:11])([H:12])[C:6]1([H:13])[H:14])[H:10])[H:9])[H:8]"
O        2.74744209       0.64127547       0.71692373
C        1.68143993       1.15824191       0.48901641
C        0.82739271       1.06135246      -0.69109136
C       -0.04653955       0.03097544      -1.07955175
C       -0.27476975      -1.20900949       0.20838280
C       -1.61934141      -0.61825583       0.50352648
N       -0.93291660       0.50667005      -0.08253808
H        1.19926361       1.65514569       1.35605588
H        1.06564182       1.79674728      -1.45217918
H       -0.42508914      -0.01432515      -2.09673021
H        0.33502355      -1.43827437       1.07702013
H       -0.26267283      -2.11867585      -0.38872945
H       -1.86359596      -0.44354732       1.54845810
H       -2.43127847      -1.00832029      -0.10856349
14
Frame=13 idx=006624 GeodesicLength=1.1724380505492706 rxn_smarts="[O:1]=[C:2]([C@@:3]1([H:9])[C@@:4]2([H:10])[C:5]([H:11])([H:12])[C:6]([H:13])([H:14])[N:7]12)[H:8]>>[O:1]=[C:2](/[C:3](=[C:4](\[N:7]1[C:5]([H:11])([H:12])[C:6]1([H:13])[H:14])[H:10])[H:9])[H:8]"
O        2.70296319       0.57192488       0.74640912
C        1.68165792       1.15720209       0.48522145
C        0.81163405       1.06669921      -0.68577568
C       -0.03913703       0.02618572      -1.09896968
C       -0.26698878      -1.21278368       0.21643933
C       -1.61301562      -0.62222132       0.50435945
N       -0.91251775       0.48891989      -0.08867827
H        1.23794523       1.73111820       1.32501502
H        1.02820538       1.82320229      -1.43233204
H       -0.42394413       0.00354076      -2.11412607
H        0.32646465      -1.46644923       1.09004594
H       -0.25751842      -2.11934813      -0.38572186
H       -1.85452693      -0.43153115       1.54681804
H       -2.42122177      -1.01645953      -0.10870475
14
Frame=14 idx=006624 GeodesicLength=1.2691738019485035 rxn_smarts="[O:1]=[C:2]([C@@:3]1([H:9])[C@@:4]2([H:10])[C:5]([H:11])([H:12])[C:6]([H:13])([H:14])[N:7]12)[H:8]>>[O:1]=[C:2](/[C:3](=[C:4](\[N:7]1[C:5]([H:11])([H:12])[C:6]1([H:13])[H:14])[H:10])[H:9])[H:8]"
O        2.65264695       0.50807354       0.78162468
C        1.68188722       1.15615369       0.48153413
C        0.79639718       1.07109180      -0.68053633
C       -0.03204364       0.02210168      -1.11833095
C       -0.25910238      -1.21709045       0.22409895
C       -1.60634991      -0.62630377       0.50553176
N       -0.89192921       0.47092864      -0.09424815
H        1.28277142       1.80561077       1.28841644
H        0.99087948       1.84772343      -1.41221120
H       -0.42357424       0.02268275      -2.13084983
H        0.31693350      -1.49682100       1.10194725
H       -0.25272771      -2.11986426      -0.38418155
H       -1.84460179      -0.41993381       1.54549501
H       -2.41118687      -1.02435301      -0.10829021
14
Frame=15 idx=006624 GeodesicLength=1.3666850642804307 rxn_smarts="[O:1]=[C:2]([C@@:3]1([H:9])[C@@:4]2([H:10])[C:5]([H:11])([H:12])[C:6]([H:13])([H:14])[N:7]12)[H:8]>>[O:1]=[C:2](/[C:3](=[C:4](\[N:7]1[C:5]([H:11])([H:12])[C:6]1([H:13])[H:14])[H:10])[H:9])[H:8]"
O        2.59522225       0.45144174       0.82584749
C        1.68162707       1.15519404       0.47826935
C        0.78238151       1.07395314      -0.67571634
C       -0.02518524       0.01863043      -1.13798195
C       -0.25118012      -1.22243450       0.23044622
C       -1.59861726      -0.63024459       0.50774271
N       -0.87068957       0.45252507      -0.09954143
H        1.33169095       1.87837365       1.24458844
H        0.95474646       1.86967968      -1.39210984
H       -0.42429340       0.04337598      -2.14693174
H        0.30695812      -1.53044489       1.11091563
H       -0.24970341      -2.12038740      -0.38535155
H       -1.83152107      -0.40857977       1.54548116
H       -2.40143627      -1.03108258      -0.10565816
14
Frame=16 idx=006624 GeodesicLength=1.4662702375820167 rxn_smarts="[O:1]=[C:2]([C@@:3]1([H:9])[C@@:4]2([H:10])[C:5]([H:11])([H:12])[C:6]([H:13])([H:14])[N:7]12)[H:8]>>[O:1]=[C:2](/[C:3](=[C:4](\[N:7]1[C:5]([H:11])([H:12])[C:6]1([H:13])[H:14])[H:10])[H:9])[H:8]"
O        2.53080364       0.40003640       0.87447347
C        1.68181357       1.15409691       0.47467950
C        0.76783202       1.07721143      -0.67032859
C       -0.01868798       0.01629932      -1.15702358
C       -0.24292124      -1.22786208       0.23719699
C       -1.59098356      -0.63479235       0.50970877
N       -0.84968425       0.43385436      -0.10405877
H        1.39026592       1.94792392       1.19448183
H        0.91777149       1.89085867      -1.37132611
H       -0.42541853       0.06516688      -2.16178024
H        0.29529273      -1.56542358       1.11980970
H       -0.24557697      -2.12033159      -0.38694193
H       -1.81929101      -0.39830477       1.54490907
H       -2.39121582      -1.03873351      -0.10380011
