15
Frame=0 idx=010629 GeodesicLength=0.0 rxn_smarts="[O:1]=[C:2]1[C:3]([H:8])([H:9])[C:4]([H:10])([H:11])[C@@:5]2([H:12])[C:6]([H:13])([H:14])[C@@:7]12[H:15]>>[H:9][H:10].[O:1]=[C:2]1[C:3]([H:8])=[C:4]([H:11])[C@@:5]2([H:12])[C:6]([H:13])([H:14])[C@@:7]12[H:15]"
O        0.03665887       2.67986071      -0.40796127
C       -0.09198386       1.48558734      -0.21306918
C       -1.18668090       0.62640298      -0.54956662
C       -0.95644420      -0.72443319      -0.02722242
C        0.45199083      -0.78381374       0.48544811
C        1.50454402      -0.43674165      -0.52453168
C        0.99409512       0.61770976       0.40749409
H       -2.02819926       0.88943173      -1.16973864
H       -1.73300359      -0.12996175       0.77332687
H       -1.63778556      -0.99910743       1.19326000
H       -1.40760284      -1.58438409      -0.51660701
H        0.69592681      -1.46782866       1.28514315
H        1.23258159      -0.36342241      -1.56992712
H        2.48628692      -0.84828202      -0.33054774
H        1.63961605       1.03898246       1.16449952
15
Frame=1 idx=010629 GeodesicLength=0.1043797100388225 rxn_smarts="[O:1]=[C:2]1[C:3]([H:8])([H:9])[C:4]([H:10])([H:11])[C@@:5]2([H:12])[C:6]([H:13])([H:14])[C@@:7]12[H:15]>>[H:9][H:10].[O:1]=[C:2]1[C:3]([H:8])=[C:4]([H:11])[C@@:5]2([H:12])[C:6]([H:13])([H:14])[C@@:7]12[H:15]"
O        0.02309793       2.68167818      -0.38096674
C       -0.09140513       1.48373194      -0.20693661
C       -1.18911362       0.62148449      -0.54407360
C       -0.95526984      -0.72729347      -0.02338323
C        0.45607068      -0.78597186       0.48229376
C        1.50492741      -0.43738454      -0.53053021
C        0.99712792       0.61596111       0.40560550
H       -2.00242146       0.87223428      -1.20585723
H       -1.75715911      -0.10803972       0.78565001
H       -1.65285184      -0.98543109       1.20993781
H       -1.40069982      -1.58773242      -0.51736501
H        0.70374369      -1.46989407       1.28104545
H        1.22875995      -0.36405553      -1.57486588
H        2.48919605      -0.84500147      -0.34114118
H        1.64599719       1.03571418       1.16058714
15
Frame=2 idx=010629 GeodesicLength=0.20844931116858817 rxn_smarts="[O:1]=[C:2]1[C:3]([H:8])([H:9])[C:4]([H:10])([H:11])[C@@:5]2([H:12])[C:6]([H:13])([H:14])[C@@:7]12[H:15]>>[H:9][H:10].[O:1]=[C:2]1[C:3]([H:8])=[C:4]([H:11])[C@@:5]2([H:12])[C:6]([H:13])([H:14])[C@@:7]12[H:15]"
O        0.00935025       2.68276260      -0.35415426
C       -0.09101353       1.48167912      -0.20085348
C       -1.19171220       0.61622453      -0.53876901
C       -0.95389242      -0.73053982      -0.01985233
C        0.46026544      -0.78826790       0.47898249
C        1.50541024      -0.43793339      -0.53659267
C        1.00003522       0.61416576       0.40367179
H       -1.97554939       0.85476316      -1.23983591
H       -1.78209536      -0.08504223       0.79760127
H       -1.66832011      -0.97083868       1.22637460
H       -1.39358627      -1.59142290      -0.51839987
H        0.71164803      -1.47205086       1.27681670
H        1.22509611      -0.36455674      -1.57986588
H        2.49223315      -0.84144379      -0.35177866
H        1.65213083       1.03250113       1.15665522
15
Frame=3 idx=010629 GeodesicLength=0.31237837693477455 rxn_smarts="[O:1]=[C:2]1[C:3]([H:8])([H:9])[C:4]([H:10])([H:11])[C@@:5]2([H:12])[C:6]([H:13])([H:14])[C@@:7]12[H:15]>>[H:9][H:10].[O:1]=[C:2]1[C:3]([H:8])=[C:4]([H:11])[C@@:5]2([H:12])[C:6]([H:13])([H:14])[C@@:7]12[H:15]"
O       -0.00451584       2.68306979      -0.32767526
C       -0.09080017       1.47939332      -0.19482245
C       -1.19445040       0.61056670      -0.53363500
C       -0.95225064      -0.73424398      -0.01667935
C        0.46461223      -0.79072980       0.47551601
C        1.50604194      -0.43839431      -0.54269397
C        1.00282699       0.61230491       0.40170820
H       -1.94798285       0.83716231      -1.27139432
H       -1.80785086      -0.06083901       0.80915229
H       -1.68423063      -0.95526667       1.24243360
H       -1.38618186      -1.59551831      -0.51978500
H        0.71966969      -1.47432115       1.27246620
H        1.22165941      -0.36492732      -1.58490598
H        2.49544751      -0.83759528      -0.36241443
H        1.65800548       1.02933879       1.15272946
15
Frame=4 idx=010629 GeodesicLength=0.4162847252345476 rxn_smarts="[O:1]=[C:2]1[C:3]([H:8])([H:9])[C:4]([H:10])([H:11])[C@@:5]2([H:12])[C:6]([H:13])([H:14])[C@@:7]12[H:15]>>[H:9][H:10].[O:1]=[C:2]1[C:3]([H:8])=[C:4]([H:11])[C@@:5]2([H:12])[C:6]([H:13])([H:14])[C@@:7]12[H:15]"
O       -0.01843737       2.68256793      -0.30166618
C       -0.09075837       1.47684124      -0.18883605
C       -1.19730913       0.60445591      -0.52863703
C       -0.95029476      -0.73847664      -0.01391211
C        0.46914861      -0.79338837       0.47189527
C        1.50687552      -0.43877425      -0.54881171
C        1.00551610       0.61035886       0.39973667
H       -1.92013780       0.81956534      -1.30034046
H       -1.83443941      -0.03529814       0.82030325
H       -1.70061995      -0.93864919       1.25800256
H       -1.37841977      -1.60007861      -0.52160189
H        0.72784319      -1.47673245       1.26799987
H        1.21852098      -0.36516788      -1.58997005
H        2.49889673      -0.83344394      -0.37300845
H        1.66361544       1.02622018       1.14884631
15
Frame=5 idx=010629 GeodesicLength=0.5202648118402866 rxn_smarts="[O:1]=[C:2]1[C:3]([H:8])([H:9])[C:4]([H:10])([H:11])[C@@:5]2([H:12])[C:6]([H:13])([H:14])[C@@:7]12[H:15]>>[H:9][H:10].[O:1]=[C:2]1[C:3]([H:8])=[C:4]([H:11])[C@@:5]2([H:12])[C:6]([H:13])([H:14])[C@@:7]12[H:15]"
O       -0.03234430       2.68123611      -0.27624096
C       -0.09087617       1.47398731      -0.18287515
C       -1.20028160       0.59784909      -0.52368606
C       -0.94796750      -0.74330818      -0.01156645
C        0.47391854      -0.79627204       0.46813170
C        1.50794762      -0.43907475      -0.55493013
C        1.00811855       0.60830541       0.39778119
H       -1.89238407       0.80206214      -1.32656989
H       -1.86190685      -0.00826840       0.83104841
H       -1.71753371      -0.92093834       1.27295078
H       -1.37021176      -1.60515337      -0.52391781
H        0.73621871      -1.47931293       1.26342757
H        1.21571378      -0.36526915      -1.59504145
H        2.50261952      -0.82897362      -0.38354460
H        1.66896925       1.02313070       1.14503284
15
Frame=6 idx=010629 GeodesicLength=0.624385580073844 rxn_smarts="[O:1]=[C:2]1[C:3]([H:8])([H:9])[C:4]([H:10])([H:11])[C@@:5]2([H:12])[C:6]([H:13])([H:14])[C@@:7]12[H:15]>>[H:9][H:10].[O:1]=[C:2]1[C:3]([H:8])=[C:4]([H:11])[C@@:5]2([H:12])[C:6]([H:13])([H:14])[C@@:7]12[H:15]"
O       -0.04619767       2.67905840      -0.25149523
C       -0.09115859       1.47079362      -0.17691964
C       -1.20337570       0.59069011      -0.51869124
C       -0.94522389      -0.74881540      -0.00968328
C        0.47895994      -0.79941539       0.46422602
C        1.50929887      -0.43929806      -0.56103651
C        1.01064325       0.60612166       0.39586653
H       -1.86504202       0.78471705      -1.35000916
H       -1.89024104       0.02041781       0.84144844
H       -1.73501950      -0.90204189       1.28715736
H       -1.36149246      -1.61079882      -0.52682145
H        0.74483775      -1.48209917       1.25874777
H        1.21328368      -0.36522118      -1.60010864
H        2.50666343      -0.82416613      -0.39400560
H        1.67406397       1.02005741       1.14132462
15
Frame=7 idx=010629 GeodesicLength=0.7287172589339846 rxn_smarts="[O:1]=[C:2]1[C:3]([H:8])([H:9])[C:4]([H:10])([H:11])[C@@:5]2([H:12])[C:6]([H:13])([H:14])[C@@:7]12[H:15]>>[H:9][H:10].[O:1]=[C:2]1[C:3]([H:8])=[C:4]([H:11])[C@@:5]2([H:12])[C:6]([H:13])([H:14])[C@@:7]12[H:15]"
O       -0.05995494       2.67602142      -0.22750121
C       -0.09160579       1.46721670      -0.17094158
C       -1.20660399       0.58292629      -0.51352265
C       -0.94200200      -0.75507511      -0.00827804
C        0.48431780      -0.80285240       0.46018498
C        1.51095996      -0.43944081      -0.56712508
C        1.01310260       0.60378332       0.39401687
H       -1.83839470       0.76755973      -1.37062581
H       -1.91947342       0.05095540       0.85154269
H       -1.75314236      -0.88187898       1.30047204
H       -1.35218296      -1.61706796      -0.53037207
H        0.75375766      -1.48512840       1.25396058
H        1.21125232      -0.36500403      -1.60516458
H        2.51106347      -0.81899757      -0.40439406
H        1.67890636       1.01698241       1.13774791
15
Frame=8 idx=010629 GeodesicLength=0.8332981990116944 rxn_smarts="[O:1]=[C:2]1[C:3]([H:8])([H:9])[C:4]([H:10])([H:11])[C@@:5]2([H:12])[C:6]([H:13])([H:14])[C@@:7]12[H:15]>>[H:9][H:10].[O:1]=[C:2]1[C:3]([H:8])=[C:4]([H:11])[C@@:5]2([H:12])[C:6]([H:13])([H:14])[C@@:7]12[H:15]"
O       -0.07355421       2.67212078      -0.20432440
C       -0.09222085       1.46320832      -0.16489807
C       -1.20999772       0.57450789      -0.50801526
C       -0.93823012      -0.76218130      -0.00734098
C        0.49004819      -0.80661804       0.45602673
C        1.51294932      -0.43949634      -0.57319515
C        1.01550898       0.60126291       0.39226105
H       -1.81270378       0.75059849      -1.38839801
H       -1.94965914       0.08356582       0.86132980
H       -1.77198306      -0.86036481       1.31271553
H       -1.34218069      -1.62402187      -0.53462790
H        0.76305985      -1.48843761       1.24907521
H        1.20960897      -0.36459303      -1.61020268
H        2.51584321      -0.81343553      -0.41473160
H        1.68351105       1.01388434       1.13432572
15
Frame=9 idx=010629 GeodesicLength=0.9380034706392947 rxn_smarts="[O:1]=[C:2]1[C:3]([H:8])([H:9])[C:4]([H:10])([H:11])[C@@:5]2([H:12])[C:6]([H:13])([H:14])[C@@:7]12[H:15]>>[H:9][H:10].[O:1]=[C:2]1[C:3]([H:8])=[C:4]([H:11])[C@@:5]2([H:12])[C:6]([H:13])([H:14])[C@@:7]12[H:15]"
O       -0.08704049       2.66736256      -0.18209309
C       -0.09309516       1.45875213      -0.15864724
C       -1.21366537       0.56538102      -0.50188244
C       -0.93398465      -0.77013598      -0.00684257
C        0.49614147      -0.81073960       0.45173634
C        1.51520168      -0.43942231      -0.57927285
C        1.01782583       0.59853598       0.39065481
H       -1.78749058       0.73346415      -1.40355619
H       -1.98066919       0.11853598       0.87110196
H       -1.79156794      -0.83749607       1.32373216
H       -1.33151768      -1.63156490      -0.53971391
H        0.77280150      -1.49209590       1.24401147
H        1.20822630      -0.36389681      -1.61521539
H        2.52095800      -0.80741641      -0.42511072
H        1.68787627       1.01073617       1.13109767
15
Frame=10 idx=010629 GeodesicLength=1.0428262507083697 rxn_smarts="[O:1]=[C:2]1[C:3]([H:8])([H:9])[C:4]([H:10])([H:11])[C@@:5]2([H:12])[C:6]([H:13])([H:14])[C@@:7]12[H:15]>>[H:9][H:10].[O:1]=[C:2]1[C:3]([H:8])=[C:4]([H:11])[C@@:5]2([H:12])[C:6]([H:13])([H:14])[C@@:7]12[H:15]"
O       -0.10031976       2.66173795      -0.16077226
C       -0.09416419       1.45377662      -0.15223121
C       -1.21754579       0.55548084      -0.49510390
C       -0.92909734      -0.77907884      -0.00678914
C        0.50269458      -0.81525434       0.44734419
C        1.51780797      -0.43924191      -0.58533908
C        1.02010640       0.59557780       0.38919718
H       -1.76357734       0.71647258      -1.41585824
H       -2.01266393       0.15598925       0.88054323
H       -1.81201333      -0.81312472       1.33341118
H       -1.32002102      -1.63985843      -0.54560687
H        0.78306603      -1.49611438       1.23883134
H        1.20720903      -0.36295208      -1.62020199
H        2.52649003      -0.80093681      -0.43549329
H        1.69202866       1.00752648       1.12806884
15
Frame=11 idx=010629 GeodesicLength=1.1476893296875557 rxn_smarts="[O:1]=[C:2]1[C:3]([H:8])([H:9])[C:4]([H:10])([H:11])[C@@:5]2([H:12])[C:6]([H:13])([H:14])[C@@:7]12[H:15]>>[H:9][H:10].[O:1]=[C:2]1[C:3]([H:8])=[C:4]([H:11])[C@@:5]2([H:12])[C:6]([H:13])([H:14])[C@@:7]12[H:15]"
O       -0.11337384       2.65526405      -0.14041132
C       -0.09545952       1.44823012      -0.14557907
C       -1.22167667       0.54472887      -0.48751028
C       -0.92353509      -0.78909641      -0.00716765
C        0.50975453      -0.82020450       0.44285509
C        1.52077731      -0.43894117      -0.59139697
C        1.02235331       0.59235756       0.38792512
H       -1.74112178       0.69956979      -1.42532304
H       -2.04562364       0.19615769       0.88966031
H       -1.83339223      -0.78713362       1.34160035
H       -1.30761673      -1.64893814      -0.55237455
H        0.79393978      -1.50054720       1.23351280
H        1.20653440      -0.36172482      -1.62514868
H        2.53245997      -0.79395047      -0.44591360
H        1.69598021       1.00422826       1.12527149
15
Frame=12 idx=010629 GeodesicLength=1.2524921710163532 rxn_smarts="[O:1]=[C:2]1[C:3]([H:8])([H:9])[C:4]([H:10])([H:11])[C@@:5]2([H:12])[C:6]([H:13])([H:14])[C@@:7]12[H:15]>>[H:9][H:10].[O:1]=[C:2]1[C:3]([H:8])=[C:4]([H:11])[C@@:5]2([H:12])[C:6]([H:13])([H:14])[C@@:7]12[H:15]"
O       -0.12618769       2.64794556      -0.12103312
C       -0.09699836       1.44207050      -0.13862283
C       -1.22607606       0.53306302      -0.47895610
C       -0.91726329      -0.80024814      -0.00794158
C        0.51736453      -0.82561850       0.43827611
C        1.52411065      -0.43850533      -0.59745660
C        1.02457530       0.58885101       0.38686815
H       -1.72024297       0.68270776      -1.43196261
H       -2.07954795       0.23922217       0.89838102
H       -1.85578936      -0.75945711       1.34819857
H       -1.29424324      -1.65881997      -0.56004546
H        0.80550473      -1.50543356       1.22803782
H        1.20616922      -0.36018123      -1.63005402
H        2.53887401      -0.78641635      -0.45641555
H        1.69975047       1.00082016       1.12272621
15
Frame=13 idx=010629 GeodesicLength=1.3571655299013035 rxn_smarts="[O:1]=[C:2]1[C:3]([H:8])([H:9])[C:4]([H:10])([H:11])[C@@:5]2([H:12])[C:6]([H:13])([H:14])[C@@:7]12[H:15]>>[H:9][H:10].[O:1]=[C:2]1[C:3]([H:8])=[C:4]([H:11])[C@@:5]2([H:12])[C:6]([H:13])([H:14])[C@@:7]12[H:15]"
O       -0.13875404       2.63979003      -0.10265416
C       -0.09880282       1.43525299      -0.13129021
C       -1.23076306       0.52041422      -0.46928711
C       -0.91024739      -0.81258555      -0.00907013
C        0.52556682      -0.83152497       0.43361145
C        1.52780399      -0.43791654      -0.60352960
C        1.02677843       0.58503335       0.38605576
H       -1.70103471       0.66581690      -1.43577388
H       -2.11442376       0.28536323       0.90660350
H       -1.87928705      -0.73002689       1.35310811
H       -1.27984256      -1.66950256      -0.56864565
H        0.81784347      -1.51081603       1.22238148
H        1.20607207      -0.35828616      -1.63491478
H        2.54573312      -0.77829093      -0.46704709
H        1.70335748       0.99727891       1.12045230
15
Frame=14 idx=010629 GeodesicLength=1.4616167609257282 rxn_smarts="[O:1]=[C:2]1[C:3]([H:8])([H:9])[C:4]([H:10])([H:11])[C@@:5]2([H:12])[C:6]([H:13])([H:14])[C@@:7]12[H:15]>>[H:9][H:10].[O:1]=[C:2]1[C:3]([H:8])=[C:4]([H:11])[C@@:5]2([H:12])[C:6]([H:13])([H:14])[C@@:7]12[H:15]"
O       -0.15104917       2.63081526      -0.08527242
C       -0.10088836       1.42773820      -0.12349008
C       -1.23574755       0.50672433      -0.45834601
C       -0.90246167      -0.82614655      -0.01046838
C        0.53440663      -0.83794591       0.42887498
C        1.53184010      -0.43715628      -0.60963131
C        1.02897661       0.58088160       0.38551938
H       -1.68358832       0.64884829      -1.43677104
H       -2.15025540       0.33471534       0.91409868
H       -1.90395487      -0.69881887       1.35625505
H       -1.26436645      -1.68096926      -0.57815221
H        0.83105585      -1.51673044       1.21652215
H        1.20617384      -0.35600618      -1.63972806
H        2.55302099      -0.76953003      -0.47787184
H        1.70683778       0.99358049       1.11846110
15
Frame=15 idx=010629 GeodesicLength=1.5658123620672937 rxn_smarts="[O:1]=[C:2]1[C:3]([H:8])([H:9])[C:4]([H:10])([H:11])[C@@:5]2([H:12])[C:6]([H:13])([H:14])[C@@:7]12[H:15]>>[H:9][H:10].[O:1]=[C:2]1[C:3]([H:8])=[C:4]([H:11])[C@@:5]2([H:12])[C:6]([H:13])([H:14])[C@@:7]12[H:15]"
O       -0.16306520       2.62103669      -0.06886530
C       -0.10327103       1.41949117      -0.11512556
C       -1.24103331       0.49193827      -0.44598453
C       -0.89388734      -0.84095287      -0.01204839
C        0.54392228      -0.84489898       0.42407523
C        1.53619471      -0.43620323      -0.61578141
C        1.03118252       0.57637489       0.38528861
H       -1.66794761       0.63173608      -1.43496147
H       -2.18702611       0.38737699       0.92058304
H       -1.92985518      -0.66580911       1.35761141
H       -1.24778754      -1.69318367      -0.58852861
H        0.84523363      -1.52321169       1.21042898
H        1.20639737      -0.35330403      -1.64449287
H        2.56071340      -0.76009080      -0.48896065
H        1.71022941       0.98970027       1.11676151
15
Frame=16 idx=010629 GeodesicLength=1.6697541089998609 rxn_smarts="[O:1]=[C:2]1[C:3]([H:8])([H:9])[C:4]([H:10])([H:11])[C@@:5]2([H:12])[C:6]([H:13])([H:14])[C@@:7]12[H:15]>>[H:9][H:10].[O:1]=[C:2]1[C:3]([H:8])=[C:4]([H:11])[C@@:5]2([H:12])[C:6]([H:13])([H:14])[C@@:7]12[H:15]"
O       -0.17478606       2.61048077      -0.05338892
C       -0.10596296       1.41048800      -0.10607848
C       -1.24661633       0.47601857      -0.43206346
C       -0.88452083      -0.85700617      -0.01369234
C        0.55414697      -0.85239374       0.41922342
C        1.54082740      -0.43503318      -0.62200489
C        1.03341285       0.57149619       0.38539460
H       -1.65411014       0.61442060      -1.43036687
H       -2.22472022       0.44338977       0.92564770
H       -1.95702611      -0.63102072       1.35720877
H       -1.23010823      -1.70609208      -0.59969189
H        0.86047288      -1.53028946       1.20406584
H        1.20663894      -0.35013916      -1.64920916
H        2.56876752      -0.74993138      -0.50040127
H        1.71358431       0.98561198       1.11535696
