12
Frame=0 idx=008050 GeodesicLength=0.0 rxn_smarts="[N:1]#[C:2][C@@:3]1([H:8])[C:4]([H:9])([H:10])[N:5]=[C:6]([H:11])[N:7]1[H:12]>>[N:1]1=[C:6]([H:11])[N:7]([H:12])[C@@:3]2([H:8])[C:2]1=[N:5][C:4]2([H:9])[H:10]"
N        1.01520695       0.30077790       1.78601065
C        0.68966095      -0.48816162       0.84691593
C        0.64346955      -0.18654943      -0.73367655
C       -0.62557223      -1.00407233      -0.73056698
N       -0.76677045      -0.74322455       0.73530514
C       -0.37424981       0.70451739       0.90926353
N        0.06194887       1.15225029      -0.42078201
H        1.44424603      -0.21813454      -1.46212083
H       -1.44247712      -0.61322372      -1.33250466
H       -0.49069119      -2.07325981      -0.87521156
H       -0.95835327       1.33760921       1.55961636
H        0.80358172       1.83147117      -0.28224907
12
Frame=1 idx=008050 GeodesicLength=0.12445629165766786 rxn_smarts="[N:1]#[C:2][C@@:3]1([H:8])[C:4]([H:9])([H:10])[N:5]=[C:6]([H:11])[N:7]1[H:12]>>[N:1]1=[C:6]([H:11])[N:7]([H:12])[C@@:3]2([H:8])[C:2]1=[N:5][C:4]2([H:9])[H:10]"
N        1.02941232       0.28379922       1.78395159
C        0.69923523      -0.50105593       0.84214620
C        0.64085100      -0.18274634      -0.72721877
C       -0.62593609      -1.00992424      -0.73128087
N       -0.78186029      -0.74852282       0.73234629
C       -0.37992068       0.71695844       0.91389674
N        0.06203569       1.15508332      -0.41275286
H        1.44261113      -0.21782686      -1.45412540
H       -1.44062307      -0.62408904      -1.33944440
H       -0.48539438      -2.07800828      -0.88000032
H       -0.95628628       1.36217384       1.55971571
H        0.79587542       1.84415867      -0.28723391
12
Frame=2 idx=008050 GeodesicLength=0.24888500297661897 rxn_smarts="[N:1]#[C:2][C@@:3]1([H:8])[C:4]([H:9])([H:10])[N:5]=[C:6]([H:11])[N:7]1[H:12]>>[N:1]1=[C:6]([H:11])[N:7]([H:12])[C@@:3]2([H:8])[C:2]1=[N:5][C:4]2([H:9])[H:10]"
N        1.04347931       0.26655392       1.78186540
C        0.70934158      -0.51429347       0.83721028
C        0.63822889      -0.17899920      -0.72056400
C       -0.62623532      -1.01578442      -0.73189904
N       -0.79701839      -0.75400396       0.72932297
C       -0.38569363       0.72968769       0.91875674
N        0.06234535       1.15788487      -0.40439012
H        1.44064209      -0.21741220      -1.44631166
H       -1.43857111      -0.63490897      -1.34632109
H       -0.48006944      -2.08270953      -0.88478861
H       -0.95445208       1.38716051       1.55945674
H        0.78800276       1.85682474      -0.29233760
12
Frame=3 idx=008050 GeodesicLength=0.37331368474600113 rxn_smarts="[N:1]#[C:2][C@@:3]1([H:8])[C:4]([H:9])([H:10])[N:5]=[C:6]([H:11])[N:7]1[H:12]>>[N:1]1=[C:6]([H:11])[N:7]([H:12])[C@@:3]2([H:8])[C:2]1=[N:5][C:4]2([H:9])[H:10]"
N        1.05741171       0.24901952       1.77976151
C        0.72001290      -0.52789094       0.83209021
C        0.63560796      -0.17531218      -0.71369624
C       -0.62646993      -1.02165529      -0.73241759
N       -0.81225025      -0.75967749       0.72623480
C       -0.39157633       0.74272275       0.92385142
N        0.06288923       1.16065580      -0.39567360
H        1.43833175      -0.21688051      -1.43868438
H       -1.43631914      -0.64567667      -1.35313345
H       -0.47472079      -2.08736855      -0.88957958
H       -0.95286437       1.41259626       1.55881794
H        0.77994728       1.86946730      -0.29757105
12
Frame=4 idx=008050 GeodesicLength=0.49773519655335224 rxn_smarts="[N:1]#[C:2][C@@:3]1([H:8])[C:4]([H:9])([H:10])[N:5]=[C:6]([H:11])[N:7]1[H:12]>>[N:1]1=[C:6]([H:11])[N:7]([H:12])[C@@:3]2([H:8])[C:2]1=[N:5][C:4]2([H:9])[H:10]"
N        1.07120769       0.23116774       1.77764482
C        0.73127790      -0.54186676       0.82676445
C        0.63299273      -0.17169040      -0.70659798
C       -0.62663691      -1.02753521      -0.73282988
N       -0.82756340      -0.76554499       0.72308153
C       -0.39757198       0.75608241       0.92919032
N        0.06368155       1.16339036      -0.38658161
H        1.43567039      -0.21622038      -1.43124782
H       -1.43385666      -0.65638332      -1.35987800
H       -0.46934979      -2.09198193      -0.89437196
H       -0.95153536       1.43850250       1.55777834
H        0.77168384       1.88207997      -0.30295222
12
Frame=5 idx=008050 GeodesicLength=0.6221483048973804 rxn_smarts="[N:1]#[C:2][C@@:3]1([H:8])[C:4]([H:9])([H:10])[N:5]=[C:6]([H:11])[N:7]1[H:12]>>[N:1]1=[C:6]([H:11])[N:7]([H:12])[C@@:3]2([H:8])[C:2]1=[N:5][C:4]2([H:9])[H:10]"
N        1.08486456       0.21296669       1.77552124
C        0.74316847      -0.55623972       0.82120933
C        0.63038852      -0.16813913      -0.69925026
C       -0.62673334      -1.03342277      -0.73312885
N       -0.84296551      -0.77160828       0.71986296
C       -0.40368380       0.76978772       0.93478296
N        0.06473841       1.16608394      -0.37709047
H        1.43264779      -0.21541940      -1.42400555
H       -1.43117342      -0.66701920      -1.36655120
H       -0.46395840      -2.09654733      -0.89916418
H       -0.95047800       1.46490144       1.55631512
H        0.76318472       1.89465604      -0.30850109
12
Frame=6 idx=008050 GeodesicLength=0.7465524443106807 rxn_smarts="[N:1]#[C:2][C@@:3]1([H:8])[C:4]([H:9])([H:10])[N:5]=[C:6]([H:11])[N:7]1[H:12]>>[N:1]1=[C:6]([H:11])[N:7]([H:12])[C@@:3]2([H:8])[C:2]1=[N:5][C:4]2([H:9])[H:10]"
N        1.09837789       0.19437987       1.77339690
C        0.75571900      -0.57102902       0.81539854
C        0.62780144      -0.16466394      -0.69163245
C       -0.62675592      -1.03931620      -0.73330663
N       -0.85846482      -0.77786823       0.71657869
C       -0.40991445       0.78386186       0.94063931
N        0.06607803       1.16873193      -0.36717398
H        1.42925296      -0.21446399      -1.41696016
H       -1.42825804      -0.67757339      -1.37314918
H       -0.45854865      -2.10106211      -0.90395386
H       -0.94970538       1.49181559       1.55440389
H        0.75441793       1.90718764      -0.31424107
12
Frame=7 idx=008050 GeodesicLength=0.8709474234973236 rxn_smarts="[N:1]#[C:2][C@@:3]1([H:8])[C:4]([H:9])([H:10])[N:5]=[C:6]([H:11])[N:7]1[H:12]>>[N:1]1=[C:6]([H:11])[N:7]([H:12])[C@@:3]2([H:8])[C:2]1=[N:5][C:4]2([H:9])[H:10]"
N        1.11174109       0.17536547       1.77127833
C        0.76896662      -0.58625406       0.80930290
C        0.62523854      -0.16127071      -0.68372201
C       -0.62670087      -1.04521322      -0.73335443
N       -0.87407009      -0.78432466       0.71322826
C       -0.41626589       0.79833039       0.94676965
N        0.06772123       1.17132982      -0.35680313
H        1.42547414      -0.21333929      -1.41011302
H       -1.42509778      -0.68803344      -1.37966756
H       -0.45312260      -2.10552322      -0.90873770
H       -0.94923064       1.51926758       1.55201849
H        0.74534624       1.91966536      -0.32019978
12
Frame=8 idx=008050 GeodesicLength=0.9953363655071426 rxn_smarts="[N:1]#[C:2][C@@:3]1([H:8])[C:4]([H:9])([H:10])[N:5]=[C:6]([H:11])[N:7]1[H:12]>>[N:1]1=[C:6]([H:11])[N:7]([H:12])[C@@:3]2([H:8])[C:2]1=[N:5][C:4]2([H:9])[H:10]"
N        1.12494597       0.15587495       1.76917308
C        0.78295152      -0.60193498       0.80289049
C        0.62270807      -0.15796565      -0.67549411
C       -0.62656427      -1.05111152      -0.73326278
N       -0.88979148      -0.79097632       0.70981071
C       -0.42273842       0.81322165       0.95318536
N        0.06969195       1.17387346      -0.34594561
H        1.42129903      -0.21202833      -1.40346365
H       -1.42167876      -0.69838582      -1.38610274
H       -0.44768270      -2.10992798      -0.91351132
H       -0.94906660       1.54728096       1.54913111
H        0.73592569       1.93207958      -0.32641054
12
Frame=9 idx=008050 GeodesicLength=1.1197473923313883 rxn_smarts="[N:1]#[C:2][C@@:3]1([H:8])[C:4]([H:9])([H:10])[N:5]=[C:6]([H:11])[N:7]1[H:12]>>[N:1]1=[C:6]([H:11])[N:7]([H:12])[C@@:3]2([H:8])[C:2]1=[N:5][C:4]2([H:9])[H:10]"
N        1.13798746       0.13585325       1.76710023
C        0.79772001      -0.61809316       0.79613344
C        0.62022079      -0.15475326      -0.66692220
C       -0.62634577      -1.05701259      -0.73302408
N       -0.90564342      -0.79782698       0.70632653
C       -0.42932965       0.82856757       0.95989989
N        0.07201963       1.17636390      -0.33456833
H        1.41671727      -0.21050754      -1.39701148
H       -1.41799193      -0.70861914      -1.39245923
H       -0.44223721      -2.11428100      -0.91827062
H       -0.94922555       1.57587967       1.54571313
H        0.72610837       1.94442929      -0.33291728
12
Frame=10 idx=008050 GeodesicLength=1.2440977888654772 rxn_smarts="[N:1]#[C:2][C@@:3]1([H:8])[C:4]([H:9])([H:10])[N:5]=[C:6]([H:11])[N:7]1[H:12]>>[N:1]1=[C:6]([H:11])[N:7]([H:12])[C@@:3]2([H:8])[C:2]1=[N:5][C:4]2([H:9])[H:10]"
N        1.15082891       0.11524201       1.76504087
C        0.81331371      -0.63473405       0.78896711
C        0.61778307      -0.15164338      -0.65797785
C       -0.62602517      -1.06289631      -0.73261643
N       -0.92162038      -0.80485945       0.70277569
C       -0.43605283       0.84439653       0.96691377
N        0.07473184       1.17878612      -0.32262472
H        1.41169945      -0.20877215      -1.39075614
H       -1.41399917      -0.71870108      -1.39870168
H       -0.43677217      -2.11855204      -0.92300577
H       -0.94972109       1.60508531       1.54172387
H        0.71583384       1.95664848      -0.33973872
12
Frame=11 idx=008050 GeodesicLength=1.3684322164134544 rxn_smarts="[N:1]#[C:2][C@@:3]1([H:8])[C:4]([H:9])([H:10])[N:5]=[C:6]([H:11])[N:7]1[H:12]>>[N:1]1=[C:6]([H:11])[N:7]([H:12])[C@@:3]2([H:8])[C:2]1=[N:5][C:4]2([H:9])[H:10]"
N        1.16346633       0.09395006       1.76301335
C        0.82977781      -0.65189431       0.78136148
C        0.61541183      -0.14864509      -0.64862177
C       -0.62560276      -1.06876469      -0.73203167
N       -0.93775464      -0.81206076       0.69914825
C       -0.44288255       0.86075010       0.97425709
N        0.07786704       1.18113372      -0.31006496
H        1.40624407      -0.20679018      -1.38467826
H       -1.40968085      -0.72861962      -1.40484730
H       -0.43129329      -2.12274539      -0.92770755
H       -0.95055223       1.63492929       1.53713676
H        0.70499924       1.96875688      -0.34696542
12
Frame=12 idx=008050 GeodesicLength=1.492783572577133 rxn_smarts="[N:1]#[C:2][C@@:3]1([H:8])[C:4]([H:9])([H:10])[N:5]=[C:6]([H:11])[N:7]1[H:12]>>[N:1]1=[C:6]([H:11])[N:7]([H:12])[C@@:3]2([H:8])[C:2]1=[N:5][C:4]2([H:9])[H:10]"
N        1.17587980       0.07189940       1.76104465
C        0.84717356      -0.66958675       0.77327410
C        0.61312098      -0.14576071      -0.63882069
C       -0.62507450      -1.07461748      -0.73125924
N       -0.95405856      -0.81943964       0.69544698
C       -0.44982328       0.87766723       0.98193945
N        0.08146893       1.18341568      -0.29684202
H        1.40033215      -0.20452870      -1.37877535
H       -1.40502321      -0.73835669      -1.41089779
H       -0.42580772      -2.12686642      -0.93237101
H       -0.95171958       1.66544651       1.53191055
H        0.69353145       1.98072758      -0.35464963
12
Frame=13 idx=008050 GeodesicLength=1.6171264610656135 rxn_smarts="[N:1]#[C:2][C@@:3]1([H:8])[C:4]([H:9])([H:10])[N:5]=[C:6]([H:11])[N:7]1[H:12]>>[N:1]1=[C:6]([H:11])[N:7]([H:12])[C@@:3]2([H:8])[C:2]1=[N:5][C:4]2([H:9])[H:10]"
N        1.18803716       0.04898605       1.75913592
C        0.86555463      -0.68782717       0.76464457
C        0.61092911      -0.14300076      -0.62853122
C       -0.62442588      -1.08043898      -0.73028024
N       -0.97054788      -0.82697210       0.69166454
C       -0.45686155       0.89519235       0.98997834
N        0.08559008       1.18562227      -0.28288980
H        1.39394733      -0.20196677      -1.37302751
H       -1.39998742      -0.74787623      -1.41683978
H       -0.42031130      -2.13089586      -0.93698273
H       -0.95322771       1.69666018       1.52600462
H        0.68130343       1.99251701      -0.36287671
12
Frame=14 idx=008050 GeodesicLength=1.7414642521254415 rxn_smarts="[N:1]#[C:2][C@@:3]1([H:8])[C:4]([H:9])([H:10])[N:5]=[C:6]([H:11])[N:7]1[H:12]>>[N:1]1=[C:6]([H:11])[N:7]([H:12])[C@@:3]2([H:8])[C:2]1=[N:5][C:4]2([H:9])[H:10]"
N        1.19990587       0.02509168       1.75730186
C        0.88498264      -0.70663015       0.75541516
C        0.60885934      -0.14037353      -0.61770533
C       -0.62364482      -1.08621621      -0.72907784
N       -0.98724362      -0.83464076       0.68779365
C       -0.46398186       0.91337370       0.99839278
N        0.09029401       1.18775168      -0.26813592
H        1.38707555      -0.19907299      -1.36741152
H       -1.39453699      -0.75714071      -1.42266936
H       -0.41480499      -2.13482173      -0.94152958
H       -0.95507075       1.72859992       1.51937570
H        0.66816562       2.00407908      -0.37174959
12
Frame=15 idx=008050 GeodesicLength=1.8657953085812369 rxn_smarts="[N:1]#[C:2][C@@:3]1([H:8])[C:4]([H:9])([H:10])[N:5]=[C:6]([H:11])[N:7]1[H:12]>>[N:1]1=[C:6]([H:11])[N:7]([H:12])[C@@:3]2([H:8])[C:2]1=[N:5][C:4]2([H:9])[H:10]"
N        1.21144681       0.00007548       1.75555781
C        0.90552132      -0.72600875       0.74552299
C        0.60694033      -0.13788858      -0.60628725
C       -0.62271581      -1.09193050      -0.72763369
N       -1.00417119      -0.84241859       0.68382273
C       -0.47115953       0.93226452       1.00720646
N        0.09565928       1.18980173      -0.25249341
H        1.37970530      -0.19581424      -1.36189392
H       -1.38862467      -0.76610224      -1.42838396
H       -0.40928857      -2.13862643      -0.94599623
H       -0.95723376       1.76129622       1.51197890
H        0.65392048       2.01535138      -0.38140044
12
Frame=16 idx=008050 GeodesicLength=1.9901197358218463 rxn_smarts="[N:1]#[C:2][C@@:3]1([H:8])[C:4]([H:9])([H:10])[N:5]=[C:6]([H:11])[N:7]1[H:12]>>[N:1]1=[C:6]([H:11])[N:7]([H:12])[C@@:3]2([H:8])[C:2]1=[N:5][C:4]2([H:9])[H:10]"
N        1.22261469      -0.02623027       1.75392311
C        0.92723696      -0.74597485       0.73490281
C        0.60520868      -0.13555628      -0.59421132
C       -0.62161998      -1.09755652      -0.72592882
N       -1.02136232      -0.85026925       0.67973458
C       -0.47835859       0.95192329       1.01644858
N        0.10178522       1.19177198      -0.23585764
H        1.37183121      -0.19215433      -1.35642770
H       -1.38219159      -0.77469904      -1.43398494
H       -0.40376217      -2.14228677      -0.95036621
H       -0.95968698       1.79478193       1.50376858
H        0.63830487       2.02625011      -0.39200102
