17
Frame=0 idx=011047 GeodesicLength=0.0 rxn_smarts="[C:1]([N:2]([C:3](=[O:4])[N:5]([C:6]([H:12])([H:13])[H:14])[C:7]([H:15])([H:16])[H:17])[H:11])([H:8])([H:9])[H:10]>>[C:1]([N:2]=[C:3]=[O:4])([H:8])([H:9])[H:10].[H:11][H:12].[N:5](=[C:6]([H:13])[H:14])[C:7]([H:15])([H:16])[H:17]"
C        2.52611322      -0.55761631       0.07379164
N        1.10622911      -0.47886251       0.33255439
C        0.34290304      -0.29907095      -0.71358485
O        0.54255950      -0.21529118      -1.91315424
N       -1.05555508      -0.06514625      -0.24616347
C       -1.40029539      -0.40313825       0.95572731
C       -1.82112730       0.88596268      -1.03677876
H        2.75532649      -1.40715067      -0.57589503
H        2.90432292       0.34054815      -0.42500442
H        3.05623791      -0.68720460       1.01734719
H        0.47475504       0.24463301       1.49101753
H       -0.17756692       0.57052298       1.99532537
H       -0.89629178      -1.23609239       1.41867911
H       -2.34889163      -0.05472073       1.34728640
H       -1.86835518       0.52393518      -2.06042511
H       -2.82250182       0.98485089      -0.62250762
H       -1.31786220       1.85384102      -1.03821547
17
Frame=1 idx=011047 GeodesicLength=0.11374368146576441 rxn_smarts="[C:1]([N:2]([C:3](=[O:4])[N:5]([C:6]([H:12])([H:13])[H:14])[C:7]([H:15])([H:16])[H:17])[H:11])([H:8])([H:9])[H:10]>>[C:1]([N:2]=[C:3]=[O:4])([H:8])([H:9])[H:10].[H:11][H:12].[N:5](=[C:6]([H:13])[H:14])[C:7]([H:15])([H:16])[H:17]"
C        2.54389600      -0.56051020       0.07463597
N        1.12729727      -0.43205850       0.32269873
C        0.35842620      -0.28576137      -0.72221626
O        0.54573228      -0.23362867      -1.92382105
N       -1.06369543      -0.06331552      -0.24950685
C       -1.40738314      -0.40431842       0.95566030
C       -1.83280206       0.89490915      -1.02721673
H        2.74835828      -1.45090112      -0.52688069
H        2.94610687       0.29819969      -0.47196045
H        3.06905761      -0.64658912       1.02590201
H        0.48956302       0.26303106       1.49028796
H       -0.19747336       0.55764205       2.00192837
H       -0.90628365      -1.24687542       1.40574054
H       -2.37361322      -0.09017953       1.33482546
H       -1.87716379       0.54707053      -2.05621727
H       -2.83531787       0.98762171      -0.61366578
H       -1.33470502       1.86566369      -1.02019426
17
Frame=2 idx=011047 GeodesicLength=0.22734509879244014 rxn_smarts="[C:1]([N:2]([C:3](=[O:4])[N:5]([C:6]([H:12])([H:13])[H:14])[C:7]([H:15])([H:16])[H:17])[H:11])([H:8])([H:9])[H:10]>>[C:1]([N:2]=[C:3]=[O:4])([H:8])([H:9])[H:10].[H:11][H:12].[N:5](=[C:6]([H:13])[H:14])[C:7]([H:15])([H:16])[H:17]"
C        2.56076678      -0.56488219       0.07680102
N        1.14961727      -0.37874465       0.31069234
C        0.37516635      -0.26802860      -0.73212895
O        0.54997920      -0.24834976      -1.93484055
N       -1.07132974      -0.06067772      -0.25340913
C       -1.41302766      -0.40640593       0.95485133
C       -1.84605925       0.90341413      -1.01737645
H        2.73485964      -1.49577650      -0.47056954
H        2.99009817       0.24666837      -0.51851476
H        3.08182089      -0.60559219       1.03333992
H        0.50526028       0.28462117       1.48850776
H       -0.21622248       0.54435392       2.00771438
H       -0.91333430      -1.25815904       1.39060170
H       -2.39581718      -0.12844929       1.32161746
H       -1.88653423       0.57072774      -2.05185558
H       -2.84991032       0.98724555      -0.60455562
H       -1.35533343       1.87803499      -1.00087534
17
Frame=3 idx=011047 GeodesicLength=0.3407537283218346 rxn_smarts="[C:1]([N:2]([C:3](=[O:4])[N:5]([C:6]([H:12])([H:13])[H:14])[C:7]([H:15])([H:16])[H:17])[H:11])([H:8])([H:9])[H:10]>>[C:1]([N:2]=[C:3]=[O:4])([H:8])([H:9])[H:10].[H:11][H:12].[N:5](=[C:6]([H:13])[H:14])[C:7]([H:15])([H:16])[H:17]"
C        2.57597275      -0.57108730       0.08082665
N        1.17355386      -0.31765769       0.29580736
C        0.39340164      -0.24475417      -0.74379949
O        0.55567868      -0.25823064      -1.94661430
N       -1.07811754      -0.05713592      -0.25809542
C       -1.41646928      -0.40968638       0.95304816
C       -1.86117918       0.91123230      -1.00720143
H        2.71259707      -1.54126715      -0.40564202
H        3.03586958       0.18390855      -0.56357877
H        3.09420944      -0.56480944       1.03974307
H        0.52220641       0.31006149       1.48510545
H       -0.23320428       0.53077469       2.01226318
H       -0.91615736      -1.26997958       1.37277137
H       -2.41451195      -0.16997791       1.30774211
H       -1.89682845       0.59483034      -2.04727767
H       -2.86647441       0.98290932      -0.59498452
H       -1.38054698       1.89086949      -0.98011374
17
Frame=4 idx=011047 GeodesicLength=0.45397095517479336 rxn_smarts="[C:1]([N:2]([C:3](=[O:4])[N:5]([C:6]([H:12])([H:13])[H:14])[C:7]([H:15])([H:16])[H:17])[H:11])([H:8])([H:9])[H:10]>>[C:1]([N:2]=[C:3]=[O:4])([H:8])([H:9])[H:10].[H:11][H:12].[N:5](=[C:6]([H:13])[H:14])[C:7]([H:15])([H:16])[H:17]"
C        2.58840092      -0.57915532       0.08731403
N        1.19936807      -0.24855548       0.27717525
C        0.41324972      -0.21542507      -0.75779056
O        0.56301814      -0.26269123      -1.95964959
N       -1.08372195      -0.05279173      -0.26381012
C       -1.41691633      -0.41441043       0.95003588
C       -1.87814829       0.91815091      -0.99660197
H        2.67954530      -1.58571842      -0.33123572
H        3.08189222       0.10866527      -0.60526759
H        3.10568503      -0.52487015       1.04523305
H        0.54094267       0.33969058       1.47916405
H       -0.24739768       0.51687115       2.01495206
H       -0.91367129      -1.28240490       1.35188725
H       -2.42855120      -0.21480316       1.29340972
H       -1.90837676       0.61934104      -2.04236475
H       -2.88480682       0.97420562      -0.58466304
H       -1.41051173       1.90390130      -0.95778796
17
Frame=5 idx=011047 GeodesicLength=0.5670345323283498 rxn_smarts="[C:1]([N:2]([C:3](=[O:4])[N:5]([C:6]([H:12])([H:13])[H:14])[C:7]([H:15])([H:16])[H:17])[H:11])([H:8])([H:9])[H:10]>>[C:1]([N:2]=[C:3]=[O:4])([H:8])([H:9])[H:10].[H:11][H:12].[N:5](=[C:6]([H:13])[H:14])[C:7]([H:15])([H:16])[H:17]"
C        2.59692596      -0.58809728       0.09649072
N        1.22678748      -0.17444921       0.25422281
C        0.43431654      -0.18201423      -0.77444208
O        0.57160339      -0.26363686      -1.97426274
N       -1.08812612      -0.04830258      -0.27063028
C       -1.41429053      -0.42060268       0.94589705
C       -1.89603529       0.92433496      -0.98540679
H        2.63613462      -1.62550867      -0.24827086
H        3.12453935       0.02281637      -0.64111868
H        3.11572019      -0.48545246       1.04964003
H        0.56184837       0.37279508       1.46941581
H       -0.25752105       0.50197700       2.01516380
H       -0.90646038      -1.29565366       1.32825417
H       -2.43748839      -0.26181515       1.27895827
H       -1.92097562       0.64454827      -2.03689134
H       -2.90371997       0.96240215      -0.57324660
H       -1.44325856       1.91665897      -0.93377330
17
Frame=6 idx=011047 GeodesicLength=0.6800475036257709 rxn_smarts="[C:1]([N:2]([C:3](=[O:4])[N:5]([C:6]([H:12])([H:13])[H:14])[C:7]([H:15])([H:16])[H:17])[H:11])([H:8])([H:9])[H:10]>>[C:1]([N:2]=[C:3]=[O:4])([H:8])([H:9])[H:10].[H:11][H:12].[N:5](=[C:6]([H:13])[H:14])[C:7]([H:15])([H:16])[H:17]"
C        2.60147281      -0.59619786       0.10789992
N        1.25475028      -0.10118459       0.22730807
C        0.45563363      -0.14857468      -0.79345711
O        0.58042306      -0.26498471      -1.99011517
N       -1.09191905      -0.04465546      -0.27833601
C       -1.40975469      -0.42794171       0.94100693
C       -1.91334853       0.93030970      -0.97341506
H        2.58642549      -1.65667351      -0.15964227
H        3.16029434      -0.06838882      -0.66939196
H        3.12453547      -0.44540680       1.05228121
H        0.58480714       0.40782088       1.45487377
H       -0.26290438       0.48491024       2.01266661
H       -0.89743315      -1.31002989       1.30278390
H       -2.44227623      -0.30871502       1.26462859
H       -1.93384977       0.67098087      -2.03055271
H       -2.92158369       0.95009566      -0.56067066
H       -1.47527274       1.92863568      -0.90786805
17
Frame=7 idx=011047 GeodesicLength=0.7931061375330436 rxn_smarts="[C:1]([N:2]([C:3](=[O:4])[N:5]([C:6]([H:12])([H:13])[H:14])[C:7]([H:15])([H:16])[H:17])[H:11])([H:8])([H:9])[H:10]>>[C:1]([N:2]=[C:3]=[O:4])([H:8])([H:9])[H:10].[H:11][H:12].[N:5](=[C:6]([H:13])[H:14])[C:7]([H:15])([H:16])[H:17]"
C        2.60293440      -0.60241110       0.12084395
N        1.28235130      -0.03310409       0.19731045
C        0.47654430      -0.11810542      -0.81430968
O        0.58884818      -0.26932247      -2.00669400
N       -1.09573837      -0.04246086      -0.28661369
C       -1.40464459      -0.43606236       0.93580950
C       -1.92919112       0.93650884      -0.96056709
H        2.53464267      -1.67747756      -0.06835541
H        3.18799194      -0.16049390      -0.68962546
H        3.13289302      -0.40411044       1.05253215
H        0.60912081       0.44400097       1.43541390
H       -0.26374093       0.46490638       2.00767289
H       -0.88935685      -1.32574542       1.27640756
H       -2.44446904      -0.35387624       1.25054801
H       -1.94627007       0.69899721      -2.02320895
H       -2.93760643       0.93910253      -0.54718666
H       -1.50430922       1.93965393      -0.87997748
17
Frame=8 idx=011047 GeodesicLength=0.9063523018013481 rxn_smarts="[C:1]([N:2]([C:3](=[O:4])[N:5]([C:6]([H:12])([H:13])[H:14])[C:7]([H:15])([H:16])[H:17])[H:11])([H:8])([H:9])[H:10]>>[C:1]([N:2]=[C:3]=[O:4])([H:8])([H:9])[H:10].[H:11][H:12].[N:5](=[C:6]([H:13])[H:14])[C:7]([H:15])([H:16])[H:17]"
C        2.60254018      -0.60621212       0.13463807
N        1.30913622       0.02777544       0.16515430
C        0.49676672      -0.09236139      -0.83643375
O        0.59662496      -0.27798834      -2.02349209
N       -1.10012362      -0.04198619      -0.29517839
C       -1.40013100      -0.44479647       0.93061217
C       -1.94323306       0.94321321      -0.94690686
H        2.48405644      -1.68776802       0.02344792
H        3.20815831      -0.25059249      -0.70236641
H        3.14163863      -0.36132135       1.04989977
H        0.63391579       0.48072762       1.41160076
H       -0.26073475       0.44155382       2.00057356
H       -0.88429692      -1.34305080       1.24971014
H       -2.44559413      -0.39615325       1.23686629
H       -1.95776043       0.72873068      -2.01482132
H       -2.95167145       0.93048703      -0.53312983
H       -1.52929189       1.94974261      -0.85017431
17
Frame=9 idx=011047 GeodesicLength=1.0196213431942653 rxn_smarts="[C:1]([N:2]([C:3](=[O:4])[N:5]([C:6]([H:12])([H:13])[H:14])[C:7]([H:15])([H:16])[H:17])[H:11])([H:8])([H:9])[H:10]>>[C:1]([N:2]=[C:3]=[O:4])([H:8])([H:9])[H:10].[H:11][H:12].[N:5](=[C:6]([H:13])[H:14])[C:7]([H:15])([H:16])[H:17]"
C        2.60091177      -0.60786632       0.14894320
N        1.33511940       0.08197991       0.13134716
C        0.51646709      -0.07092277      -0.85947680
O        0.60401416      -0.29029446      -2.04017365
N       -1.10512470      -0.04302782      -0.30384149
C       -1.39648580      -0.45404836       0.92554726
C       -1.95557792       0.95025226      -0.93251130
H        2.43509388      -1.68833030       0.11466265
H        3.22199371      -0.33816726      -0.70820043
H        3.15103097      -0.31788696       1.04430558
H        0.65869994       0.51810576       1.38417134
H       -0.25449704       0.41505835       1.99144356
H       -0.88267404      -1.36180722       1.22288872
H       -2.44628597      -0.43556250       1.22365499
H       -1.96809786       0.75979336      -2.00531680
H       -2.96402461       0.92388572      -0.51874544
H       -1.55056298       1.95883862      -0.81869856
17
Frame=10 idx=011047 GeodesicLength=1.1329575448992115 rxn_smarts="[C:1]([N:2]([C:3](=[O:4])[N:5]([C:6]([H:12])([H:13])[H:14])[C:7]([H:15])([H:16])[H:17])[H:11])([H:8])([H:9])[H:10]>>[C:1]([N:2]=[C:3]=[O:4])([H:8])([H:9])[H:10].[H:11][H:12].[N:5](=[C:6]([H:13])[H:14])[C:7]([H:15])([H:16])[H:17]"
C        2.59910416      -0.60695659       0.16327144
N        1.36014842       0.12918581       0.09644274
C        0.53547307      -0.05489158      -0.88301732
O        0.61071971      -0.30733552      -2.05638485
N       -1.11121256      -0.04569373      -0.31244136
C       -1.39458988      -0.46386472       0.92071006
C       -1.96617325       0.95788097      -0.91744902
H        2.39019027      -1.67965736       0.20418851
H        3.23072426      -0.42136640      -0.70799003
H        3.16159249      -0.27338448       1.03552213
H        0.68289552       0.55491525       1.35391362
H       -0.24589086       0.38513769       1.98066269
H       -0.88586310      -1.38231047       1.19610143
H       -2.44774606      -0.47115644       1.21110931
H       -1.97706565       0.79225777      -1.99471931
H       -2.97475511       0.92017800      -0.50421416
H       -1.56755143       1.96706180      -0.78570589
17
Frame=11 idx=011047 GeodesicLength=1.2463454574444162 rxn_smarts="[C:1]([N:2]([C:3](=[O:4])[N:5]([C:6]([H:12])([H:13])[H:14])[C:7]([H:15])([H:16])[H:17])[H:11])([H:8])([H:9])[H:10]>>[C:1]([N:2]=[C:3]=[O:4])([H:8])([H:9])[H:10].[H:11][H:12].[N:5](=[C:6]([H:13])[H:14])[C:7]([H:15])([H:16])[H:17]"
C        2.59736247      -0.60379844       0.17752328
N        1.38442166       0.17061106       0.06059840
C        0.55401916      -0.04338645      -0.90692568
O        0.61696054      -0.32834582      -2.07199757
N       -1.11832740      -0.04972325      -0.32091900
C       -1.39435553      -0.47428906       0.91608970
C       -1.97525511       0.96593926      -0.90176395
H        2.34890688      -1.66264427       0.29180406
H        3.23545779      -0.50061498      -0.70221936
H        3.17330651      -0.22842480       1.02367243
H        0.70641409       0.59116983       1.32128835
H       -0.23542037       0.35209082       1.96824836
H       -0.89361783      -1.40440640       1.16928411
H       -2.45018634      -0.50329680       1.19926952
H       -1.98461456       0.82585428      -1.98299986
H       -2.98416845       0.91884871      -0.48961590
H       -1.58090349       1.97441632      -0.75133688
17
Frame=12 idx=011047 GeodesicLength=1.3598202897743317 rxn_smarts="[C:1]([N:2]([C:3](=[O:4])[N:5]([C:6]([H:12])([H:13])[H:14])[C:7]([H:15])([H:16])[H:17])[H:11])([H:8])([H:9])[H:10]>>[C:1]([N:2]=[C:3]=[O:4])([H:8])([H:9])[H:10].[H:11][H:12].[N:5](=[C:6]([H:13])[H:14])[C:7]([H:15])([H:16])[H:17]"
C        2.59589328      -0.59856779       0.19160133
N        1.40809436       0.20707577       0.02394218
C        0.57227307      -0.03586156      -0.93109618
O        0.62287094      -0.35291600      -2.08689857
N       -1.12645659      -0.05494486      -0.32923042
C       -1.39576215      -0.48537185       0.91167766
C       -1.98297438       0.97433915      -0.88548126
H        2.31106962      -1.63794992       0.37724852
H        3.23701915      -0.57602821      -0.69127813
H        3.18614147      -0.18340853       1.00888464
H        0.72922173       0.62679245       1.28661491
H       -0.22356496       0.31609310       1.95425223
H       -0.90583323      -1.42797966       1.14240076
H       -2.45382493      -0.53221190       1.18817927
H       -1.99067811       0.86040691      -1.97013508
H       -2.99246699       0.91962486      -0.47499419
H       -1.59102229       1.98090806      -0.71568767
17
Frame=13 idx=011047 GeodesicLength=1.4733762904654393 rxn_smarts="[C:1]([N:2]([C:3](=[O:4])[N:5]([C:6]([H:12])([H:13])[H:14])[C:7]([H:15])([H:16])[H:17])[H:11])([H:8])([H:9])[H:10]>>[C:1]([N:2]=[C:3]=[O:4])([H:8])([H:9])[H:10].[H:11][H:12].[N:5](=[C:6]([H:13])[H:14])[C:7]([H:15])([H:16])[H:17]"
C        2.59486351      -0.59139187       0.20540875
N        1.43129409       0.23917120      -0.01343839
C        0.59035674      -0.03194205      -0.95542892
O        0.62852613      -0.38078447      -2.10095089
N       -1.13560632      -0.06122415      -0.33733330
C       -1.39881904      -0.49714298       0.90746653
C       -1.98942167       0.98301103      -0.86860775
H        2.27659636      -1.60611582       0.46019900
H        3.23608190      -0.64750727      -0.67547668
H        3.20002453      -0.13869419       0.99132997
H        0.75132226       0.66175184       1.25009526
H       -0.21077323       0.27724402       1.93871512
H       -0.92246854      -1.45288099       1.11544017
H       -2.45886106      -0.55810283       1.17786120
H       -1.99517452       0.89576052      -1.95607852
H       -2.99977501       0.92233644      -0.46036507
H       -1.59816612       1.98651158      -0.67883649
17
Frame=14 idx=011047 GeodesicLength=1.587061732767966 rxn_smarts="[C:1]([N:2]([C:3](=[O:4])[N:5]([C:6]([H:12])([H:13])[H:14])[C:7]([H:15])([H:16])[H:17])[H:11])([H:8])([H:9])[H:10]>>[C:1]([N:2]=[C:3]=[O:4])([H:8])([H:9])[H:10].[H:11][H:12].[N:5](=[C:6]([H:13])[H:14])[C:7]([H:15])([H:16])[H:17]"
C        2.59437320      -0.58229665       0.21889086
N        1.45407834       0.26736314      -0.05151775
C        0.60835164      -0.03142803      -0.97987214
O        0.63397041      -0.41191989      -2.11403824
N       -1.14580474      -0.06848844      -0.34521319
C       -1.40353739      -0.50967755       0.90343232
C       -1.99463028       0.99194471      -0.85111357
H        2.24547447      -1.56755607       0.54039887
H        3.23320290      -0.71498781      -0.65504710
H        3.21482025      -0.09437095       0.97116543
H        0.77269621       0.69613085       1.21175591
H       -0.19743760       0.23542076       1.92171261
H       -0.94352995      -1.47903460       1.08834706
H       -2.46544759      -0.58114532       1.16832352
H       -1.99798021       0.93188332      -1.94076637
H       -3.00614115       0.92695353      -0.44568840
H       -1.60245849       1.99120898      -0.64076981
17
Frame=15 idx=011047 GeodesicLength=1.7009309027750512 rxn_smarts="[C:1]([N:2]([C:3](=[O:4])[N:5]([C:6]([H:12])([H:13])[H:14])[C:7]([H:15])([H:16])[H:17])[H:11])([H:8])([H:9])[H:10]>>[C:1]([N:2]=[C:3]=[O:4])([H:8])([H:9])[H:10].[H:11][H:12].[N:5](=[C:6]([H:13])[H:14])[C:7]([H:15])([H:16])[H:17]"
C        2.59442343      -0.57133857       0.23202130
N        1.47652957       0.29207963      -0.09031433
C        0.62636399      -0.03405709      -1.00440677
O        0.63928724      -0.44621631      -2.12605397
N       -1.15703732      -0.07665557      -0.35285953
C       -1.40987035      -0.52303989       0.89954225
C       -1.99861121       1.00109209      -0.83294692
H        2.21742784      -1.52263599       0.61760772
H        3.22881637      -0.77841785      -0.63014841
H        3.23033476      -0.05060836       0.94860799
H        0.79335785       0.73017581       1.17150359
H       -0.18386909       0.19047391       1.90327204
H       -0.96895094      -1.50631525       1.06105027
H       -2.47362961      -0.60155424       1.15957538
H       -1.99896996       0.96869369      -1.92410382
H       -3.01157863       0.93338073      -0.43088341
H       -1.60402393       1.99494326      -0.60146338
17
Frame=16 idx=011047 GeodesicLength=1.8150718823763465 rxn_smarts="[C:1]([N:2]([C:3](=[O:4])[N:5]([C:6]([H:12])([H:13])[H:14])[C:7]([H:15])([H:16])[H:17])[H:11])([H:8])([H:9])[H:10]>>[C:1]([N:2]=[C:3]=[O:4])([H:8])([H:9])[H:10].[H:11][H:12].[N:5](=[C:6]([H:13])[H:14])[C:7]([H:15])([H:16])[H:17]"
C        2.59500073      -0.55849590       0.24479502
N        1.49870724       0.31364482      -0.12988225
C        0.64446572      -0.03970327      -1.02903843
O        0.64450935      -0.48369524      -2.13690837
N       -1.16931554      -0.08567385      -0.36027515
C       -1.41780724      -0.53732509       0.89576078
C       -2.00132459       1.01044064      -0.81404168
H        2.19222847      -1.47162530       0.69166697
H        3.22325801      -0.83766743      -0.60091873
H        3.24639654      -0.00741509       0.92386786
H        0.81330659       0.76416662       1.12915190
H       -0.17031432       0.14206268       1.88342471
H       -0.99877050      -1.53465311       1.03345546
H       -2.48345315      -0.61950603       1.15163568
H       -1.99798951       1.00616630      -1.90599384
H       -3.01603906       0.94161995      -0.41583893
H       -1.60285876       1.99765930      -0.56086100
