15
Frame=0 idx=009721 GeodesicLength=0.0 rxn_smarts="[C:1]([C@@:2]([O:3][H:12])([C@@:4]([O:5][H:14])([C:6](=[O:7])[H:15])[H:13])[H:11])([H:8])([H:9])[H:10]>>[C:1]([C@@:2]1([H:11])[O:3][C@@:6]([O:7][H:12])([H:15])[C@@:4]1([O:5][H:14])[H:13])([H:8])([H:9])[H:10]"
C       -1.34568863       0.64228841      -1.26655656
C       -0.53156086      -0.26455102      -0.38775846
O        0.82790647      -0.45039567      -0.95308889
C        0.00445245       0.31401435       0.93183704
O       -0.28116557      -0.38675316       2.09361807
C        1.44713331       0.05252542       0.42780964
O        1.95125041      -1.11041009       0.78828314
H       -1.49512220       0.19999489      -2.25193176
H       -2.32237953       0.80866556      -0.80815199
H       -0.85267166       1.60817992      -1.39103207
H       -1.00084154      -1.24113733      -0.25973358
H        1.33591709      -1.33680610      -0.37937118
H       -0.24985641       1.36614606       1.07107782
H        0.38432461      -1.09257168       2.13501390
H        2.12830204       0.89081039       0.24998494
15
Frame=1 idx=009721 GeodesicLength=0.0786624364968293 rxn_smarts="[C:1]([C@@:2]([O:3][H:12])([C@@:4]([O:5][H:14])([C:6](=[O:7])[H:15])[H:13])[H:11])([H:8])([H:9])[H:10]>>[C:1]([C@@:2]1([H:11])[O:3][C@@:6]([O:7][H:12])([H:15])[C@@:4]1([O:5][H:14])[H:13])([H:8])([H:9])[H:10]"
C       -1.34135144       0.64762756      -1.26844998
C       -0.53589088      -0.26678618      -0.38880872
O        0.81604631      -0.46947899      -0.95663906
C        0.00131118       0.30628422       0.93247407
O       -0.28236954      -0.40444131       2.08895321
C        1.44552329       0.06284806       0.43040937
O        1.96652888      -1.08974087       0.79716248
H       -1.50147263       0.20178327      -2.25055423
H       -2.31404261       0.83051267      -0.80780108
H       -0.83510607       1.60545186      -1.40158834
H       -1.01752289      -1.23733445      -0.25863301
H        1.34580831      -1.35441519      -0.37275945
H       -0.25744778       1.35649889       1.07908513
H        0.39585367      -1.09678143       2.13941395
H        2.11413222       0.90797188       0.23773566
15
Frame=2 idx=009721 GeodesicLength=0.15726307728496586 rxn_smarts="[C:1]([C@@:2]([O:3][H:12])([C@@:4]([O:5][H:14])([C:6](=[O:7])[H:15])[H:13])[H:11])([H:8])([H:9])[H:10]>>[C:1]([C@@:2]1([H:11])[O:3][C@@:6]([O:7][H:12])([H:15])[C@@:4]1([O:5][H:14])[H:13])([H:8])([H:9])[H:10]"
C       -1.33679231       0.65297025      -1.27037996
C       -0.54035970      -0.26906897      -0.38978260
O        0.80388374      -0.48893099      -0.95989701
C       -0.00189430       0.29847941       0.93316035
O       -0.28314330      -0.42242840       2.08421710
C        1.44369759       0.07347046       0.43305422
O        1.98141572      -1.06867149       0.80550963
H       -1.50765090       0.20379807      -2.24916720
H       -2.30521992       0.85251420      -0.80764365
H       -0.81727846       1.60237230      -1.41214567
H       -1.03452795      -1.23327846      -0.25740037
H        1.35601287      -1.37210412      -0.36600763
H       -0.26536183       1.34661917       1.08728323
H        0.40768608      -1.10079041       2.14381261
H        2.09953267       0.92504898       0.22538694
15
Frame=3 idx=009721 GeodesicLength=0.23582360196814364 rxn_smarts="[C:1]([C@@:2]([O:3][H:12])([C@@:4]([O:5][H:14])([C:6](=[O:7])[H:15])[H:13])[H:11])([H:8])([H:9])[H:10]>>[C:1]([C@@:2]1([H:11])[O:3][C@@:6]([O:7][H:12])([H:15])[C@@:4]1([O:5][H:14])[H:13])([H:8])([H:9])[H:10]"
C       -1.33201004       0.65830620      -1.27234293
C       -0.54496132      -0.27139583      -0.39067958
O        0.79141313      -0.50873078      -0.96285944
C       -0.00516046       0.29060687       0.93389611
O       -0.28348326      -0.44070221       2.07940208
C        1.44165080       0.08439782       0.43575985
O        1.99587954      -1.04723581       0.81330538
H       -1.51366041       0.20603078      -2.24776660
H       -2.29589872       0.87465526      -0.80767039
H       -0.79919320       1.59892975      -1.42270350
H       -1.05184291      -1.22895599      -0.25603045
H        1.36654569      -1.38986424      -0.35915729
H       -0.27359378       1.33650590       1.09566565
H        0.41980634      -1.10458208       2.14820937
H        2.08450860       0.94203437       0.21297172
15
Frame=4 idx=009721 GeodesicLength=0.31436042229246375 rxn_smarts="[C:1]([C@@:2]([O:3][H:12])([C@@:4]([O:5][H:14])([C:6](=[O:7])[H:15])[H:13])[H:11])([H:8])([H:9])[H:10]>>[C:1]([C@@:2]1([H:11])[O:3][C@@:6]([O:7][H:12])([H:15])[C@@:4]1([O:5][H:14])[H:13])([H:8])([H:9])[H:10]"
C       -1.32700416       0.66362687      -1.27433544
C       -0.54969012      -0.27376191      -0.39149985
O        0.77862972      -0.52885343      -0.96552562
C       -0.00848129       0.28267518       0.93467956
O       -0.28338515      -0.45924400       2.07450064
C        1.43938017       0.09562812       0.43854145
O        2.00989356      -1.02546908       0.82054315
H       -1.51950667       0.20847086      -2.24634697
H       -2.28606919       0.89691578      -0.80786989
H       -0.78086481       1.59511001      -1.43326250
H       -1.06945095      -1.22435349      -0.25451731
H        1.37742035      -1.40768377      -0.35225990
H       -0.28213307       1.32616293       1.10422305
H        0.43218785      -1.10814466       2.15259958
H        2.06907375       0.95892059       0.20053004
15
Frame=5 idx=009721 GeodesicLength=0.39289922850210673 rxn_smarts="[C:1]([C@@:2]([O:3][H:12])([C@@:4]([O:5][H:14])([C:6](=[O:7])[H:15])[H:13])[H:11])([H:8])([H:9])[H:10]>>[C:1]([C@@:2]1([H:11])[O:3][C@@:6]([O:7][H:12])([H:15])[C@@:4]1([O:5][H:14])[H:13])([H:8])([H:9])[H:10]"
C       -1.32177301       0.66892144      -1.27635418
C       -0.55453898      -0.27616294      -0.39224331
O        0.76552922      -0.54927820      -0.96789366
C       -0.01185128       0.27469216       0.93551021
O       -0.28284502      -0.47803986       2.06950382
C        1.43688186       0.10716866       0.44141838
O        2.02343333      -1.00340508       0.82721035
H       -1.52519599       0.21111065      -2.24490260
H       -2.27571907       0.91928310      -0.80823082
H       -0.76230023       1.59089715      -1.44382657
H       -1.08733536      -1.21945718      -0.25285615
H        1.38864477      -1.42556176      -0.34536075
H       -0.29097290       1.31558903       1.11294753
H        0.44481047      -1.11146476       2.15698012
H        2.05323217       0.97570759       0.18809763
15
Frame=6 idx=009721 GeodesicLength=0.47144384202917106 rxn_smarts="[C:1]([C@@:2]([O:3][H:12])([C@@:4]([O:5][H:14])([C:6](=[O:7])[H:15])[H:13])[H:11])([H:8])([H:9])[H:10]>>[C:1]([C@@:2]1([H:11])[O:3][C@@:6]([O:7][H:12])([H:15])[C@@:4]1([O:5][H:14])[H:13])([H:8])([H:9])[H:10]"
C       -1.31631913       0.67418057      -1.27839623
C       -0.55950158      -0.27859425      -0.39290902
O        0.75210586      -0.56998059      -0.96996522
C       -0.01526606       0.26666779       0.93638673
O       -0.28185706      -0.49707035       2.06440445
C        1.43415322       0.11902437       0.44440906
O        2.03647267      -0.98108604       0.83329501
H       -1.53073322       0.21393719      -2.24342851
H       -2.26483798       0.94173568      -0.80874512
H       -0.74351382       1.58627965      -1.45439773
H       -1.10547836      -1.21425368      -0.25103759
H        1.40023113      -1.44348715      -0.33850930
H       -0.30010739       1.30478829       1.12183034
H        0.45764684      -1.11453094       2.16134686
H        2.03700486       0.99238946       0.17571628
15
Frame=7 idx=009721 GeodesicLength=0.550012365086489 rxn_smarts="[C:1]([C@@:2]([O:3][H:12])([C@@:4]([O:5][H:14])([C:6](=[O:7])[H:15])[H:13])[H:11])([H:8])([H:9])[H:10]>>[C:1]([C@@:2]1([H:11])[O:3][C@@:6]([O:7][H:12])([H:15])[C@@:4]1([O:5][H:14])[H:13])([H:8])([H:9])[H:10]"
C       -1.31064342       0.67939336      -1.28045884
C       -0.56457073      -0.28105114      -0.39349773
O        0.73835178      -0.59094040      -0.97174713
C       -0.01872026       0.25861022       0.93730789
O       -0.28042064      -0.51631650       2.05919350
C        1.43119167       0.13120177       0.44753343
O        2.04899123      -0.95854423       0.83878645
H       -1.53613026       0.21694021      -2.24191789
H       -2.25341475       0.96425884      -0.80940016
H       -0.72451439       1.58124350      -1.46498197
H       -1.12385982      -1.20872987      -0.24905585
H        1.41219330      -1.46145406      -0.33174539
H       -0.30952959       1.29376305       1.13086316
H        0.47067174      -1.11733426       2.16569338
H        2.02040414       1.00895952       0.16342716
15
Frame=8 idx=009721 GeodesicLength=0.6285972677209192 rxn_smarts="[C:1]([C@@:2]([O:3][H:12])([C@@:4]([O:5][H:14])([C:6](=[O:7])[H:15])[H:13])[H:11])([H:8])([H:9])[H:10]>>[C:1]([C@@:2]1([H:11])[O:3][C@@:6]([O:7][H:12])([H:15])[C@@:4]1([O:5][H:14])[H:13])([H:8])([H:9])[H:10]"
C       -1.30474533       0.68454935      -1.28253940
C       -0.56973964      -0.28352824      -0.39400766
O        0.72426383      -0.61213683      -0.97323813
C       -0.02220788       0.25053002       0.93827323
O       -0.27852740      -0.53575681       2.05386435
C        1.42799604       0.14370545       0.45081417
O        2.06096936      -0.93581885       0.84367452
H       -1.54139049       0.22010881      -2.24036582
H       -2.24143723       0.98683388      -0.81018761
H       -0.70531882       1.57577391      -1.47558590
H       -1.14246065      -1.20287152      -0.24690002
H        1.42453391      -1.47946030      -0.32511630
H       -0.31923179       1.28251703       1.14003754
H        0.48385295      -1.11987237       2.17000984
H        2.00344315       1.02542646       0.15126720
15
Frame=9 idx=009721 GeodesicLength=0.7072122496164348 rxn_smarts="[C:1]([C@@:2]([O:3][H:12])([C@@:4]([O:5][H:14])([C:6](=[O:7])[H:15])[H:13])[H:11])([H:8])([H:9])[H:10]>>[C:1]([C@@:2]1([H:11])[O:3][C@@:6]([O:7][H:12])([H:15])[C@@:4]1([O:5][H:14])[H:13])([H:8])([H:9])[H:10]"
C       -1.29862770       0.68963887      -1.28463533
C       -0.57499887      -0.28601968      -0.39444093
O        0.70983590      -0.63354715      -0.97444568
C       -0.02572136       0.24243825       0.93927951
O       -0.27616991      -0.55537042       2.04840595
C        1.42456617       0.15654255       0.45427520
O        2.07238849      -0.91295389       0.84795830
H       -1.54652640       0.22343457      -2.23876298
H       -2.22889224       1.00944386      -0.81109208
H       -0.68594538       1.56985100      -1.48622162
H       -1.16125607      -1.19666472      -0.24456597
H        1.43726256      -1.49750457      -0.31866388
H       -0.32920492       1.27105359       1.14934351
H        0.49715476      -1.12213974       2.17428998
H        1.98613499       1.04179745       0.13927601
15
Frame=10 idx=009721 GeodesicLength=0.78585183289247 rxn_smarts="[C:1]([C@@:2]([O:3][H:12])([C@@:4]([O:5][H:14])([C:6](=[O:7])[H:15])[H:13])[H:11])([H:8])([H:9])[H:10]>>[C:1]([C@@:2]1([H:11])[O:3][C@@:6]([O:7][H:12])([H:15])[C@@:4]1([O:5][H:14])[H:13])([H:8])([H:9])[H:10]"
C       -1.29228907       0.69465144      -1.28674557
C       -0.58034163      -0.28852169      -0.39479484
O        0.69506109      -0.65515674      -0.97537397
C       -0.02925687       0.23434405       0.94032714
O       -0.27334711      -0.57513413       2.04281305
C        1.42089966       0.16972433       0.45794048
O        2.08323795      -0.88996942       0.85162630
H       -1.55154631       0.22690347      -2.23710345
H       -2.21576743       1.03207677      -0.81211045
H       -0.66640590       1.56346289      -1.49689421
H       -1.18022795      -1.19009660      -0.24204006
H        1.45038165      -1.51558516      -0.31242741
H       -0.33944796       1.25937542       1.15877505
H        0.51055151      -1.12414234       2.17851749
H        1.96849837       1.05806770       0.12749046
15
Frame=11 idx=009721 GeodesicLength=0.8645205806883529 rxn_smarts="[C:1]([C@@:2]([O:3][H:12])([C@@:4]([O:5][H:14])([C:6](=[O:7])[H:15])[H:13])[H:11])([H:8])([H:9])[H:10]>>[C:1]([C@@:2]1([H:11])[O:3][C@@:6]([O:7][H:12])([H:15])[C@@:4]1([O:5][H:14])[H:13])([H:8])([H:9])[H:10]"
C       -1.28573133       0.69957632      -1.28886833
C       -0.58575968      -0.29102927      -0.39506997
O        0.67993168      -0.67694937      -0.97603159
C       -0.03280817       0.22625773       0.94141433
O       -0.27005604      -0.59502715       2.03707699
C        1.41699420       0.18326429       0.46183663
O        2.09350533      -0.86689607       0.85466442
H       -1.55646290       0.23050623      -2.23537916
H       -2.20204796       1.05472176      -0.81323179
H       -0.64671131       1.55659045      -1.50761768
H       -1.19935445      -1.18315350      -0.23931589
H        1.46389633      -1.53370624      -0.30643370
H       -0.34995639       1.24748294       1.16832497
H        0.52401674      -1.12588207       2.18267968
H        1.95054395       1.07424394       0.11595108
15
Frame=12 idx=009721 GeodesicLength=0.9432019251410895 rxn_smarts="[C:1]([C@@:2]([O:3][H:12])([C@@:4]([O:5][H:14])([C:6](=[O:7])[H:15])[H:13])[H:11])([H:8])([H:9])[H:10]>>[C:1]([C@@:2]1([H:11])[O:3][C@@:6]([O:7][H:12])([H:15])[C@@:4]1([O:5][H:14])[H:13])([H:8])([H:9])[H:10]"
C       -1.27895620       0.70440389      -1.29100182
C       -0.59124562      -0.29353712      -0.39526377
O        0.66444170      -0.69890587      -0.97642451
C       -0.03636853       0.21819209       0.94254038
O       -0.26629140      -0.61501970       2.03119212
C        1.41284982       0.19716965       0.46599053
O        2.10318048      -0.84376360       0.85706915
H       -1.56128397       0.23423173      -2.23358181
H       -2.18771784       1.07736059      -0.81445172
H       -0.62688325       1.54921620      -1.51840185
H       -1.21861175      -1.17582270      -0.23638006
H        1.47780844      -1.55186660      -0.30071850
H       -0.36072257       1.23538360       1.17798402
H        0.53751361      -1.12737582       2.18675557
H        1.93228707       1.09033366       0.10469228
15
Frame=13 idx=009721 GeodesicLength=1.02190358665133 rxn_smarts="[C:1]([C@@:2]([O:3][H:12])([C@@:4]([O:5][H:14])([C:6](=[O:7])[H:15])[H:13])[H:11])([H:8])([H:9])[H:10]>>[C:1]([C@@:2]1([H:11])[O:3][C@@:6]([O:7][H:12])([H:15])[C@@:4]1([O:5][H:14])[H:13])([H:8])([H:9])[H:10]"
C       -1.27196463       0.70912252      -1.29314468
C       -0.59679083      -0.29604168      -0.39537550
O        0.64858231      -0.72101394      -0.97655939
C       -0.03993318       0.21015754       0.94370425
O       -0.26204660      -0.63508639       2.02515278
C        1.40846315       0.21145614       0.47043208
O        2.11225924      -0.82058661       0.85883565
H       -1.56601937       0.23807304      -2.23170435
H       -2.17275922       1.09998106      -0.81576314
H       -0.60693324       1.54132242      -1.52925914
H       -1.23797636      -1.16809221      -0.23322204
H        1.49210982      -1.57007918      -0.29530868
H       -0.37174345       1.22307951       1.18774462
H        0.55101246      -1.12864190       2.19072155
H        1.91373992       1.10634969       0.09374599
15
Frame=14 idx=009721 GeodesicLength=1.1006058025468335 rxn_smarts="[C:1]([C@@:2]([O:3][H:12])([C@@:4]([O:5][H:14])([C:6](=[O:7])[H:15])[H:13])[H:11])([H:8])([H:9])[H:10]>>[C:1]([C@@:2]1([H:11])[O:3][C@@:6]([O:7][H:12])([H:15])[C@@:4]1([O:5][H:14])[H:13])([H:8])([H:9])[H:10]"
C       -1.26475664       0.71372373      -1.29529642
C       -0.60238767      -0.29853739      -0.39540404
O        0.63234551      -0.74326003      -0.97644571
C       -0.04349476       0.20216693       0.94490390
O       -0.25732049      -0.65519731       2.01895384
C        1.40383381       0.22613783       0.47519150
O        2.12073097      -0.79739354       0.85994808
H       -1.57067891       0.24202061      -2.22973808
H       -2.15715412       1.12256848      -0.81716161
H       -0.58688003       1.53289052      -1.54020138
H       -1.25742587      -1.15994832      -0.22983149
H        1.50680626      -1.58834638      -0.29021969
H       -0.38301513       1.21057419       1.19759899
H        0.56448678      -1.12969967       2.19455475
H        1.89491029       1.12230036       0.08314736
15
Frame=15 idx=009721 GeodesicLength=1.1793030293414273 rxn_smarts="[C:1]([C@@:2]([O:3][H:12])([C@@:4]([O:5][H:14])([C:6](=[O:7])[H:15])[H:13])[H:11])([H:8])([H:9])[H:10]>>[C:1]([C@@:2]1([H:11])[O:3][C@@:6]([O:7][H:12])([H:15])[C@@:4]1([O:5][H:14])[H:13])([H:8])([H:9])[H:10]"
C       -1.25732970       0.71819966      -1.29745673
C       -0.60802844      -0.30102033      -0.39534969
O        0.61572090      -0.76563588      -0.97609299
C       -0.04704816       0.19422968       0.94613771
O       -0.25211156      -0.67532955       2.01258820
C        1.39895782       0.24123280       0.48030157
O        2.12858912      -0.77420164       0.86038712
H       -1.57527567       0.24607261      -2.22767306
H       -2.14087852       1.14511815      -0.81864334
H       -0.56673648       1.52389517      -1.55124563
H       -1.27693912      -1.15137905      -0.22620135
H        1.52189841      -1.60668101      -0.28545575
H       -0.39453789       1.19786473       1.20754152
H        0.57792100      -1.13056648       2.19823323
H        1.87579830       1.13820114       0.07292918
15
Frame=16 idx=009721 GeodesicLength=1.2579777240839907 rxn_smarts="[C:1]([C@@:2]([O:3][H:12])([C@@:4]([O:5][H:14])([C:6](=[O:7])[H:15])[H:13])[H:11])([H:8])([H:9])[H:10]>>[C:1]([C@@:2]1([H:11])[O:3][C@@:6]([O:7][H:12])([H:15])[C@@:4]1([O:5][H:14])[H:13])([H:8])([H:9])[H:10]"
C       -1.24968331       0.72254048      -1.29962524
C       -0.61370576      -0.30348661      -0.39521073
O        0.59869740      -0.78813214      -0.97550850
C       -0.05058701       0.18635802       0.94740435
O       -0.24641370      -0.69545068       2.00605179
C        1.39383337       0.25675613       0.48579517
O        2.13583032      -0.75102772       0.86014256
H       -1.57981852       0.25022402      -2.22550181
H       -2.12391000       1.16761722      -0.82020577
H       -0.54651814       1.51431528      -1.56240585
H       -1.29649329      -1.14237131      -0.22232010
H        1.53738464      -1.62509099      -0.28102576
H       -0.40630879       1.18495527       1.21756553
H        0.59128798      -1.13127616       2.20172551
H        1.85640482       1.15406920       0.06311885
