12
Frame=0 idx=006789 GeodesicLength=0.0 rxn_smarts="[O:1]=[C:2]([C@@:3]1([H:9])[C:4]([H:10])([H:11])[N:5]1[C:6](=[O:7])[H:12])[H:8]>>[C@:3]12([H:9])[C:4]([H:10])([H:11])[N:5]1[C@:6]2([O:7][H:8])[H:12].[O+:1]#[C-:2]"
O        2.51452937      -0.17157907      -0.78886901
C        1.39907589      -0.43761332      -0.82140971
C        0.33033923       0.20036660       0.66944811
C       -0.51478793       1.27421170       0.07796369
N       -1.16974873       0.26520674       0.86975886
C       -0.85483894      -0.96841194       0.24654925
O       -0.87854550      -1.22530366      -1.01024167
H        0.30431640      -0.97518364      -1.31785564
H        0.93374727       0.31325372       1.56048780
H       -0.65581887       1.27316360      -1.00034740
H       -0.50985965       2.24595272       0.55449358
H       -0.89840854      -1.79406350       0.96002213
12
Frame=1 idx=006789 GeodesicLength=0.07100484546419344 rxn_smarts="[O:1]=[C:2]([C@@:3]1([H:9])[C:4]([H:10])([H:11])[N:5]1[C:6](=[O:7])[H:12])[H:8]>>[C@:3]12([H:9])[C:4]([H:10])([H:11])[N:5]1[C@:6]2([O:7][H:8])[H:12].[O+:1]#[C-:2]"
O        2.53412650      -0.18465827      -0.79024206
C        1.41342780      -0.43025671      -0.82568754
C        0.33083316       0.20309593       0.67004095
C       -0.51752241       1.27522998       0.07903709
N       -1.16610176       0.26369437       0.87252481
C       -0.86398780      -0.97144897       0.24715192
O       -0.89025707      -1.22982436      -1.00988451
H        0.30492081      -0.96928354      -1.32067855
H        0.93350096       0.31991188       1.56138637
H       -0.66207278       1.27374242      -0.99867304
H       -0.51523123       2.24753634       0.55461975
H       -0.90163620      -1.79773907       0.96040482
12
Frame=2 idx=006789 GeodesicLength=0.1419735009237966 rxn_smarts="[O:1]=[C:2]([C@@:3]1([H:9])[C:4]([H:10])([H:11])[N:5]1[C:6](=[O:7])[H:12])[H:8]>>[C@:3]12([H:9])[C:4]([H:10])([H:11])[N:5]1[C@:6]2([O:7][H:8])[H:12].[O+:1]#[C-:2]"
O        2.55372546      -0.19776527      -0.79188319
C        1.42809315      -0.42255087      -0.82996936
C        0.33133114       0.20580475       0.67064191
C       -0.52024375       1.27622142       0.08011317
N       -1.16245434       0.26215184       0.87521947
C       -0.87333880      -0.97447999       0.24777704
O       -0.90219764      -1.23435716      -1.00949801
H        0.30572816      -0.96351775      -1.32322624
H        0.93325262       0.32653931       1.56227975
H       -0.66826044       1.27429578      -0.99699222
H       -0.52062973       2.24907156       0.55477616
H       -0.90500584      -1.80141362       0.96076152
12
Frame=3 idx=006789 GeodesicLength=0.21289157637671297 rxn_smarts="[O:1]=[C:2]([C@@:3]1([H:9])[C:4]([H:10])([H:11])[N:5]1[C:6](=[O:7])[H:12])[H:8]>>[C@:3]12([H:9])[C:4]([H:10])([H:11])[N:5]1[C@:6]2([O:7][H:8])[H:12].[O+:1]#[C-:2]"
O        2.57325137      -0.21047649      -0.79398201
C        1.44309848      -0.41462635      -0.83415278
C        0.33182246       0.20843302       0.67128901
C       -0.52287924       1.27716298       0.08117771
N       -1.15882309       0.26060294       0.87781695
C       -0.88295441      -0.97750458       0.24843045
O       -0.91439873      -1.23891928      -1.00907384
H        0.30675918      -0.95798631      -1.32543992
H        0.93297223       0.33305544       1.56322050
H       -0.67425804       1.27479107      -0.99532607
H       -0.52594696       2.25054313       0.55493382
H       -0.90864325      -1.80507556       0.96110618
12
Frame=4 idx=006789 GeodesicLength=0.2837346472399061 rxn_smarts="[O:1]=[C:2]([C@@:3]1([H:9])[C:4]([H:10])([H:11])[N:5]1[C:6](=[O:7])[H:12])[H:8]>>[C@:3]12([H:9])[C:4]([H:10])([H:11])[N:5]1[C@:6]2([O:7][H:8])[H:12].[O+:1]#[C-:2]"
O        2.59263776      -0.22221276      -0.79677008
C        1.45847276      -0.40666619      -0.83812325
C        0.33229217       0.21089485       0.67202824
C       -0.52533495       1.27802111       0.08220965
N       -1.15522965       0.25907610       0.88028732
C       -0.89292134      -0.98051466       0.24912185
O       -0.92691085      -1.24351594      -1.00859766
H        0.30803419      -0.95283386      -1.32723326
H        0.93262150       0.33934458       1.56427595
H       -0.67991110       1.27518582      -0.99370628
H       -0.53103589       2.25192824       0.55504840
H       -0.91271460      -1.80870728       0.96145913
12
Frame=5 idx=006789 GeodesicLength=0.35452812501772124 rxn_smarts="[O:1]=[C:2]([C@@:3]1([H:9])[C:4]([H:10])([H:11])[N:5]1[C:6](=[O:7])[H:12])[H:8]>>[C@:3]12([H:9])[C:4]([H:10])([H:11])[N:5]1[C@:6]2([O:7][H:8])[H:12].[O+:1]#[C-:2]"
O        2.61206750      -0.23404379      -0.79981910
C        1.47417075      -0.39828912      -0.84209780
C        0.33276784       0.21334086       0.67276737
C       -0.52778755       1.27884820       0.08324136
N       -1.15163192       0.25750677       0.88268937
C       -0.90309916      -0.98351354       0.24984066
O       -0.93970140      -1.24811471      -1.00808675
H        0.30953187      -0.94781460      -1.32874514
H        0.93226203       0.34560833       1.56532229
H       -0.68550923       1.27555219      -0.99208434
H       -0.53616529       2.25325759       0.55518934
H       -0.91690543      -1.81233820       0.96178273
12
Frame=6 idx=006789 GeodesicLength=0.4253032351726891 rxn_smarts="[O:1]=[C:2]([C@@:3]1([H:9])[C:4]([H:10])([H:11])[N:5]1[C:6](=[O:7])[H:12])[H:8]>>[C@:3]12([H:9])[C:4]([H:10])([H:11])[N:5]1[C@:6]2([O:7][H:8])[H:12].[O+:1]#[C-:2]"
O        2.63149059      -0.24537158      -0.80338118
C        1.49023476      -0.38969412      -0.84594965
C        0.33323768       0.21568525       0.67355579
C       -0.53014068       1.27961707       0.08425383
N       -1.14805738       0.25592870       0.88499248
C       -0.91358207      -0.98649970       0.25059571
O       -0.95282698      -1.25273411      -1.00752868
H        0.31127307      -0.94308186      -1.32989274
H        0.93186220       0.35173684       1.56642978
H       -0.69089640       1.27585041      -0.99048967
H       -0.54119143       2.25452071       0.55531782
H       -0.92140336      -1.81595761       0.96209651
12
Frame=7 idx=006789 GeodesicLength=0.4960147633199486 rxn_smarts="[O:1]=[C:2]([C@@:3]1([H:9])[C:4]([H:10])([H:11])[N:5]1[C:6](=[O:7])[H:12])[H:8]>>[C@:3]12([H:9])[C:4]([H:10])([H:11])[N:5]1[C@:6]2([O:7][H:8])[H:12].[O+:1]#[C-:2]"
O        2.65088164      -0.25570052      -0.80764896
C        1.50667738      -0.38104111      -0.84957618
C        0.33368898       0.21785347       0.67442939
C       -0.53231182       1.28029301       0.08522772
N       -1.14451886       0.25436360       0.88717375
C       -0.92444345      -0.98945906       0.25139661
O       -0.96633732      -1.25737266      -1.00691083
H        0.31326707      -0.93875537      -1.33060739
H        0.93138577       0.35763398       1.56765012
H       -0.69594279       1.27603697      -0.98894938
H       -0.54599177       2.25568802       0.55539463
H       -0.92635483      -1.81954033       0.96242052
12
Frame=8 idx=006789 GeodesicLength=0.5667052319439572 rxn_smarts="[O:1]=[C:2]([C@@:3]1([H:9])[C:4]([H:10])([H:11])[N:5]1[C:6](=[O:7])[H:12])[H:8]>>[C@:3]12([H:9])[C:4]([H:10])([H:11])[N:5]1[C@:6]2([O:7][H:8])[H:12].[O+:1]#[C-:2]"
O        2.67036278      -0.26611626      -0.81221599
C        1.52348036      -0.37193342      -0.85319263
C        0.33414946       0.21999810       0.67530140
C       -0.53448024       1.28093172       0.08619894
N       -1.14097838       0.25274727       0.88928751
C       -0.93553881      -0.99240028       0.25223065
O       -0.98018727      -1.26200034      -1.00625068
H        0.31551307      -0.93459005      -1.33101526
H        0.93089777       0.36350419       1.56886554
H       -0.70093338       1.27618651      -0.98741221
H       -0.55083956       2.25679655       0.55549403
H       -0.93144579      -1.82312400       0.96270869
12
Frame=9 idx=006789 GeodesicLength=0.6373750601723113 rxn_smarts="[O:1]=[C:2]([C@@:3]1([H:9])[C:4]([H:10])([H:11])[N:5]1[C:6](=[O:7])[H:12])[H:8]>>[C@:3]12([H:9])[C:4]([H:10])([H:11])[N:5]1[C@:6]2([O:7][H:8])[H:12].[O+:1]#[C-:2]"
O        2.68990663      -0.27603618      -0.81731607
C        1.54066937      -0.36255963      -0.85667584
C        0.33460709       0.22203396       0.67621633
C       -0.53655113       1.28150186       0.08714565
N       -1.13745732       0.25110891       0.89130536
C       -0.94695965      -0.99531651       0.25310775
O       -0.99443800      -1.26662866      -1.00553492
H        0.31802610      -0.93073262      -1.33103407
H        0.93036502       0.36923686       1.57013951
H       -0.70571974       1.27625634      -0.98590927
H       -0.55558949       2.25782765       0.55557201
H       -0.93685888      -1.82669198       0.96298356
12
Frame=10 idx=006789 GeodesicLength=0.7080215522363111 rxn_smarts="[O:1]=[C:2]([C@@:3]1([H:9])[C:4]([H:10])([H:11])[N:5]1[C:6](=[O:7])[H:12])[H:8]>>[C@:3]12([H:9])[C:4]([H:10])([H:11])[N:5]1[C@:6]2([O:7][H:8])[H:12].[O+:1]#[C-:2]"
O        2.70952992      -0.28549015      -0.82294706
C        1.55825135      -0.35289099      -0.86002759
C        0.33506328       0.22396281       0.67717067
C       -0.53852904       1.28200104       0.08806694
N       -1.13395392       0.24944265       0.89322828
C       -0.95870821      -0.99820365       0.25402972
O       -1.00911001      -1.27125021      -1.00476094
H        0.32081625      -0.92718567      -1.33065726
H        0.92978663       0.37483549       1.57146944
H       -0.71030813       1.27624376      -0.98444188
H       -0.56024900       2.25877815       0.55562757
H       -0.94258912      -1.83024322       0.96324211
12
Frame=11 idx=006789 GeodesicLength=0.778652542664512 rxn_smarts="[O:1]=[C:2]([C@@:3]1([H:9])[C:4]([H:10])([H:11])[N:5]1[C:6](=[O:7])[H:12])[H:8]>>[C@:3]12([H:9])[C:4]([H:10])([H:11])[N:5]1[C@:6]2([O:7][H:8])[H:12].[O+:1]#[C-:2]"
O        2.72924997      -0.29445716      -0.82912711
C        1.57623658      -0.34291584      -0.86323871
C        0.33551921       0.22577926       0.67816507
C       -0.54041089       1.28242613       0.08895993
N       -1.13046946       0.24774530       0.89505462
C       -0.97079557      -1.00105880       0.25499905
O       -1.02423038      -1.27586064      -1.00392522
H        0.32389439      -0.92396524      -1.32987109
H        0.92916125       0.38029413       1.57285843
H       -0.71469325       1.27614459      -0.98301414
H       -0.56481304       2.25964669       0.55565580
H       -0.94864882      -1.83377841       0.96348336
12
Frame=12 idx=006789 GeodesicLength=0.84925323008442 rxn_smarts="[O:1]=[C:2]([C@@:3]1([H:9])[C:4]([H:10])([H:11])[N:5]1[C:6](=[O:7])[H:12])[H:8]>>[C@:3]12([H:9])[C:4]([H:10])([H:11])[N:5]1[C@:6]2([O:7][H:8])[H:12].[O+:1]#[C-:2]"
O        2.74907743      -0.30260006      -0.83598493
C        1.59463481      -0.33273641      -0.86624203
C        0.33596765       0.22743266       0.67922142
C       -0.54214261       1.28275428       0.08981065
N       -1.12701376       0.24603063       0.89677026
C       -0.98327760      -1.00387069       0.25602286
O       -1.03985048      -1.28045623      -1.00301805
H        0.32727098      -0.92116625      -1.32862276
H        0.92846769       0.38554797       1.57433903
H       -0.71879257       1.27592875      -0.98164525
H       -0.56919699       2.26041626       0.55562880
H       -0.95514454      -1.83728090       0.96372000
12
Frame=13 idx=006789 GeodesicLength=0.9198364858276029 rxn_smarts="[O:1]=[C:2]([C@@:3]1([H:9])[C:4]([H:10])([H:11])[N:5]1[C:6](=[O:7])[H:12])[H:8]>>[C@:3]12([H:9])[C:4]([H:10])([H:11])[N:5]1[C@:6]2([O:7][H:8])[H:12].[O+:1]#[C-:2]"
O        2.76903233      -0.31043268      -0.84336270
C        1.61345478      -0.32214672      -0.86912103
C        0.33642163       0.22899269       0.68030476
C       -0.54380509       1.28300723       0.09063523
N       -1.12356891       0.24426374       0.89839488
C       -0.99608466      -1.00664288       0.25709548
O       -1.05595236      -1.28501996      -1.00204625
H        0.33096248      -0.91867057      -1.32695748
H        0.92773130       0.39069307       1.57586382
H       -0.72272598       1.27562710      -0.98031350
H       -0.57353318       2.26109869       0.55558040
H       -0.96193234      -1.84076972       0.96392638
12
Frame=14 idx=006789 GeodesicLength=0.9904137190457469 rxn_smarts="[O:1]=[C:2]([C@@:3]1([H:9])[C:4]([H:10])([H:11])[N:5]1[C:6](=[O:7])[H:12])[H:8]>>[C@:3]12([H:9])[C:4]([H:10])([H:11])[N:5]1[C@:6]2([O:7][H:8])[H:12].[O+:1]#[C-:2]"
O        2.78913613      -0.31760177      -0.85139613
C        1.63271133      -0.31125314      -0.87180520
C        0.33687608       0.23040670       0.68143825
C       -0.54534293       1.28316558       0.09141884
N       -1.12014778       0.24245954       0.89991367
C       -1.00927862      -1.00936706       0.25822417
O       -1.07259680      -1.28955154      -1.00099978
H        0.33498114      -0.91658256      -1.32481797
H        0.92693607       0.39566239       1.57746688
H       -0.72641064       1.27521204      -0.97903917
H       -0.57773448       2.26168436       0.55548094
H       -0.96912952      -1.84423453       0.96411550
12
Frame=15 idx=006789 GeodesicLength=1.0609804434559442 rxn_smarts="[O:1]=[C:2]([C@@:3]1([H:9])[C:4]([H:10])([H:11])[N:5]1[C:6](=[O:7])[H:12])[H:8]>>[C@:3]12([H:9])[C:4]([H:10])([H:11])[N:5]1[C@:6]2([O:7][H:8])[H:12].[O+:1]#[C-:2]"
O        2.80940240      -0.32404800      -0.86011639
C        1.65241371      -0.30005336      -0.87427798
C        0.33733170       0.23166315       0.68262472
C       -0.54674586       1.28322078       0.09215638
N       -1.11675026       0.24061479       0.90132323
C       -1.02287385      -1.01203599       0.25941197
O       -1.08981713      -1.29404066      -0.99987370
H        0.33934069      -0.91493069      -1.32218172
H        0.92607811       0.40044255       1.57915383
H       -0.72983117       1.27467211      -0.97782888
H       -0.58178639       2.26216606       0.55532101
H       -0.97676195      -1.84767075       0.96428752
12
Frame=16 idx=006789 GeodesicLength=1.131538118860488 rxn_smarts="[O:1]=[C:2]([C@@:3]1([H:9])[C:4]([H:10])([H:11])[N:5]1[C:6](=[O:7])[H:12])[H:8]>>[C@:3]12([H:9])[C:4]([H:10])([H:11])[N:5]1[C@:6]2([O:7][H:8])[H:12].[O+:1]#[C-:2]"
O        2.82984898      -0.32968725      -0.86956691
C        1.67257220      -0.28855349      -0.87651644
C        0.33778845       0.23274717       0.68386927
C       -0.54800058       1.28316373       0.09284174
N       -1.11337873       0.23872728       0.90261881
C       -1.03688963      -1.01464222       0.26066206
O       -1.10765183      -1.29847736      -0.99866269
H        0.34405580      -0.91375218      -1.31902080
H        0.92515251       0.40501584       1.58093348
H       -0.73296636       1.27399508      -0.97669086
H       -0.58566775       2.26253763       0.55508903
H       -0.98486306      -1.85107423       0.96444330
