16
Frame=0 idx=008575 GeodesicLength=0.0 rxn_smarts="[C:1]([c:2]1[c:3]([H:11])[c:4]([C:5]([H:12])([H:13])[H:14])[c:6]([H:15])[n:7]1[H:16])([H:8])([H:9])[H:10]>>[C:1]([C+:2]1[C@@:3]([C:5]([H:12])([H:13])[H:14])([H:11])[C-:4]=[C:6]([H:15])[N:7]1[H:16])([H:8])([H:9])[H:10]"
C        2.07904120      -0.54302776      -0.26373033
C        0.78782107       0.00719015       0.23156048
C       -0.41658646      -0.62988603       0.62572841
C       -1.42685802       0.35287284       1.01638385
C       -1.76594538      -0.65141329      -0.60220800
C       -0.77009611       1.55502710       0.70804465
N        0.50793650       1.31562063       0.29283297
H        2.91734493       0.11724023      -0.03188995
H        2.28126863      -1.50793764       0.20200177
H        2.06895806      -0.69971653      -1.34805710
H       -0.44473296      -1.67764589       0.89730433
H       -2.34312561       0.19320114      -0.95100271
H       -2.42721703      -1.43744236      -0.26153201
H       -1.12721326      -1.00436076      -1.41415626
H       -1.10158661       2.57587888       0.82745902
H        1.18099102       2.03439932       0.07126089
16
Frame=1 idx=008575 GeodesicLength=0.050349359858335684 rxn_smarts="[C:1]([c:2]1[c:3]([H:11])[c:4]([C:5]([H:12])([H:13])[H:14])[c:6]([H:15])[n:7]1[H:16])([H:8])([H:9])[H:10]>>[C:1]([C+:2]1[C@@:3]([C:5]([H:12])([H:13])[H:14])([H:11])[C-:4]=[C:6]([H:15])[N:7]1[H:16])([H:8])([H:9])[H:10]"
C        2.08095893      -0.53847301      -0.26883054
C        0.79208456       0.01222236       0.23108743
C       -0.41300164      -0.62452279       0.62514302
C       -1.42461310       0.36134214       1.00342837
C       -1.77585040      -0.66452056      -0.59657890
C       -0.76864032       1.56100199       0.69776122
N        0.52000916       1.32086822       0.30713799
H        2.92939170       0.07942273       0.03287090
H        2.24964330      -1.53925616       0.12964410
H        2.09813765      -0.61774568      -1.36124366
H       -0.43572554      -1.66450479       0.92586969
H       -2.35017670       0.17382211      -0.96680327
H       -2.44156103      -1.44007944      -0.23921084
H       -1.14921326      -1.04066240      -1.40777067
H       -1.10481800       2.58195853       0.80203845
H        1.19337471       2.03912674       0.08545671
16
Frame=2 idx=008575 GeodesicLength=0.0989795153636113 rxn_smarts="[C:1]([c:2]1[c:3]([H:11])[c:4]([C:5]([H:12])([H:13])[H:14])[c:6]([H:15])[n:7]1[H:16])([H:8])([H:9])[H:10]>>[C:1]([C+:2]1[C@@:3]([C:5]([H:12])([H:13])[H:14])([H:11])[C-:4]=[C:6]([H:15])[N:7]1[H:16])([H:8])([H:9])[H:10]"
C        2.08325545      -0.53412194      -0.27304232
C        0.79663749       0.01686823       0.23129947
C       -0.40927142      -0.62009534       0.62400134
C       -1.42192282       0.36850829       0.99127222
C       -1.78566192      -0.67628896      -0.59122120
C       -0.76647807       1.56604650       0.69037954
N        0.53067592       1.32540881       0.31866206
H        2.93814074       0.03957144       0.09146040
H        2.22076550      -1.56346522       0.05893108
H        2.12835846      -0.54042405      -1.36727703
H       -0.42641250      -1.65192589       0.95221384
H       -2.35706663       0.15580250      -0.98162053
H       -2.45600443      -1.44128111      -0.21842082
H       -1.17152721      -1.07473489      -1.40154888
H       -1.10811450       2.58682671       0.77665983
H        1.20462593       2.04330491       0.09825100
16
Frame=3 idx=008575 GeodesicLength=0.14802945519068772 rxn_smarts="[C:1]([c:2]1[c:3]([H:11])[c:4]([C:5]([H:12])([H:13])[H:14])[c:6]([H:15])[n:7]1[H:16])([H:8])([H:9])[H:10]>>[C:1]([C+:2]1[C@@:3]([C:5]([H:12])([H:13])[H:14])([H:11])[C-:4]=[C:6]([H:15])[N:7]1[H:16])([H:8])([H:9])[H:10]"
C        2.08646757      -0.52941171      -0.27715803
C        0.80085886       0.02175388       0.22866928
C       -0.40532141      -0.61584298       0.62116472
C       -1.41865630       0.37534848       0.97861819
C       -1.79682292      -0.68823492      -0.58548026
C       -0.76417438       1.57093895       0.68216224
N        0.54094764       1.32998554       0.32830876
H        2.94411742      -0.00407498       0.14879553
H        2.19255527      -1.58187442      -0.01320709
H        2.16358195      -0.46431030      -1.36747108
H       -0.41613252      -1.63870780       0.97692108
H       -2.36570348       0.13703934      -0.99556054
H       -2.47145504      -1.44206323      -0.19641901
H       -1.19651605      -1.10951070      -1.39485783
H       -1.11056869       2.59134947       0.75187388
H        1.21682207       2.04761537       0.11364016
16
Frame=4 idx=008575 GeodesicLength=0.1976843214276237 rxn_smarts="[C:1]([c:2]1[c:3]([H:11])[c:4]([C:5]([H:12])([H:13])[H:14])[c:6]([H:15])[n:7]1[H:16])([H:8])([H:9])[H:10]>>[C:1]([C+:2]1[C@@:3]([C:5]([H:12])([H:13])[H:14])([H:11])[C-:4]=[C:6]([H:15])[N:7]1[H:16])([H:8])([H:9])[H:10]"
C        2.09122262      -0.52426644      -0.28072798
C        0.80460997       0.02686242       0.22155797
C       -0.40094983      -0.61195711       0.61574207
C       -1.41436587       0.38152609       0.96579941
C       -1.81008533      -0.70011076      -0.57904884
C       -0.76155301       1.57547140       0.67339133
N        0.55048399       1.33450863       0.33413736
H        2.94677869      -0.05116501       0.20641729
H        2.16592755      -1.59431478      -0.08583375
H        2.20592190      -0.38991666      -1.36110028
H       -0.40440506      -1.62511730       0.99878925
H       -2.37728273       0.11790446      -1.00752456
H       -2.48826023      -1.44231527      -0.17262135
H       -1.22559936      -1.14441828      -1.38793265
H       -1.11221111       2.59529989       0.72814557
H        1.22976780       2.05200870       0.13080915
16
Frame=5 idx=008575 GeodesicLength=0.24618833890196803 rxn_smarts="[C:1]([c:2]1[c:3]([H:11])[c:4]([C:5]([H:12])([H:13])[H:14])[c:6]([H:15])[n:7]1[H:16])([H:8])([H:9])[H:10]>>[C:1]([C+:2]1[C@@:3]([C:5]([H:12])([H:13])[H:14])([H:11])[C-:4]=[C:6]([H:15])[N:7]1[H:16])([H:8])([H:9])[H:10]"
C        2.09653640      -0.51934921      -0.28351881
C        0.80866495       0.03164816       0.21476866
C       -0.39631682      -0.60898641       0.60965431
C       -1.40954811       0.38638683       0.95411060
C       -1.82344812      -0.71058573      -0.57262533
C       -0.75834089       1.57914457       0.66787357
N        0.55936398       1.33850102       0.33876709
H        2.94651734      -0.09968475       0.25932386
H        2.14255888      -1.60117272      -0.15675675
H        2.24929408      -0.31971072      -1.34874221
H       -0.39213705      -1.61226820       1.01829130
H       -2.38909039       0.10037064      -1.01810126
H       -2.50515792      -1.44116903      -0.14988075
H       -1.25540802      -1.17694948      -1.38105563
H       -1.11476103       2.59781370       0.70261235
H        1.24127274       2.05601134       0.14527898
16
Frame=6 idx=008575 GeodesicLength=0.2947107115968199 rxn_smarts="[C:1]([c:2]1[c:3]([H:11])[c:4]([C:5]([H:12])([H:13])[H:14])[c:6]([H:15])[n:7]1[H:16])([H:8])([H:9])[H:10]>>[C:1]([C+:2]1[C@@:3]([C:5]([H:12])([H:13])[H:14])([H:11])[C-:4]=[C:6]([H:15])[N:7]1[H:16])([H:8])([H:9])[H:10]"
C        2.10259226      -0.51430743      -0.28567076
C        0.81253288       0.03676442       0.20605699
C       -0.39154716      -0.60609851       0.60211051
C       -1.40451438       0.39100046       0.94166805
C       -1.83749577      -0.72114192      -0.56624585
C       -0.75525262       1.58277779       0.66171058
N        0.56763857       1.34267053       0.34096921
H        2.94294432      -0.15099449       0.31031902
H        2.12101272      -1.60281059      -0.22764724
H        2.29613692      -0.25228388      -1.33032026
H       -0.37907172      -1.59876819       1.03621999
H       -2.40202569       0.08218341      -1.02845638
H       -2.52242732      -1.43955853      -0.12672118
H       -1.28680393      -1.20995406      -1.37367498
H       -1.11587880       2.60033267       0.68184141
H        1.25215972       2.06018831       0.15784092
16
Frame=7 idx=008575 GeodesicLength=0.3424501735686166 rxn_smarts="[C:1]([c:2]1[c:3]([H:11])[c:4]([C:5]([H:12])([H:13])[H:14])[c:6]([H:15])[n:7]1[H:16])([H:8])([H:9])[H:10]>>[C:1]([C+:2]1[C@@:3]([C:5]([H:12])([H:13])[H:14])([H:11])[C-:4]=[C:6]([H:15])[N:7]1[H:16])([H:8])([H:9])[H:10]"
C        2.10773020      -0.50932951      -0.28844364
C        0.81689513       0.04204156       0.20004991
C       -0.38680887      -0.60321238       0.59558554
C       -1.39989240       0.39567062       0.92886450
C       -1.85022357      -0.73164972      -0.56012032
C       -0.75217425       1.58649099       0.65624846
N        0.57639573       1.34684035       0.34615524
H        2.93696196      -0.20557985       0.35465340
H        2.09975551      -1.59943070      -0.30073410
H        2.34034235      -0.18689412      -1.30765870
H       -0.36608396      -1.58460660       1.05482875
H       -2.41324289       0.06342277      -1.03986433
H       -2.53889897      -1.43725608      -0.10455585
H       -1.31633335      -1.24328642      -1.36494709
H       -1.11759180       2.60251000       0.65771916
H        1.26316918       2.06426907       0.17221910
16
Frame=8 idx=008575 GeodesicLength=0.39040211618124093 rxn_smarts="[C:1]([c:2]1[c:3]([H:11])[c:4]([C:5]([H:12])([H:13])[H:14])[c:6]([H:15])[n:7]1[H:16])([H:8])([H:9])[H:10]>>[C:1]([C+:2]1[C@@:3]([C:5]([H:12])([H:13])[H:14])([H:11])[C-:4]=[C:6]([H:15])[N:7]1[H:16])([H:8])([H:9])[H:10]"
C        2.11365587      -0.50414193      -0.29096934
C        0.82113189       0.04758228       0.19191191
C       -0.38176604      -0.60056093       0.58757899
C       -1.39474129       0.39990656       0.91587360
C       -1.86389231      -0.74207106      -0.55352724
C       -0.74896505       1.59001109       0.65078684
N        0.58490838       1.35105348       0.34989927
H        2.92757410      -0.26308214       0.39676737
H        2.08071864      -1.59065812      -0.37451300
H        2.38806784      -0.12369572      -1.27905432
H       -0.35206012      -1.57004595       1.07155613
H       -2.42598672       0.04426654      -1.05016099
H       -2.55585519      -1.43434404      -0.08138913
H       -1.34799330      -1.27669709      -1.35540782
H       -1.11920978       2.60411429       0.63301308
H        1.27441306       2.06836276       0.18763464
16
Frame=9 idx=008575 GeodesicLength=0.4384900390300341 rxn_smarts="[C:1]([c:2]1[c:3]([H:11])[c:4]([C:5]([H:12])([H:13])[H:14])[c:6]([H:15])[n:7]1[H:16])([H:8])([H:9])[H:10]>>[C:1]([C+:2]1[C@@:3]([C:5]([H:12])([H:13])[H:14])([H:11])[C-:4]=[C:6]([H:15])[N:7]1[H:16])([H:8])([H:9])[H:10]"
C        2.12011133      -0.49870346      -0.29353826
C        0.82534086       0.05337698       0.18216078
C       -0.37640931      -0.59814666       0.57836757
C       -1.38909560       0.40373124       0.90281792
C       -1.87826046      -0.75235120      -0.54638653
C       -0.74556493       1.59334739       0.64562711
N        0.59337751       1.35525311       0.35300438
H        2.91467503      -0.32343582       0.43555810
H        2.06405794      -1.57633053      -0.44917944
H        2.43824515      -0.06271589      -1.24458515
H       -0.33704933      -1.55511662       1.08659964
H       -2.43990841       0.02479042      -1.05938776
H       -2.57315063      -1.43069044      -0.05725840
H       -1.38142172      -1.31016412      -1.34477718
H       -1.12114019       2.60485264       0.60552656
H        1.28619275       2.07230297       0.20545067
16
Frame=10 idx=008575 GeodesicLength=0.48629564171874584 rxn_smarts="[C:1]([c:2]1[c:3]([H:11])[c:4]([C:5]([H:12])([H:13])[H:14])[c:6]([H:15])[n:7]1[H:16])([H:8])([H:9])[H:10]>>[C:1]([C+:2]1[C@@:3]([C:5]([H:12])([H:13])[H:14])([H:11])[C-:4]=[C:6]([H:15])[N:7]1[H:16])([H:8])([H:9])[H:10]"
C        2.12632013      -0.49314792      -0.29641178
C        0.82974286       0.05949761       0.17305658
C       -0.37099456      -0.59568520       0.56910708
C       -1.38360265       0.40760366       0.88908595
C       -1.89217035      -0.76277661      -0.53929777
C       -0.74227890       1.59680986       0.64034950
N        0.60188185       1.35958585       0.35685724
H        2.89894070      -0.38640945       0.46869008
H        2.04882078      -1.55651422      -0.52442391
H        2.48785646      -0.00483913      -1.20528945
H       -0.32181339      -1.53939153       1.10140276
H       -2.45324768       0.00443332      -1.06921327
H       -2.59020090      -1.42630468      -0.03327223
H       -1.41450544      -1.34436764      -1.33269408
H       -1.12275272       2.60533703       0.57743934
H        1.29800381       2.07616904       0.22461395
16
Frame=11 idx=008575 GeodesicLength=0.5334041492067892 rxn_smarts="[C:1]([c:2]1[c:3]([H:11])[c:4]([C:5]([H:12])([H:13])[H:14])[c:6]([H:15])[n:7]1[H:16])([H:8])([H:9])[H:10]>>[C:1]([C+:2]1[C@@:3]([C:5]([H:12])([H:13])[H:14])([H:11])[C-:4]=[C:6]([H:15])[N:7]1[H:16])([H:8])([H:9])[H:10]"
C        2.13209333      -0.48769892      -0.29931330
C        0.83453883       0.06565303       0.16601565
C       -0.36564662      -0.59335633       0.56033653
C       -1.37841650       0.41138034       0.87491339
C       -1.90518549      -0.77302814      -0.53263092
C       -0.73907374       1.60024669       0.63573056
N        0.61032929       1.36386536       0.36177548
H        2.88139094      -0.45043134       0.49501353
H        2.03522608      -1.53170151      -0.59850960
H        2.53506150       0.04882827      -1.16209712
H       -0.30692574      -1.52322246       1.11621694
H       -2.46537338      -0.01635394      -1.07992961
H       -2.60680438      -1.42106534      -0.01043779
H       -1.44636924      -1.37850574      -1.31954894
H       -1.12393120       2.60543636       0.54971459
H        1.30908633       2.07995368       0.24275061
16
Frame=12 idx=008575 GeodesicLength=0.5798262250186523 rxn_smarts="[C:1]([c:2]1[c:3]([H:11])[c:4]([C:5]([H:12])([H:13])[H:14])[c:6]([H:15])[n:7]1[H:16])([H:8])([H:9])[H:10]>>[C:1]([C+:2]1[C@@:3]([C:5]([H:12])([H:13])[H:14])([H:11])[C-:4]=[C:6]([H:15])[N:7]1[H:16])([H:8])([H:9])[H:10]"
C        2.13786667      -0.48241653      -0.30177536
C        0.83965040       0.07169350       0.16026623
C       -0.36031994      -0.59135059       0.55154490
C       -1.37334478       0.41478718       0.86050191
C       -1.91772294      -0.78288723      -0.52642920
C       -0.73590384       1.60345413       0.63208170
N        0.61844449       1.36803187       0.36639847
H        2.86231647      -0.51418317       0.51555760
H        2.02421255      -1.50254463      -0.66969946
H        2.58052956       0.09758138      -1.11524326
H       -0.29235380      -1.50696127       1.13032321
H       -2.47697732      -0.03717759      -1.09100752
H       -2.62314180      -1.41501576       0.01120863
H       -1.47769579      -1.41192877      -1.30586516
H       -1.12456575       2.60513781       0.52432062
H        1.31900581       2.08377965       0.25781670
16
Frame=13 idx=008575 GeodesicLength=0.6258409998322134 rxn_smarts="[C:1]([c:2]1[c:3]([H:11])[c:4]([C:5]([H:12])([H:13])[H:14])[c:6]([H:15])[n:7]1[H:16])([H:8])([H:9])[H:10]>>[C:1]([C+:2]1[C@@:3]([C:5]([H:12])([H:13])[H:14])([H:11])[C-:4]=[C:6]([H:15])[N:7]1[H:16])([H:8])([H:9])[H:10]"
C        2.14339119      -0.47712137      -0.30411580
C        0.84504011       0.07788287       0.15593721
C       -0.35499977      -0.58935059       0.54306903
C       -1.36857649       0.41817636       0.84529955
C       -1.92942011      -0.79286682      -0.52076783
C       -0.73294478       1.60668740       0.62865178
N        0.62626480       1.37236665       0.37097707
H        2.84141370      -0.57896460       0.53034819
H        2.01448022      -1.46871845      -0.73908229
H        2.62447659       0.14182793      -1.06499365
H       -0.27816233      -1.49004535       1.14448021
H       -2.48718556      -0.05887346      -1.10338700
H       -2.63922181      -1.40807573       0.03178431
H       -1.50801430      -1.44600463      -1.29093166
H       -1.12448905       2.60515468       0.50248289
H        1.32794758       2.08792511       0.27024798
16
Frame=14 idx=008575 GeodesicLength=0.6714296452545023 rxn_smarts="[C:1]([c:2]1[c:3]([H:11])[c:4]([C:5]([H:12])([H:13])[H:14])[c:6]([H:15])[n:7]1[H:16])([H:8])([H:9])[H:10]>>[C:1]([C+:2]1[C@@:3]([C:5]([H:12])([H:13])[H:14])([H:11])[C-:4]=[C:6]([H:15])[N:7]1[H:16])([H:8])([H:9])[H:10]"
C        2.14923314      -0.47199373      -0.30579035
C        0.85064895       0.08386859       0.15212071
C       -0.34963944      -0.58775807       0.53419498
C       -1.36374497       0.42109282       0.82989063
C       -1.94102198      -0.80247956      -0.51546132
C       -0.72997136       1.60956998       0.62614020
N        0.63374665       1.37656761       0.37464514
H        2.81911788      -0.64286269       0.54042832
H        2.00787437      -1.43110813      -0.80510908
H        2.66740566       0.18131925      -1.01117818
H       -0.26422767      -1.47319432       1.15753598
H       -2.49738005      -0.08060333      -1.11577595
H       -2.65528862      -1.40031796       0.05146795
H       -1.53848305      -1.47930579      -1.27552665
H       -1.12400386       2.60494782       0.48373179
H        1.33573435       2.09225749       0.27868581
16
Frame=15 idx=008575 GeodesicLength=0.7163458465970253 rxn_smarts="[C:1]([c:2]1[c:3]([H:11])[c:4]([C:5]([H:12])([H:13])[H:14])[c:6]([H:15])[n:7]1[H:16])([H:8])([H:9])[H:10]>>[C:1]([C+:2]1[C@@:3]([C:5]([H:12])([H:13])[H:14])([H:11])[C-:4]=[C:6]([H:15])[N:7]1[H:16])([H:8])([H:9])[H:10]"
C        2.15428656      -0.46703019      -0.30771765
C        0.85680539       0.08962344       0.15187555
C       -0.34445608      -0.58625661       0.52677956
C       -1.35938724       0.42415764       0.81389598
C       -1.95126917      -0.81209759      -0.51081697
C       -0.72712552       1.61249063       0.62416076
N        0.64134517       1.38066553       0.38041141
H        2.79672671      -0.70671830       0.54311434
H        2.00145419      -1.38933703      -0.86925222
H        2.70638564       0.21655579      -0.95596595
H       -0.25149439      -1.45585524       1.17180643
H       -2.50541203      -0.10316132      -1.12976229
H       -2.67091574      -1.39165270       0.06937352
H       -1.56687511      -1.51275200      -1.25893103
H       -1.12305219       2.60468234       0.46508370
H        1.34298380       2.09668560       0.28594486
16
Frame=16 idx=008575 GeodesicLength=0.7613121616653828 rxn_smarts="[C:1]([c:2]1[c:3]([H:11])[c:4]([C:5]([H:12])([H:13])[H:14])[c:6]([H:15])[n:7]1[H:16])([H:8])([H:9])[H:10]>>[C:1]([C+:2]1[C@@:3]([C:5]([H:12])([H:13])[H:14])([H:11])[C-:4]=[C:6]([H:15])[N:7]1[H:16])([H:8])([H:9])[H:10]"
C        2.15992899      -0.46202737      -0.30898615
C        0.86298414       0.09538202       0.15076185
C       -0.33908866      -0.58503082       0.51843094
C       -1.35479574       0.42680936       0.79736131
C       -1.96178091      -0.82170563      -0.50629881
C       -0.72428211       1.61509392       0.62256200
N        0.64855185       1.38482657       0.38430526
H        2.77201269      -0.77038752       0.54215122
H        1.99838790      -1.34350766      -0.93055891
H        2.74600852       0.24741069      -0.89628999
H       -0.23865771      -1.43833690       1.18462464
H       -2.51371365      -0.12631247      -1.14371229
H       -2.68682523      -1.38208204       0.08707562
H       -1.59623583      -1.54626026      -1.24132973
H       -1.12173254       2.60465477       0.45082816
H        1.34923827       2.10147334       0.28907488
