13
Frame=0 idx=002922 GeodesicLength=0.0 rxn_smarts="[C:1]([C:2]1=[N:3][C:4]([H:10])([H:11])[C:5]([H:12])([H:13])[O:6]1)([H:7])([H:8])[H:9]>>[C:1]([C:2]([N:3]1[C:4]([H:10])([H:11])[C:5]1([H:12])[H:13])=[O:6])([H:7])([H:8])[H:9]"
C        2.14052886      -0.12594151       0.13856033
C        0.64107474      -0.31283013       0.10267389
N       -0.03429353       0.64538644      -0.52558805
C       -1.41631628       0.90346606      -0.04354414
C       -1.77097063      -0.45744158      -0.28065158
O        0.13629433      -1.31843145       0.62868468
H        2.41396721       0.22458295       1.13557848
H        2.46892314       0.60622124      -0.59403575
H        2.63266991      -1.08266103      -0.02696355
H       -1.47259855       1.22617553       0.99652526
H       -1.85561803       1.63843961      -0.71345648
H       -1.83242932      -0.79131597      -1.30806754
H       -2.05123191      -1.15565016       0.49028439
13
Frame=1 idx=002922 GeodesicLength=0.04606726420445448 rxn_smarts="[C:1]([C:2]1=[N:3][C:4]([H:10])([H:11])[C:5]([H:12])([H:13])[O:6]1)([H:7])([H:8])[H:9]>>[C:1]([C:2]([N:3]1[C:4]([H:10])([H:11])[C:5]1([H:12])[H:13])=[O:6])([H:7])([H:8])[H:9]"
C        2.13882803      -0.12032000       0.14616395
C        0.64443244      -0.32473162       0.07735334
N       -0.03904754       0.62812453      -0.54889785
C       -1.40602077       0.90618577      -0.04552826
C       -1.75872220      -0.46195678      -0.27260390
O        0.13473258      -1.33640564       0.59188393
H        2.39023897       0.22037155       1.15233517
H        2.47157003       0.62449218      -0.57167782
H        2.64457553      -1.06948527      -0.02230823
H       -1.44661270       1.23519623       0.99299402
H       -1.85511120       1.63618585      -0.71442599
H       -1.86472826      -0.79715133      -1.29606838
H       -2.05413490      -1.14050547       0.51078001
13
Frame=2 idx=002922 GeodesicLength=0.0920454549271187 rxn_smarts="[C:1]([C:2]1=[N:3][C:4]([H:10])([H:11])[C:5]([H:12])([H:13])[O:6]1)([H:7])([H:8])[H:9]>>[C:1]([C:2]([N:3]1[C:4]([H:10])([H:11])[C:5]1([H:12])[H:13])=[O:6])([H:7])([H:8])[H:9]"
C        2.13661322      -0.11521040       0.15335987
C        0.64779494      -0.33534214       0.05381448
N       -0.04382082       0.61212800      -0.57033192
C       -1.39605146       0.90881719      -0.04763247
C       -1.74577791      -0.46668657      -0.26551760
O        0.13310899      -1.35276788       0.55713896
H        2.36770049       0.21528355       1.16776322
H        2.47293107       0.64168710      -0.55014462
H        2.65490874      -1.05709690      -0.01830656
H       -1.42234441       1.24373510       0.98915902
H       -1.85482853       1.63379326      -0.71546499
H       -1.89477937      -0.80266998      -1.28350896
H       -2.05545495      -1.12567032       0.52967158
13
Frame=3 idx=002922 GeodesicLength=0.13802339480491638 rxn_smarts="[C:1]([C:2]1=[N:3][C:4]([H:10])([H:11])[C:5]([H:12])([H:13])[O:6]1)([H:7])([H:8])[H:9]>>[C:1]([C:2]([N:3]1[C:4]([H:10])([H:11])[C:5]1([H:12])[H:13])=[O:6])([H:7])([H:8])[H:9]"
C        2.13392050      -0.11046969       0.16031519
C        0.65118576      -0.34509527       0.03131657
N       -0.04861728       0.59698080      -0.59056063
C       -1.38621648       0.91137318      -0.04990890
C       -1.73240799      -0.47155663      -0.25912994
O        0.13149176      -1.36800968       0.52365220
H        2.34573415       0.20942010       1.18228823
H        2.47320741       0.65820659      -0.52895741
H        2.66414138      -1.04515622      -0.01471605
H       -1.39907626       1.25197351       0.98498671
H       -1.85466394       1.63129115      -0.71654690
H       -1.92334339      -0.80797116      -1.27015465
H       -2.05535562      -1.11098669       0.54741558
13
Frame=4 idx=002922 GeodesicLength=0.18393713776237108 rxn_smarts="[C:1]([C:2]1=[N:3][C:4]([H:10])([H:11])[C:5]([H:12])([H:13])[O:6]1)([H:7])([H:8])[H:9]>>[C:1]([C:2]([N:3]1[C:4]([H:10])([H:11])[C:5]1([H:12])[H:13])=[O:6])([H:7])([H:8])[H:9]"
C        2.13089892      -0.10614197       0.16694253
C        0.65456560      -0.35384400       0.01021124
N       -0.05340909       0.58282689      -0.60931182
C       -1.37669364       0.91387016      -0.05227563
C       -1.71864903      -0.47656324      -0.25354814
O        0.12982915      -1.38195536       0.49185136
H        2.32479779       0.20295176       1.19576154
H        2.47258248       0.67379064      -0.50847572
H        2.67224383      -1.03385163      -0.01159768
H       -1.37723446       1.25984030       0.98062554
H       -1.85470568       1.62871081      -0.71764085
H       -1.95010075      -0.81304786      -1.25630220
H       -2.05412512      -1.09658651       0.56375984
13
Frame=5 idx=002922 GeodesicLength=0.22985259640654143 rxn_smarts="[C:1]([C:2]1=[N:3][C:4]([H:10])([H:11])[C:5]([H:12])([H:13])[O:6]1)([H:7])([H:8])[H:9]>>[C:1]([C:2]([N:3]1[C:4]([H:10])([H:11])[C:5]1([H:12])[H:13])=[O:6])([H:7])([H:8])[H:9]"
C        2.12754156      -0.10212478       0.17336704
C        0.65795440      -0.36189783      -0.01004404
N       -0.05820845       0.56936232      -0.62708104
C       -1.36732888       0.91631697      -0.05478729
C       -1.70466799      -0.48165829      -0.24856628
O        0.12817308      -1.39497604       0.46112356
H        2.30440201       0.19588995       1.20849346
H        2.47114850       0.68876876      -0.48830500
H        2.67952864      -1.02292036      -0.00880024
H       -1.35626849       1.26747905       0.97601395
H       -1.85487070       1.62606530      -0.71874832
H       -1.97557663      -0.81796222      -1.24174443
H       -2.05182704      -1.08234283       0.57907862
13
Frame=6 idx=002922 GeodesicLength=0.275850428264371 rxn_smarts="[C:1]([C:2]1=[N:3][C:4]([H:10])([H:11])[C:5]([H:12])([H:13])[O:6]1)([H:7])([H:8])[H:9]>>[C:1]([C:2]([N:3]1[C:4]([H:10])([H:11])[C:5]1([H:12])[H:13])=[O:6])([H:7])([H:8])[H:9]"
C        2.12380146      -0.09833287       0.17969599
C        0.66136482      -0.36952421      -0.02994015
N       -0.06303827       0.55633463      -0.64428931
C       -1.35796892       0.91871600      -0.05749272
C       -1.69057068      -0.48680785      -0.24401347
O        0.12655793      -1.40739152       0.43091029
H        2.28405861       0.18826375       1.22072669
H        2.46893400       0.70339901      -0.46811562
H        2.68622926      -1.01213828      -0.00614688
H       -1.33567361       1.27499277       0.97108143
H       -1.85507806       1.62336701      -0.71985169
H       -2.00018041      -0.82273087      -1.22626262
H       -2.04843612      -1.06814757       0.59369807
13
Frame=7 idx=002922 GeodesicLength=0.3219984746290067 rxn_smarts="[C:1]([C:2]1=[N:3][C:4]([H:10])([H:11])[C:5]([H:12])([H:13])[O:6]1)([H:7])([H:8])[H:9]>>[C:1]([C:2]([N:3]1[C:4]([H:10])([H:11])[C:5]1([H:12])[H:13])=[O:6])([H:7])([H:8])[H:9]"
C        2.11957473      -0.09467924       0.18606203
C        0.66484395      -0.37700758      -0.05004403
N       -0.06791688       0.54346052      -0.66142754
C       -1.34841594       0.92107319      -0.06047259
C       -1.67643826      -0.49197516      -0.23968061
O        0.12505887      -1.41955712       0.40052970
H        2.26314919       0.17999828       1.23271713
H        2.46586228       0.71801088      -0.44743766
H        2.69256755      -1.00122449      -0.00346335
H       -1.31483864       1.28253026       0.96570709
H       -1.85523414       1.62061457      -0.72095884
H       -2.02439844      -0.82738906      -1.20958664
H       -2.04381427      -1.05385505       0.60805533
13
Frame=8 idx=002922 GeodesicLength=0.36823045978257013 rxn_smarts="[C:1]([C:2]1=[N:3][C:4]([H:10])([H:11])[C:5]([H:12])([H:13])[O:6]1)([H:7])([H:8])[H:9]>>[C:1]([C:2]([N:3]1[C:4]([H:10])([H:11])[C:5]1([H:12])[H:13])=[O:6])([H:7])([H:8])[H:9]"
C        2.11501502      -0.09127378       0.19232006
C        0.66832520      -0.38398242      -0.06966477
N       -0.07281921       0.53106629      -0.67795490
C       -1.33894194       0.92341712      -0.06364288
C       -1.66221505      -0.49717929      -0.23577222
O        0.12358491      -1.43108788       0.37070342
H        2.24245632       0.17112822       1.24419133
H        2.46206361       0.73222355      -0.42676320
H        2.69831765      -0.99050186      -0.00100559
H       -1.29452246       1.28999419       0.96002635
H       -1.85547367       1.61781362      -0.72210425
H       -2.04758750      -0.83195566      -1.19205937
H       -2.03820289      -1.03966211       0.62172604
13
Frame=9 idx=002922 GeodesicLength=0.41457350230842993 rxn_smarts="[C:1]([C:2]1=[N:3][C:4]([H:10])([H:11])[C:5]([H:12])([H:13])[O:6]1)([H:7])([H:8])[H:9]>>[C:1]([C:2]([N:3]1[C:4]([H:10])([H:11])[C:5]1([H:12])[H:13])=[O:6])([H:7])([H:8])[H:9]"
C        2.11004561      -0.08805392       0.19856326
C        0.67183727      -0.39067274      -0.08920670
N       -0.07776087       0.51893599      -0.69421724
C       -1.32941242       0.92574131      -0.06706385
C       -1.64795648      -0.50240226      -0.23213466
O        0.12218477      -1.44224948       0.34095094
H        2.22153577       0.16161240       1.25532885
H        2.45747635       0.74625912      -0.40577973
H        2.70364194      -0.97975613       0.00136738
H       -1.27429382       1.29747992       0.95394201
H       -1.85573995       1.61495666      -0.72329017
H       -2.07006533      -0.83639312      -1.17346828
H       -2.03149285      -1.02545775       0.63500818
13
Frame=10 idx=002922 GeodesicLength=0.4611149236206126 rxn_smarts="[C:1]([C:2]1=[N:3][C:4]([H:10])([H:11])[C:5]([H:12])([H:13])[O:6]1)([H:7])([H:8])[H:9]>>[C:1]([C:2]([N:3]1[C:4]([H:10])([H:11])[C:5]1([H:12])[H:13])=[O:6])([H:7])([H:8])[H:9]"
C        2.10457053      -0.08498697       0.20488966
C        0.67540207      -0.39720315      -0.10904902
N       -0.08277451       0.50693777      -0.71053964
C       -1.31970019       0.92807107      -0.07081519
C       -1.63368611      -0.50761572      -0.22863654
O        0.12090086      -1.45323982       0.31075531
H        2.19997156       0.15131815       1.26629002
H        2.45198553       0.76031900      -0.38411092
H        2.70865803      -0.96882327       0.00375888
H       -1.25375547       1.30511809       0.94733131
H       -1.85599307       1.61204110      -0.72454655
H       -2.09210326      -0.84077260      -1.15355089
H       -2.02347596      -1.01116366       0.64822356
13
Frame=11 idx=002922 GeodesicLength=0.5080695078220878 rxn_smarts="[C:1]([C:2]1=[N:3][C:4]([H:10])([H:11])[C:5]([H:12])([H:13])[O:6]1)([H:7])([H:8])[H:9]>>[C:1]([C:2]([N:3]1[C:4]([H:10])([H:11])[C:5]1([H:12])[H:13])=[O:6])([H:7])([H:8])[H:9]"
C        2.09840674      -0.08201145       0.21139476
C        0.67907395      -0.40380448      -0.12962734
N       -0.08787753       0.49482645      -0.72725255
C       -1.30960589       0.93041445      -0.07497764
C       -1.61933770      -0.51278829      -0.22504425
O        0.11979459      -1.46436131       0.27952337
H        2.17714928       0.14006061       1.27721672
H        2.44538383       0.77470672      -0.36129052
H        2.71343447      -0.95742035       0.00625551
H       -1.23237630       1.31307410       0.93999786
H       -1.85614032       1.60901109      -0.72590912
H       -2.11401398      -0.84508813      -1.13207294
H       -2.01389113      -0.99661942       0.66178615
13
Frame=12 idx=002922 GeodesicLength=0.5551646177188627 rxn_smarts="[C:1]([C:2]1=[N:3][C:4]([H:10])([H:11])[C:5]([H:12])([H:13])[O:6]1)([H:7])([H:8])[H:9]>>[C:1]([C:2]([N:3]1[C:4]([H:10])([H:11])[C:5]1([H:12])[H:13])=[O:6])([H:7])([H:8])[H:9]"
C        2.09179734      -0.07927852       0.21790928
C        0.68275198      -0.41002256      -0.15011878
N       -0.09303722       0.48303332      -0.74374140
C       -1.29950874       0.93280120      -0.07945774
C       -1.60493812      -0.51794343      -0.22171415
O        0.11874237      -1.47508058       0.24821924
H        2.15411931       0.12793888       1.28780325
H        2.43786650       0.78888205      -0.33798554
H        2.71777143      -0.94598697       0.00860020
H       -1.21113941       1.32117747       0.93217145
H       -1.85637654       1.60592972      -0.72739075
H       -2.13499089      -0.84937732      -1.10935890
H       -2.00305800      -0.98207327       0.67506386
13
Frame=13 idx=002922 GeodesicLength=0.6026451270218441 rxn_smarts="[C:1]([C:2]1=[N:3][C:4]([H:10])([H:11])[C:5]([H:12])([H:13])[O:6]1)([H:7])([H:8])[H:9]>>[C:1]([C:2]([N:3]1[C:4]([H:10])([H:11])[C:5]1([H:12])[H:13])=[O:6])([H:7])([H:8])[H:9]"
C        2.08455826      -0.07671698       0.22455152
C        0.68650724      -0.41609492      -0.17106340
N       -0.09829276       0.47131206      -0.76041915
C       -1.28918301       0.93520368      -0.08433348
C       -1.59041267      -0.52309636      -0.21833183
O        0.11782564      -1.48567183       0.21617490
H        2.13019991       0.11482638       1.29820209
H        2.42922912       0.80311244      -0.31372024
H        2.72176649      -0.93423006       0.01100127
H       -1.18940202       1.32957344       0.92363642
H       -1.85663075       1.60270061      -0.72900256
H       -2.15547210      -0.85351472      -1.08525452
H       -1.99069334      -0.96740374       0.68855898
13
Frame=14 idx=002922 GeodesicLength=0.6503570985037104 rxn_smarts="[C:1]([C:2]1=[N:3][C:4]([H:10])([H:11])[C:5]([H:12])([H:13])[O:6]1)([H:7])([H:8])[H:9]>>[C:1]([C:2]([N:3]1[C:4]([H:10])([H:11])[C:5]1([H:12])[H:13])=[O:6])([H:7])([H:8])[H:9]"
C        2.07683487      -0.07440913       0.23122380
C        0.69028462      -0.42180455      -0.19199280
N       -0.10360908       0.45987177      -0.77692939
C       -1.27884457       0.93767587      -0.08955531
C       -1.57578808      -0.52820915      -0.21511105
O        0.11697011      -1.49589731       0.18392329
H        2.10596936       0.10074382       1.30824615
H        2.41959254       0.81713747      -0.28882372
H        2.72533773      -0.92237220       0.01326590
H       -1.16773363       1.33820992       0.91452553
H       -1.85700379       1.59938933      -0.73076324
H       -2.17500661      -0.85763076      -1.05992275
H       -1.97700347      -0.95270509       0.70191358
13
Frame=15 idx=002922 GeodesicLength=0.698245014372113 rxn_smarts="[C:1]([C:2]1=[N:3][C:4]([H:10])([H:11])[C:5]([H:12])([H:13])[O:6]1)([H:7])([H:8])[H:9]>>[C:1]([C:2]([N:3]1[C:4]([H:10])([H:11])[C:5]1([H:12])[H:13])=[O:6])([H:7])([H:8])[H:9]"
C        2.06873107      -0.07238698       0.23786179
C        0.69405437      -0.42704285      -0.21264413
N       -0.10896834       0.44881708      -0.79306620
C       -1.26861319       0.94022134      -0.09505475
C       -1.56107342      -0.53328488      -0.21211769
O        0.11613447      -1.50560213       0.15180619
H        2.08176954       0.08582467       1.31782113
H        2.40909138       0.83075011      -0.26357547
H        2.72843990      -0.91054875       0.01535916
H       -1.14643953       1.34702215       0.90495043
H       -1.85755507       1.59600105      -0.73264303
H       -2.19336656      -0.86171434      -1.03363983
H       -1.96220461      -0.93805648       0.71494238
13
Frame=16 idx=002922 GeodesicLength=0.7462448464422493 rxn_smarts="[C:1]([C:2]1=[N:3][C:4]([H:10])([H:11])[C:5]([H:12])([H:13])[O:6]1)([H:7])([H:8])[H:9]>>[C:1]([C:2]([N:3]1[C:4]([H:10])([H:11])[C:5]1([H:12])[H:13])=[O:6])([H:7])([H:8])[H:9]"
C        2.06035308      -0.07066868       0.24441129
C        0.69778728      -0.43174171      -0.23280197
N       -0.11435380       0.43821687      -0.80866799
C       -1.25858891       0.94284409      -0.10076654
C       -1.54629913      -0.53832226      -0.20940292
O        0.11527989      -1.51468060       0.12012135
H        2.05789622       0.07021102       1.32684842
H        2.39787335       0.84379310      -0.23822166
H        2.73106335      -0.89887072       0.01724828
H       -1.12576893       1.35595367       0.89502501
H       -1.85832744       1.59254903      -0.73461099
H       -2.21038747      -0.86576671      -1.00667354
H       -1.94652748      -0.92351710       0.72749127
