16
Frame=0 idx=008339 GeodesicLength=0.0 rxn_smarts="[N:1](=[C:2]1/[C:3]([H:9])([H:10])[C:4]([H:11])([H:12])[C:5]([H:13])([H:14])[C:6]([H:15])([H:16])[O:7]1)\[H:8]>>[N:1]1([H:8])[C:2](=[C:3]([H:9])[H:10])[O:7][C:6]([H:15])([H:16])[C:5]([H:13])([H:14])[C:4]1([H:11])[H:12]"
N        1.62913266       0.22861029       1.01010705
C        1.16235519       0.02411175      -0.23717208
C        1.33547890      -1.12377100      -1.00061758
C       -0.40150249      -0.81360500       0.79284875
C       -1.37313686       0.02421495       0.04010834
C       -0.70466731       1.36601672      -0.27213080
O        0.50731937       1.04401006      -0.91475466
H        1.47742037       1.20135648       1.26380310
H        0.85443959      -1.19437404      -1.96345234
H        1.91291257      -1.94784754      -0.61048981
H       -0.27585042      -0.57195125       1.83589070
H       -0.36426256      -1.86919198       0.57937053
H       -1.66919410      -0.46122765      -0.89001363
H       -2.25366067       0.18425974       0.67041775
H       -0.54308486       1.93389402       0.65213279
H       -1.29369936       1.97549445      -0.95604815
16
Frame=1 idx=008339 GeodesicLength=0.06364614571411777 rxn_smarts="[N:1](=[C:2]1/[C:3]([H:9])([H:10])[C:4]([H:11])([H:12])[C:5]([H:13])([H:14])[C:6]([H:15])([H:16])[O:7]1)\[H:8]>>[N:1]1([H:8])[C:2](=[C:3]([H:9])[H:10])[O:7][C:6]([H:15])([H:16])[C:5]([H:13])([H:14])[C:4]1([H:11])[H:12]"
N        1.62109327       0.22314736       1.00870483
C        1.17414715       0.03830477      -0.24661331
C        1.32480440      -1.12670864      -0.99076512
C       -0.39780575      -0.81695539       0.78885944
C       -1.37569131       0.02302422       0.04129199
C       -0.71026299       1.36465045      -0.27296044
O        0.50581554       1.05250416      -0.91486663
H        1.52760247       1.20313763       1.25845207
H        0.86916006      -1.19091468      -1.96647781
H        1.91886618      -1.93949822      -0.60165338
H       -0.28973608      -0.58291146       1.83659818
H       -0.38372920      -1.87587677       0.58480207
H       -1.67600296      -0.46031480      -0.88876433
H       -2.25655199       0.18190884       0.67106971
H       -0.55138783       1.93471160       0.65038141
H       -1.30032095       1.97179093      -0.95805867
16
Frame=2 idx=008339 GeodesicLength=0.12728006667279523 rxn_smarts="[N:1](=[C:2]1/[C:3]([H:9])([H:10])[C:4]([H:11])([H:12])[C:5]([H:13])([H:14])[C:6]([H:15])([H:16])[O:7]1)\[H:8]>>[N:1]1([H:8])[C:2](=[C:3]([H:9])[H:10])[O:7][C:6]([H:15])([H:16])[C:5]([H:13])([H:14])[C:4]1([H:11])[H:12]"
N        1.61253747       0.21875199       1.00683644
C        1.18586881       0.05261357      -0.25606257
C        1.31433979      -1.12886717      -0.98071055
C       -0.39438091      -0.82040126       0.78499802
C       -1.37841925       0.02175621       0.04248416
C       -0.71608187       1.36320924      -0.27383352
O        0.50418621       1.06110717      -0.91473077
H        1.58004817       1.20260831       1.25266668
H        0.88463227      -1.18764005      -1.96867606
H        1.92457259      -1.93045947      -0.59299324
H       -0.30391637      -0.59395218       1.83709388
H       -0.40350358      -1.88213433       0.59052636
H       -1.68290541      -0.45954800      -0.88747642
H       -2.25970548       0.17951426       0.67160014
H       -0.56017475       1.93555925       0.64855163
H       -1.30709767       1.96788245      -0.96027418
16
Frame=3 idx=008339 GeodesicLength=0.1908715296316442 rxn_smarts="[N:1](=[C:2]1/[C:3]([H:9])([H:10])[C:4]([H:11])([H:12])[C:5]([H:13])([H:14])[C:6]([H:15])([H:16])[O:7]1)\[H:8]>>[N:1]1([H:8])[C:2](=[C:3]([H:9])[H:10])[O:7][C:6]([H:15])([H:16])[C:5]([H:13])([H:14])[C:4]1([H:11])[H:12]"
N        1.60351280       0.21552347       1.00451738
C        1.19751594       0.06709980      -0.26550586
C        1.30417688      -1.13016371      -0.97049977
C       -0.39119171      -0.82391325       0.78126652
C       -1.38130359       0.02040487       0.04366584
C       -0.72214931       1.36170250      -0.27479069
O        0.50244541       1.06988276      -0.91432677
H        1.63474168       1.19937701       1.24653506
H        0.90061412      -1.18457537      -1.96994625
H        1.93001351      -1.92071749      -0.58446295
H       -0.31834741      -0.60500673       1.83737512
H       -0.42345481      -1.88793013       0.59651811
H       -1.68988180      -0.45895012      -0.88616225
H       -2.26310888       0.17705452       0.67198737
H       -0.56952860       1.93647013       0.64659500
H       -1.31405424       1.96374174      -0.96276587
16
Frame=4 idx=008339 GeodesicLength=0.25438697714285985 rxn_smarts="[N:1](=[C:2]1/[C:3]([H:9])([H:10])[C:4]([H:11])([H:12])[C:5]([H:13])([H:14])[C:6]([H:15])([H:16])[O:7]1)\[H:8]>>[N:1]1([H:8])[C:2](=[C:3]([H:9])[H:10])[O:7][C:6]([H:15])([H:16])[C:5]([H:13])([H:14])[C:4]1([H:11])[H:12]"
N        1.59408748       0.21355634       1.00175196
C        1.20908922       0.08183588      -0.27493644
C        1.29439399      -1.13052272      -0.96017559
C       -0.38818752      -0.82744773       0.77767653
C       -1.38432035       0.01896531       0.04482237
C       -0.72849095       1.36013950      -0.27588487
O        0.50060846       1.07890187      -0.91364047
H        1.69160411       1.19298983       1.24020055
H        0.91684091      -1.18171784      -1.97022022
H        1.93518508      -1.91025667      -0.57602019
H       -0.33296774      -0.61598686       1.83744816
H       -0.44344333      -1.89322476       0.60277040
H       -1.69690547      -0.45855580      -0.88482327
H       -2.26674164       0.17451159       0.67221517
H       -0.57953398       1.93748658       0.64444328
H       -1.32121828       1.95932549      -0.96562737
16
Frame=5 idx=008339 GeodesicLength=0.31775445300879834 rxn_smarts="[N:1](=[C:2]1/[C:3]([H:9])([H:10])[C:4]([H:11])([H:12])[C:5]([H:13])([H:14])[C:6]([H:15])([H:16])[O:7]1)\[H:8]>>[N:1]1([H:8])[C:2](=[C:3]([H:9])[H:10])[O:7][C:6]([H:15])([H:16])[C:5]([H:13])([H:14])[C:4]1([H:11])[H:12]"
N        1.58434373       0.21294201       0.99854390
C        1.22058887       0.09688856      -0.28435006
C        1.28505562      -1.12988494      -0.94976728
C       -0.38531367      -0.83095593       0.77424178
C       -1.38744502       0.01743685       0.04594767
C       -0.73512749       1.35852830      -0.27716594
O        0.49868133       1.08821807      -0.91267070
H        1.75046172       1.18297881       1.23376763
H        0.93309822      -1.17904735      -1.96947016
H        1.94010210      -1.89906064      -0.56761717
H       -0.34770610      -0.62679821       1.83732171
H       -0.46333381      -1.89798107       0.60929005
H       -1.70395334      -0.45839208      -0.88345169
H       -2.27057708       0.17187612       0.67228224
H       -0.59026379       1.93864574       0.64203054
H       -1.32861130       1.95460574      -0.96893249
16
Frame=6 idx=008339 GeodesicLength=0.3809630676303784 rxn_smarts="[N:1](=[C:2]1/[C:3]([H:9])([H:10])[C:4]([H:11])([H:12])[C:5]([H:13])([H:14])[C:6]([H:15])([H:16])[O:7]1)\[H:8]>>[N:1]1([H:8])[C:2](=[C:3]([H:9])[H:10])[O:7][C:6]([H:15])([H:16])[C:5]([H:13])([H:14])[C:4]1([H:11])[H:12]"
N        1.57435541       0.21376545       0.99489186
C        1.23201145       0.11234009      -0.29374996
C        1.27619968      -1.12819460      -0.93930249
C       -0.38250956      -0.83437274       0.77099838
C       -1.39065454       0.01581655       0.04704003
C       -0.74209101       1.35687732      -0.27869582
O        0.49666280       1.09790141      -0.91141876
H        1.81118654       1.16879665       1.22739303
H        0.94920061      -1.17649025      -1.96771532
H        1.94477894      -1.88710712      -0.55921850
H       -0.36248940      -0.63731823       1.83702848
H       -0.48298894      -1.90215499       0.61611442
H       -1.71099296      -0.45851429      -0.88202867
H       -2.27459456       0.16913483       0.67218523
H       -0.60180024       1.93999878       0.63926920
H       -1.33627422       1.94952115      -0.97279109
16
Frame=7 idx=008339 GeodesicLength=0.4439905830915631 rxn_smarts="[N:1](=[C:2]1/[C:3]([H:9])([H:10])[C:4]([H:11])([H:12])[C:5]([H:13])([H:14])[C:6]([H:15])([H:16])[O:7]1)\[H:8]>>[N:1]1([H:8])[C:2](=[C:3]([H:9])[H:10])[O:7][C:6]([H:15])([H:16])[C:5]([H:13])([H:14])[C:4]1([H:11])[H:12]"
N        1.56419471       0.21611830       0.99079263
C        1.24334784       0.12827072      -0.30314339
C        1.26784735      -1.12540362      -0.92879722
C       -0.37971511      -0.83762550       0.76798846
C       -1.39392906       0.01410514       0.04810679
C       -0.74941388       1.35519336      -0.28053201
O        0.49453704       1.10800777      -0.90989847
H        1.87359997       1.14984813       1.22118477
H        0.96504410      -1.17395251      -1.96500423
H        1.94924256      -1.87436045      -0.55078841
H       -0.37724323      -0.64741559       1.83660757
H       -0.50227754      -1.90569959       0.62329838
H       -1.71799389      -0.45897498      -0.88052483
H       -2.27877418       0.16627971       0.67193249
H       -0.61421802       1.94159177       0.63607329
H       -1.34424867       1.94401734      -0.97729581
16
Frame=8 idx=008339 GeodesicLength=0.5067989356013031 rxn_smarts="[N:1](=[C:2]1/[C:3]([H:9])([H:10])[C:4]([H:11])([H:12])[C:5]([H:13])([H:14])[C:6]([H:15])([H:16])[O:7]1)\[H:8]>>[N:1]1([H:8])[C:2](=[C:3]([H:9])[H:10])[O:7][C:6]([H:15])([H:16])[C:5]([H:13])([H:14])[C:4]1([H:11])[H:12]"
N        1.55396832       0.22008906       0.98622624
C        1.25460029       0.14476921      -0.31255243
C        1.26000801      -1.12146681      -0.91827473
C       -0.37685090      -0.84063065       0.76526420
C       -1.39723769       0.01230814       0.04916614
C       -0.75711935       1.35348494      -0.28274183
O        0.49228902       1.11859248      -0.90814175
H        1.93734884       1.12548004       1.21530540
H        0.98053248      -1.17133300      -1.96140544
H        1.95352868      -1.86078068      -0.54232146
H       -0.39186319      -0.65694308       1.83611136
H       -0.52105737      -1.90856388       0.63091959
H       -1.72492330      -0.45983296      -0.87889398
H       -2.28307812       0.16331407       0.67155150
H       -0.62757514       1.94348060       0.63233988
H       -1.35257058       1.93803254      -0.98255269
16
Frame=9 idx=008339 GeodesicLength=0.5692791398793644 rxn_smarts="[N:1](=[C:2]1/[C:3]([H:9])([H:10])[C:4]([H:11])([H:12])[C:5]([H:13])([H:14])[C:6]([H:15])([H:16])[O:7]1)\[H:8]>>[N:1]1([H:8])[C:2](=[C:3]([H:9])[H:10])[O:7][C:6]([H:15])([H:16])[C:5]([H:13])([H:14])[C:4]1([H:11])[H:12]"
N        1.54380175       0.22575693       0.98117519
C        1.26576751       0.16189866      -0.32199641
C        1.25269274      -1.11635062      -0.90774570
C       -0.37383386      -0.84330337       0.76286927
C       -1.40054443       0.01043903       0.05024522
C       -0.76521487       1.35175592      -0.28536996
O        0.48989485       1.12967363      -0.90618981
H        2.00189897       1.09508025       1.20980465
H        0.99563772      -1.16853653      -1.95698142
H        1.95768904      -1.84632526      -0.53381392
H       -0.40623538      -0.66576064       1.83558035
H       -0.53919211      -1.91069075       0.63904932
H       -1.73174454      -0.46111943      -0.87708227
H       -2.28746219       0.16025131       0.67107798
H       -0.64190049       1.94569772       0.62798924
H       -1.36125472       1.93153315      -0.98861172
16
Frame=10 idx=008339 GeodesicLength=0.6314105817110335 rxn_smarts="[N:1](=[C:2]1/[C:3]([H:9])([H:10])[C:4]([H:11])([H:12])[C:5]([H:13])([H:14])[C:6]([H:15])([H:16])[O:7]1)\[H:8]>>[N:1]1([H:8])[C:2](=[C:3]([H:9])[H:10])[O:7][C:6]([H:15])([H:16])[C:5]([H:13])([H:14])[C:4]1([H:11])[H:12]"
N        1.53384312       0.23318883       0.97559612
C        1.27687210       0.17975640      -0.33152591
C        1.24589009      -1.11001012      -0.89725855
C       -0.37055347      -0.84554559       0.76087617
C       -1.40379862       0.00851202       0.05138950
C       -0.77370266       1.35001460      -0.28849409
O        0.48734131       1.14129918      -0.90410882
H        2.06656998       1.05795103       1.20491924
H        1.01033283      -1.16543443      -1.95185183
H        1.96174610      -1.83095994      -0.52531896
H       -0.42021563      -0.67370634       1.83509680
H       -0.55651484      -1.91202419       0.64780031
H       -1.73842335      -0.46290696      -0.87500235
H       -2.29185313       0.15711747       0.67058669
H       -0.65720825       1.94831373       0.62289304
H       -1.37032559       1.92443431      -0.99559738
16
Frame=11 idx=008339 GeodesicLength=0.6931708861180206 rxn_smarts="[N:1](=[C:2]1/[C:3]([H:9])([H:10])[C:4]([H:11])([H:12])[C:5]([H:13])([H:14])[C:6]([H:15])([H:16])[O:7]1)\[H:8]>>[N:1]1([H:8])[C:2](=[C:3]([H:9])[H:10])[O:7][C:6]([H:15])([H:16])[C:5]([H:13])([H:14])[C:4]1([H:11])[H:12]"
N        1.52423651       0.24245501       0.96944755
C        1.28793456       0.19842626      -0.34118970
C        1.23959208      -1.10239918      -0.88685344
C       -0.36689685      -0.84725583       0.75935046
C       -1.40694508       0.00654614       0.05264982
C       -0.78257528       1.34826282      -0.29217160
O        0.48460785       1.15349291      -0.90196821
H        2.13056792       1.01340546       1.20078741
H        1.02464757      -1.16189873      -1.94612330
H        1.96573165      -1.81464014      -0.51689031
H       -0.43366065      -0.68062211       1.83473217
H       -0.57285743      -1.91249974       0.65728294
H       -1.74491575      -0.46525128      -0.87256009
H       -2.29617544       0.15394027       0.67015372
H       -0.67349591       1.95137654       0.61694180
H       -1.37979575       1.91666160      -1.00358922
16
Frame=12 idx=008339 GeodesicLength=0.7545708222928621 rxn_smarts="[N:1](=[C:2]1/[C:3]([H:9])([H:10])[C:4]([H:11])([H:12])[C:5]([H:13])([H:14])[C:6]([H:15])([H:16])[O:7]1)\[H:8]>>[N:1]1([H:8])[C:2](=[C:3]([H:9])[H:10])[O:7][C:6]([H:15])([H:16])[C:5]([H:13])([H:14])[C:4]1([H:11])[H:12]"
N        1.51517992       0.25360872       0.96267905
C        1.29901629       0.21799509      -0.35105847
C        1.23379018      -1.09348035      -0.87660191
C       -0.36273082      -0.84834342       0.75836422
C       -1.40990837       0.00456005       0.05409101
C       -0.79178695       1.34650348      -0.29646194
O        0.48170687       1.16627671      -0.89986200
H        2.19278442       0.96085755       1.19762301
H        1.03857252      -1.15781756      -1.93993447
H        1.96967765      -1.79734179      -0.50864032
H       -0.44639119      -0.68636378       1.83458302
H       -0.58805677      -1.91207072       0.66762373
H       -1.75118091      -0.46821399      -0.86964996
H       -2.30032476       0.15075327       0.66989077
H       -0.69070813       1.95494025       0.61002967
H       -1.38963994       1.90813648      -1.01267540
16
Frame=13 idx=008339 GeodesicLength=0.8154698076022039 rxn_smarts="[N:1](=[C:2]1/[C:3]([H:9])([H:10])[C:4]([H:11])([H:12])[C:5]([H:13])([H:14])[C:6]([H:15])([H:16])[O:7]1)\[H:8]>>[N:1]1([H:8])[C:2](=[C:3]([H:9])[H:10])[O:7][C:6]([H:15])([H:16])[C:5]([H:13])([H:14])[C:4]1([H:11])[H:12]"
N        1.50685644       0.26666782       0.95529611
C        1.31008746       0.23843376      -0.36111379
C        1.22848402      -1.08326309      -0.86648120
C       -0.35794060      -0.84871159       0.75795391
C       -1.41260702       0.00258661       0.05574828
C       -0.80129067       1.34472564      -0.30130549
O        0.47860585       1.17958988      -0.89778523
H        2.25203686       0.89992039       1.19500835
H        1.05226706      -1.15307837      -1.93329598
H        1.97362747      -1.77906588      -0.50057271
H       -0.45827017      -0.69080253       1.83465739
H       -0.60194988      -1.91064539       0.67887734
H       -1.75707459      -0.47175423      -0.86621697
H       -2.30423879       0.14757073       0.66977677
H       -0.70879332       1.95894799       0.60217694
H       -1.39980012       1.89887826      -1.02272372
16
Frame=14 idx=008339 GeodesicLength=0.8759091997555393 rxn_smarts="[N:1](=[C:2]1/[C:3]([H:9])([H:10])[C:4]([H:11])([H:12])[C:5]([H:13])([H:14])[C:6]([H:15])([H:16])[O:7]1)\[H:8]>>[N:1]1([H:8])[C:2](=[C:3]([H:9])[H:10])[O:7][C:6]([H:15])([H:16])[C:5]([H:13])([H:14])[C:4]1([H:11])[H:12]"
N        1.49965300       0.28139300       0.94718339
C        1.32136129       0.25972533      -0.37150813
C        1.22364312      -1.07180962      -0.85671705
C       -0.35233877      -0.84836246       0.75816905
C       -1.41488630       0.00066193       0.05775399
C       -0.81086396       1.34291655      -0.30675865
O        0.47547432       1.19338322      -0.89588438
H        2.30605594       0.83107238       1.19360533
H        1.06554675      -1.14765933      -1.92649544
H        1.97753709      -1.75999210      -0.49304081
H       -0.46900996      -0.69393537       1.83507556
H       -0.61439374      -1.90827018       0.69112417
H       -1.76262046      -0.47589972      -0.86206992
H       -2.30765646       0.14452351       0.67010607
H       -0.72743176       1.96345223       0.59328695
H       -1.41007009       1.88880063      -1.03383013
16
Frame=15 idx=008339 GeodesicLength=0.9358998872498058 rxn_smarts="[N:1](=[C:2]1/[C:3]([H:9])([H:10])[C:4]([H:11])([H:12])[C:5]([H:13])([H:14])[C:6]([H:15])([H:16])[O:7]1)\[H:8]>>[N:1]1([H:8])[C:2](=[C:3]([H:9])[H:10])[O:7][C:6]([H:15])([H:16])[C:5]([H:13])([H:14])[C:4]1([H:11])[H:12]"
N        1.49385264       0.29746932       0.93833497
C        1.33292241       0.28170278      -0.38226168
C        1.21922157      -1.05925505      -0.84741148
C       -0.34582678      -0.84732484       0.75901353
C       -1.41662537      -0.00117957       0.06018058
C       -0.82030288       1.34104300      -0.31271997
O        0.47244037       1.20753135      -0.89414014
H        2.35303228       0.75526973       1.19325924
H        1.07846337      -1.14154213      -1.91968330
H        1.98135137      -1.74033994      -0.48623541
H       -0.47847652      -0.69581339       1.83585670
H       -0.62532779      -1.90497049       0.70434142
H       -1.76773354      -0.48056897      -0.85712514
H       -2.31043109       0.14168769       0.67097181
H       -0.74634896       1.96836280       0.58345109
H       -1.42021108       1.87792772      -1.04583222
16
Frame=16 idx=008339 GeodesicLength=0.995601587334573 rxn_smarts="[N:1](=[C:2]1/[C:3]([H:9])([H:10])[C:4]([H:11])([H:12])[C:5]([H:13])([H:14])[C:6]([H:15])([H:16])[O:7]1)\[H:8]>>[N:1]1([H:8])[C:2](=[C:3]([H:9])[H:10])[O:7][C:6]([H:15])([H:16])[C:5]([H:13])([H:14])[C:4]1([H:11])[H:12]"
N        1.48969521       0.31446961       0.92875766
C        1.34489076       0.30414976      -0.39339364
C        1.21516590      -1.04578798      -0.83868581
C       -0.33834795      -0.84570669       0.76045099
C       -1.41771376      -0.00290883       0.06309157
C       -0.82936631       1.33906708      -0.31907629
O        0.46968401       1.22189483      -0.89251189
H        2.39132097       0.67407415       1.19394312
H        1.09094060      -1.13477261      -1.91302266
H        1.98501147      -1.72039326      -0.48038593
H       -0.48656693      -0.69660264       1.83699844
H       -0.63477022      -1.90084567       0.71843772
H       -1.77238232      -0.48565763      -0.85131619
H       -2.31240702       0.13915268       0.67248898
H       -0.76521707       1.97357513       0.57279129
H       -1.42993736       1.86629207      -1.05856739
