11
Frame=0 idx=003344 GeodesicLength=0.0 rxn_smarts="[C:1]([N:2]([C:3](=[O:4])[N:5]([H:10])[H:11])[H:9])([H:6])([H:7])[H:8]>>[C:1](/[N:2]=[C:3](/[O:4][H:9])[N:5]([H:10])[H:11])([H:6])([H:7])[H:8]"
C       -1.46510128       0.38967650      -0.21998144
N       -0.52892553      -0.65669134       0.08695929
C        0.76831417      -0.54380099       0.21302499
O        1.23215739      -1.70552705       0.52085144
N        1.54230655       0.54870542       0.08810651
H       -1.41435249       1.21476698       0.50104023
H       -1.31652845       0.80009163      -1.22683842
H       -2.47494967      -0.01561120      -0.18195488
H       -0.04499364      -1.85372768       0.41029348
H        1.16475187       1.39226510      -0.29925254
H        2.53732105       0.42985260       0.10775130
11
Frame=1 idx=003344 GeodesicLength=0.048690522473015745 rxn_smarts="[C:1]([N:2]([C:3](=[O:4])[N:5]([H:10])[H:11])[H:9])([H:6])([H:7])[H:8]>>[C:1](/[N:2]=[C:3](/[O:4][H:9])[N:5]([H:10])[H:11])([H:6])([H:7])[H:8]"
C       -1.46882661       0.38625510      -0.22336660
N       -0.53354438      -0.64202871       0.13860747
C        0.77079440      -0.54550207       0.17477762
O        1.24249186      -1.71765876       0.42437157
N        1.54403744       0.55481226       0.12248376
H       -1.39579288       1.25522142       0.44152891
H       -1.33873345       0.73213717      -1.25659398
H       -2.48073990      -0.00674960      -0.13836393
H       -0.05424379      -1.85272383       0.43351670
H        1.17575188       1.40318547      -0.26370356
H        2.53880544       0.43305155       0.14674204
11
Frame=2 idx=003344 GeodesicLength=0.09801835447440368 rxn_smarts="[C:1]([N:2]([C:3](=[O:4])[N:5]([H:10])[H:11])[H:9])([H:6])([H:7])[H:8]>>[C:1](/[N:2]=[C:3](/[O:4][H:9])[N:5]([H:10])[H:11])([H:6])([H:7])[H:8]"
C       -1.47252237       0.38091841      -0.22822316
N       -0.53450104      -0.62411296       0.18653990
C        0.77117256      -0.54181014       0.14153765
O        1.24478673      -1.72383560       0.33234686
N        1.54943860       0.55776243       0.15521888
H       -1.38326723       1.28914850       0.37922730
H       -1.36079090       0.66376550      -1.28245958
H       -2.48452589      -0.00029932      -0.10046850
H       -0.06082324      -1.84694746       0.45987999
H        1.18753474       1.41842170      -0.20967177
H        2.54349804       0.42698895       0.16607243
11
Frame=3 idx=003344 GeodesicLength=0.14762274278161325 rxn_smarts="[C:1]([N:2]([C:3](=[O:4])[N:5]([H:10])[H:11])[H:9])([H:6])([H:7])[H:8]>>[C:1](/[N:2]=[C:3](/[O:4][H:9])[N:5]([H:10])[H:11])([H:6])([H:7])[H:8]"
C       -1.47626937       0.37450316      -0.23381978
N       -0.53285892      -0.60518756       0.22635248
C        0.77018903      -0.53439977       0.11244940
O        1.24084731      -1.72446804       0.25083489
N        1.55736208       0.55815820       0.18558627
H       -1.37371200       1.31591153       0.31780048
H       -1.38335451       0.59841366      -1.30387182
H       -2.48693431       0.00508654      -0.06660345
H       -0.06518439      -1.83855692       0.48522650
H        1.19985435       1.43388658      -0.14666315
H        2.55006073       0.41665260       0.17270817
11
Frame=4 idx=003344 GeodesicLength=0.19777959682074367 rxn_smarts="[C:1]([N:2]([C:3](=[O:4])[N:5]([H:10])[H:11])[H:9])([H:6])([H:7])[H:8]>>[C:1](/[N:2]=[C:3](/[O:4][H:9])[N:5]([H:10])[H:11])([H:6])([H:7])[H:8]"
C       -1.48017171       0.36760338      -0.23940194
N       -0.52971230      -0.58622561       0.25924963
C        0.76849557      -0.52447850       0.08650433
O        1.23356118      -1.72089298       0.17886648
N        1.56663141       0.55699077       0.21400984
H       -1.36494160       1.33764059       0.25668100
H       -1.40750073       0.53482124      -1.32126961
H       -2.48857875       0.01143330      -0.03358519
H       -0.06811643      -1.82974694       0.50579773
H        1.21298916       1.44750593      -0.08166180
H        2.55734419       0.40534882       0.17480954
11
Frame=5 idx=003344 GeodesicLength=0.24772557523564243 rxn_smarts="[C:1]([N:2]([C:3](=[O:4])[N:5]([H:10])[H:11])[H:9])([H:6])([H:7])[H:8]>>[C:1](/[N:2]=[C:3](/[O:4][H:9])[N:5]([H:10])[H:11])([H:6])([H:7])[H:8]"
C       -1.48385100       0.36053911      -0.24513073
N       -0.52569716      -0.56765140       0.28649526
C        0.76631836      -0.51279250       0.06314557
O        1.22413407      -1.71407487       0.11446408
N        1.57670843       0.55433205       0.24047917
H       -1.35710047       1.35474965       0.19651267
H       -1.43194571       0.47374449      -1.33513160
H       -2.48918022       0.01891790      -0.00257537
H       -0.06998919      -1.82047614       0.52414131
H        1.22600537       1.45862300      -0.01444032
H        2.56459753       0.39408871       0.17203997
11
Frame=6 idx=003344 GeodesicLength=0.29766924963167596 rxn_smarts="[C:1]([N:2]([C:3](=[O:4])[N:5]([H:10])[H:11])[H:9])([H:6])([H:7])[H:8]>>[C:1](/[N:2]=[C:3](/[O:4][H:9])[N:5]([H:10])[H:11])([H:6])([H:7])[H:8]"
C       -1.48764324       0.35330421      -0.25069230
N       -0.52111188      -0.54952147       0.30922399
C        0.76392245      -0.49960620       0.04135375
O        1.21373598      -1.70455744       0.05504487
N        1.58688842       0.55081683       0.26593646
H       -1.34824438       1.36837839       0.13523182
H       -1.45814720       0.41257070      -1.34576217
H       -2.48904934       0.02907121       0.02916825
H       -0.07113835      -1.81139251       0.53859553
H        1.23940251       1.46716693       0.05266418
H        2.57138502       0.38376935       0.16923563
11
Frame=7 idx=003344 GeodesicLength=0.3476668684143274 rxn_smarts="[C:1]([N:2]([C:3](=[O:4])[N:5]([H:10])[H:11])[H:9])([H:6])([H:7])[H:8]>>[C:1](/[N:2]=[C:3](/[O:4][H:9])[N:5]([H:10])[H:11])([H:6])([H:7])[H:8]"
C       -1.49143549       0.34611635      -0.25618372
N       -0.51628559      -0.53201327       0.32830546
C        0.76147120      -0.48531039       0.02108135
O        1.20294448      -1.69295603       0.00005401
N        1.59717609       0.54651992       0.29031419
H       -1.33916916       1.37866943       0.07352800
H       -1.48519345       0.35220328      -1.35321134
H       -2.48820141       0.04168219       0.06034834
H       -0.07183106      -1.80267587       0.55054085
H        1.25272354       1.47309563       0.11989862
H        2.57780085       0.37466875       0.16532425
11
Frame=8 idx=003344 GeodesicLength=0.39718406580729687 rxn_smarts="[C:1]([N:2]([C:3](=[O:4])[N:5]([H:10])[H:11])[H:9])([H:6])([H:7])[H:8]>>[C:1](/[N:2]=[C:3](/[O:4][H:9])[N:5]([H:10])[H:11])([H:6])([H:7])[H:8]"
C       -1.49501353       0.33920433      -0.26130400
N       -0.51137264      -0.51508513       0.34467254
C        0.75900354      -0.47029033       0.00249420
O        1.19214517      -1.67969446      -0.05019125
N        1.60732370       0.54162567       0.31302528
H       -1.33090626       1.38555913       0.01353817
H       -1.51134599       0.29448575      -1.35732810
H       -2.48656819       0.05558437       0.08925157
H       -0.07263417      -1.79443904       0.56042732
H        1.26572291       1.47618319       0.18498726
H        2.58364546       0.36686652       0.16042701
11
Frame=9 idx=003344 GeodesicLength=0.44677348859341964 rxn_smarts="[C:1]([N:2]([C:3](=[O:4])[N:5]([H:10])[H:11])[H:9])([H:6])([H:7])[H:8]>>[C:1](/[N:2]=[C:3](/[O:4][H:9])[N:5]([H:10])[H:11])([H:6])([H:7])[H:8]"
C       -1.49864998       0.33221436      -0.26623495
N       -0.50632385      -0.49867651       0.35866197
C        0.75654529      -0.45416062      -0.01531073
O        1.18143117      -1.66444546      -0.09890820
N        1.61707537       0.53628160       0.33548815
H       -1.32151232       1.38949078      -0.04859638
H       -1.53910896       0.23569228      -1.35829343
H       -2.48401131       0.07304177       0.11902006
H       -0.07303847      -1.78662935       0.56758928
H        1.27871416       1.47694031       0.24952517
H        2.58887891       0.36025085       0.15705907
11
Frame=10 idx=003344 GeodesicLength=0.49612927095911946 rxn_smarts="[C:1]([N:2]([C:3](=[O:4])[N:5]([H:10])[H:11])[H:9])([H:6])([H:7])[H:8]>>[C:1](/[N:2]=[C:3](/[O:4][H:9])[N:5]([H:10])[H:11])([H:6])([H:7])[H:8]"
C       -1.50207908       0.32549036      -0.27106406
N       -0.50137171      -0.48270843       0.37088544
C        0.75411494      -0.43755930      -0.03185901
O        1.17079540      -1.64809843      -0.14419756
N        1.62675896       0.53036175       0.35648024
H       -1.31310331       1.39034284      -0.10903595
H       -1.56556923       0.17949010      -1.35651196
H       -2.48082625       0.09156626       0.14594239
H       -0.07357800      -1.77903294       0.57430177
H        1.29126922       1.47509891       0.31334230
H        2.59358908       0.35504887       0.15171640
11
Frame=11 idx=003344 GeodesicLength=0.5453956444142427 rxn_smarts="[C:1]([N:2]([C:3](=[O:4])[N:5]([H:10])[H:11])[H:9])([H:6])([H:7])[H:8]>>[C:1](/[N:2]=[C:3](/[O:4][H:9])[N:5]([H:10])[H:11])([H:6])([H:7])[H:8]"
C       -1.50549764       0.31892037      -0.27549627
N       -0.49644409      -0.46714528       0.38163032
C        0.75173424      -0.42027270      -0.04757991
O        1.16041480      -1.63039616      -0.18762656
N        1.63607538       0.52418604       0.37651191
H       -1.30530302       1.38835850      -0.16851637
H       -1.59159876       0.12485364      -1.35182763
H       -2.47705443       0.11153389       0.17134582
H       -0.07413545      -1.77181315       0.57960553
H        1.30385570       1.47119431       0.37410413
H        2.59795326       0.35058056       0.14784901
11
Frame=12 idx=003344 GeodesicLength=0.5946397979002878 rxn_smarts="[C:1]([N:2]([C:3](=[O:4])[N:5]([H:10])[H:11])[H:9])([H:6])([H:7])[H:8]>>[C:1](/[N:2]=[C:3](/[O:4][H:9])[N:5]([H:10])[H:11])([H:6])([H:7])[H:8]"
C       -1.50885576       0.31249776      -0.27969342
N       -0.49156863      -0.45185014       0.39118483
C        0.74939289      -0.40236892      -0.06252817
O        1.15017136      -1.61150439      -0.22933168
N        1.64515940       0.51765954       0.39558431
H       -1.29831416       1.38369980      -0.22696922
H       -1.61689095       0.07185525      -1.34458842
H       -2.47274280       0.13264408       0.19485952
H       -0.07473054      -1.76477007       0.58418391
H        1.31638418       1.46527005       0.43298159
H        2.60199500       0.34686702       0.14431674
11
Frame=13 idx=003344 GeodesicLength=0.6440128643803378 rxn_smarts="[C:1]([N:2]([C:3](=[O:4])[N:5]([H:10])[H:11])[H:9])([H:6])([H:7])[H:8]>>[C:1](/[N:2]=[C:3](/[O:4][H:9])[N:5]([H:10])[H:11])([H:6])([H:7])[H:8]"
C       -1.51217791       0.30617419      -0.28371035
N       -0.48673129      -0.43673841       0.39971597
C        0.74710926      -0.38375643      -0.07683164
O        1.14005272      -1.59133424      -0.26991520
N        1.65404522       0.51077822       0.41396929
H       -1.29195529       1.37645030      -0.28515196
H       -1.64185953       0.01976678      -1.33479766
H       -2.46783759       0.15526247       0.21692225
H       -0.07532425      -1.75787091       0.58792950
H        1.32888899       1.45741642       0.49060776
H        2.60578965       0.34385160       0.14126205
11
Frame=14 idx=003344 GeodesicLength=0.693292228024235 rxn_smarts="[C:1]([N:2]([C:3](=[O:4])[N:5]([H:10])[H:11])[H:9])([H:6])([H:7])[H:8]>>[C:1](/[N:2]=[C:3](/[O:4][H:9])[N:5]([H:10])[H:11])([H:6])([H:7])[H:8]"
C       -1.51545752       0.30003274      -0.28738598
N       -0.48193968      -0.42156569       0.40763575
C        0.74482633      -0.36460323      -0.09039577
O        1.12984885      -1.57018919      -0.30887082
N        1.66280226       0.50361888       0.43118012
H       -1.28738027       1.36703369      -0.34061997
H       -1.66490713      -0.02955757      -1.32308140
H       -2.46285360       0.17723822       0.23608701
H       -0.07614790      -1.75086917       0.59168820
H        1.34170753       1.44803808       0.54497779
H        2.60950113       0.34082324       0.13878506
11
Frame=15 idx=003344 GeodesicLength=0.7427888696519419 rxn_smarts="[C:1]([N:2]([C:3](=[O:4])[N:5]([H:10])[H:11])[H:9])([H:6])([H:7])[H:8]>>[C:1](/[N:2]=[C:3](/[O:4][H:9])[N:5]([H:10])[H:11])([H:6])([H:7])[H:8]"
C       -1.51873550       0.29393571      -0.29094849
N       -0.47719300      -0.40635684       0.41485276
C        0.74258433      -0.34469847      -0.10341218
O        1.11961027      -1.54779044      -0.34708373
N        1.67147107       0.49606919       0.44778436
H       -1.28364776       1.35530139      -0.39567797
H       -1.68736565      -0.07801912      -1.30921461
H       -2.45750221       0.20021570       0.25366288
H       -0.07698312      -1.74379863       0.59504195
H        1.35468313       1.43690534       0.59848993
H        2.61307844       0.33823617       0.13650509
11
Frame=16 idx=003344 GeodesicLength=0.7923609708506245 rxn_smarts="[C:1]([N:2]([C:3](=[O:4])[N:5]([H:10])[H:11])[H:9])([H:6])([H:7])[H:8]>>[C:1](/[N:2]=[C:3](/[O:4][H:9])[N:5]([H:10])[H:11])([H:6])([H:7])[H:8]"
C       -1.52196501       0.28791682      -0.29440447
N       -0.47252915      -0.39104976       0.42153768
C        0.74035515      -0.32419685      -0.11580686
O        1.10928105      -1.52437517      -0.38416633
N        1.68007546       0.48814130       0.46353424
H       -1.28108176       1.34154301      -0.44925636
H       -1.70851844      -0.12477942      -1.29368340
H       -2.45203768       0.22326953       0.26903155
H       -0.07795760      -1.73657508       0.59850657
H        1.36787857       1.42408617       0.65070419
H        2.61649942       0.33601945       0.13400318
