18
Frame=0 idx=000853 GeodesicLength=0.0 rxn_smarts="[C:1]([C:2]([C@@:3]1([H:12])[C:4]([H:13])([H:14])[C@:5]1([C:6]([H:16])([H:17])[H:18])[H:15])([H:10])[H:11])([H:7])([H:8])[H:9]>>[C:1]([C:2]([C:3]([C:4]([C:5][C:6]([H:16])([H:17])[H:18])([H:13])[H:14])([H:12])[H:15])([H:10])[H:11])([H:7])([H:8])[H:9]"
C        2.00705612       0.87211999      -0.75332333
C        1.24315869      -0.10857311       0.12640744
C        0.04548875      -0.71333588      -0.57325265
C       -0.98083360      -1.47670486       0.25574405
C       -1.77525846      -0.32093600      -0.21624148
C       -1.84554271       0.79353934       0.79474680
H        2.35082577       0.39416220      -1.67367182
H        1.37547322       1.71802709      -1.03510255
H        2.88352456       1.26738437      -0.23789182
H        0.92019210       0.38675687       1.04487255
H        1.90216998      -0.92348959       0.44057215
H        0.28512565      -1.24212047      -1.49489580
H       -0.71661985      -1.51536314       1.31575734
H       -1.24515752      -2.45630782      -0.13173042
H       -0.64559747       0.11360231      -1.06539455
H       -2.81845860       0.63578658       1.27305817
H       -1.89049037       1.78057275       0.33263882
H       -1.09505618       0.79487944       1.59770704
18
Frame=1 idx=000853 GeodesicLength=0.05998607131968426 rxn_smarts="[C:1]([C:2]([C@@:3]1([H:12])[C:4]([H:13])([H:14])[C@:5]1([C:6]([H:16])([H:17])[H:18])[H:15])([H:10])[H:11])([H:7])([H:8])[H:9]>>[C:1]([C:2]([C:3]([C:4]([C:5][C:6]([H:16])([H:17])[H:18])([H:13])[H:14])([H:12])[H:15])([H:10])[H:11])([H:7])([H:8])[H:9]"
C        2.01707897       0.86770585      -0.75391245
C        1.25118599      -0.11343344       0.12360892
C        0.04499364      -0.70549940      -0.57267887
C       -0.97433811      -1.47194764       0.26189843
C       -1.77281247      -0.32032837      -0.21238451
C       -1.86283013       0.79389192       0.79497755
H        2.35044451       0.39389774      -1.68021028
H        1.39046775       1.72090285      -1.02460081
H        2.90026931       1.25199324      -0.24157229
H        0.93737934       0.37874350       1.04708896
H        1.90698079      -0.93436807       0.42891112
H        0.28088596      -1.23540698      -1.49472768
H       -0.71315016      -1.50595985       1.32273032
H       -1.23182392      -2.45401397      -0.12378330
H       -0.65730661       0.12513103      -1.07693299
H       -2.83422776       0.62260567       1.27224020
H       -1.92129172       1.77994306       0.33219184
H       -1.11190538       0.80614287       1.59715583
18
Frame=2 idx=000853 GeodesicLength=0.11995099487524051 rxn_smarts="[C:1]([C:2]([C@@:3]1([H:12])[C:4]([H:13])([H:14])[C@:5]1([C:6]([H:16])([H:17])[H:18])[H:15])([H:10])[H:11])([H:7])([H:8])[H:9]>>[C:1]([C:2]([C:3]([C:4]([C:5][C:6]([H:16])([H:17])[H:18])([H:13])[H:14])([H:12])[H:15])([H:10])[H:11])([H:7])([H:8])[H:9]"
C        2.02718096       0.86324740      -0.75450852
C        1.25945400      -0.11847608       0.12078312
C        0.04464399      -0.69752964      -0.57189045
C       -0.96778413      -1.46690934       0.26820724
C       -1.77020373      -0.31946008      -0.20854488
C       -1.88040290       0.79417027       0.79511664
H        2.34992917       0.39390959      -1.68681629
H        1.40562087       1.72365682      -1.01377453
H        2.91710345       1.23640735      -0.24551475
H        0.95517845       0.37022466       1.04943635
H        1.91192966      -0.94549963       0.41682379
H        0.27660871      -1.22852261      -1.49440336
H       -0.70968353      -1.49621040       1.32984680
H       -1.21842380      -2.45140968      -0.11562351
H       -0.66923818       0.13669976      -1.08850560
H       -2.85012656       0.60916199       1.27119117
H       -1.95251090       1.77902016       0.33158973
H       -1.12927551       0.81751948       1.59658703
18
Frame=3 idx=000853 GeodesicLength=0.17990434143201756 rxn_smarts="[C:1]([C:2]([C@@:3]1([H:12])[C:4]([H:13])([H:14])[C@:5]1([C:6]([H:16])([H:17])[H:18])[H:15])([H:10])[H:11])([H:7])([H:8])[H:9]>>[C:1]([C:2]([C:3]([C:4]([C:5][C:6]([H:16])([H:17])[H:18])([H:13])[H:14])([H:12])[H:15])([H:10])[H:11])([H:7])([H:8])[H:9]"
C        2.03737407       0.85874008      -0.75511196
C        1.26796788      -0.12370590       0.11792380
C        0.04444419      -0.68941425      -0.57088223
C       -0.96116843      -1.46157654       0.27467882
C       -1.76743131      -0.31832017      -0.20471491
C       -1.89827369       0.79436728       0.79516216
H        2.34928690       0.39420010      -1.69348324
H        1.42095541       1.72628280      -1.00261865
H        2.93403719       1.22061715      -0.24972664
H        0.97360811       0.36118014       1.05190422
H        1.91700581      -0.95688892       0.40429281
H        0.27228960      -1.22145331      -1.49391914
H       -0.70621168      -1.48609525       1.33711248
H       -1.20495398      -2.44848111      -0.10723762
H       -0.68140866       0.14831165      -1.10011589
H       -2.86615540       0.59543579       1.26990675
H       -1.98417396       1.77778693       0.33082945
H       -1.14719206       0.82901353       1.59599978
18
Frame=4 idx=000853 GeodesicLength=0.2398553108214011 rxn_smarts="[C:1]([C:2]([C@@:3]1([H:12])[C:4]([H:13])([H:14])[C@:5]1([C:6]([H:16])([H:17])[H:18])[H:15])([H:10])[H:11])([H:7])([H:8])[H:9]>>[C:1]([C:2]([C:3]([C:4]([C:5][C:6]([H:16])([H:17])[H:18])([H:13])[H:14])([H:12])[H:15])([H:10])[H:11])([H:7])([H:8])[H:9]"
C        2.04767094       0.85417950      -0.75572283
C        1.27673257      -0.12912700       0.11502451
C        0.04439948      -0.68114026      -0.56964821
C       -0.95448664      -1.45593411       0.28132309
C       -1.76449278      -0.31689677      -0.20088675
C       -1.91645707       0.79447589       0.79511122
H        2.34852175       0.39477443      -1.70020620
H        1.43649736       1.72877434      -0.99112462
H        2.95108300       1.20460965      -0.25421653
H        0.99268787       0.35158710       1.05448033
H        1.92219823      -0.96854048       0.39129774
H        0.26792493      -1.21418548      -1.49326886
H       -0.70272560      -1.47559237       1.34453461
H       -1.19141209      -2.44521356      -0.09861150
H       -0.69383495       0.15996928      -1.11176689
H       -2.88231638       0.58140562       1.26837997
H       -2.01630909       1.77622557       0.32990776
H       -1.16568151       0.84062865       1.59539315
18
Frame=5 idx=000853 GeodesicLength=0.2998075182742456 rxn_smarts="[C:1]([C:2]([C@@:3]1([H:12])[C:4]([H:13])([H:14])[C@:5]1([C:6]([H:16])([H:17])[H:18])[H:15])([H:10])[H:11])([H:7])([H:8])[H:9]>>[C:1]([C:2]([C:3]([C:4]([C:5][C:6]([H:16])([H:17])[H:18])([H:13])[H:14])([H:12])[H:15])([H:10])[H:11])([H:7])([H:8])[H:9]"
C        2.05808270       0.84956185      -0.75634098
C        1.28575075      -0.13474279       0.11207862
C        0.04451466      -0.67269415      -0.56818259
C       -0.94773568      -1.44996729       0.28814937
C       -1.76138744      -0.31517699      -0.19705185
C       -1.93496451       0.79448777       0.79496131
H        2.34764200       0.39563609      -1.70697556
H        1.45227149       1.73112452      -0.97928929
H        2.96824803       1.18837650      -0.25899158
H        1.01243563       0.34142167       1.05715106
H        1.92749446      -0.98045787       0.37781930
H        0.26351113      -1.20670415      -1.49244788
H       -0.69921645      -1.46467973       1.35211992
H       -1.17779733      -2.44159330      -0.08973077
H       -0.70653443       0.17167406      -1.12346273
H       -2.89860626       0.56705434       1.26660375
H       -2.04893590       1.77431255       0.32882300
H       -1.18477285       0.85236692       1.59476690
18
Frame=6 idx=000853 GeodesicLength=0.3597673640327887 rxn_smarts="[C:1]([C:2]([C@@:3]1([H:12])[C:4]([H:13])([H:14])[C@:5]1([C:6]([H:16])([H:17])[H:18])[H:15])([H:10])[H:11])([H:7])([H:8])[H:9]>>[C:1]([C:2]([C:3]([C:4]([C:5][C:6]([H:16])([H:17])[H:18])([H:13])[H:14])([H:12])[H:15])([H:10])[H:11])([H:7])([H:8])[H:9]"
C        2.06862282       0.84488256      -0.75696458
C        1.29502832      -0.14055968       0.10907868
C        0.04479534      -0.66406125      -0.56647917
C       -0.94090996      -1.44365830       0.29516869
C       -1.75811099      -0.31314687      -0.19320121
C       -1.95381103       0.79439452       0.79470902
H        2.34664785       0.39679485      -1.71378736
H        1.46830554       1.73332801      -0.96709646
H        2.98554842       1.17189813      -0.26406275
H        1.03287050       0.33065793       1.05990268
H        1.93287973      -0.99264621       0.36383466
H        0.25904446      -1.19899515      -1.49144860
H       -0.69567374      -1.45333152       1.35987653
H       -1.16410539      -2.43760247      -0.08057941
H       -0.71952622       0.18342634      -1.13520655
H       -2.91502580       0.55235709       1.26457204
H       -2.08208731       1.77202889       0.32756370
H       -1.20449253       0.86423313       1.59412009
18
Frame=7 idx=000853 GeodesicLength=0.4197368646047084 rxn_smarts="[C:1]([C:2]([C@@:3]1([H:12])[C:4]([H:13])([H:14])[C@:5]1([C:6]([H:16])([H:17])[H:18])[H:15])([H:10])[H:11])([H:7])([H:8])[H:9]>>[C:1]([C:2]([C:3]([C:4]([C:5][C:6]([H:16])([H:17])[H:18])([H:13])[H:14])([H:12])[H:15])([H:10])[H:11])([H:7])([H:8])[H:9]"
C        2.07930391       0.84013695      -0.75759337
C        1.30456911      -0.14658274       0.10601655
C        0.04524763      -0.65522638      -0.56453134
C       -0.93400526      -1.43698942       0.30239211
C       -1.75466076      -0.31079029      -0.18932441
C       -1.97300819       0.79418652       0.79435162
H        2.34554560       0.39825924      -1.72063248
H        1.48462682       1.73537889      -0.95453352
H        3.00299368       1.15516160      -0.26944028
H        1.05401020       0.31926680       1.06271721
H        1.93833728      -1.00510850       0.34932102
H        0.25452158      -1.19104301      -1.49026378
H       -0.69208653      -1.44152159       1.36781229
H       -1.15033504      -2.43322448      -0.07113998
H       -0.73282975       0.19522445      -1.14700258
H       -2.93157162       0.53729576       1.26227797
H       -2.11578465       1.76934819       0.32612246
H       -1.22487401       0.87622802       1.59345050
18
Frame=8 idx=000853 GeodesicLength=0.4797223699197417 rxn_smarts="[C:1]([C:2]([C@@:3]1([H:12])[C:4]([H:13])([H:14])[C@:5]1([C:6]([H:16])([H:17])[H:18])[H:15])([H:10])[H:11])([H:7])([H:8])[H:9]>>[C:1]([C:2]([C:3]([C:4]([C:5][C:6]([H:16])([H:17])[H:18])([H:13])[H:14])([H:12])[H:15])([H:10])[H:11])([H:7])([H:8])[H:9]"
C        2.09013908       0.83532026      -0.75822610
C        1.31437721      -0.15281754       0.10288338
C        0.04587769      -0.64617369      -0.56233187
C       -0.92701632      -1.42994072       0.30983189
C       -1.75103192      -0.30809077      -0.18541130
C       -1.99257076       0.79385350       0.79388632
H        2.34433621       0.40004119      -1.72750502
H        1.50126740       1.73727015      -0.94158592
H        3.02059899       1.13814657      -0.27513387
H        1.07587140       0.30721968       1.06557583
H        1.94385016      -1.01784744       0.33425517
H        0.24993894      -1.18283194      -1.48888521
H       -0.68844228      -1.42922040       1.37593657
H       -1.13648376      -2.42844054      -0.06139427
H       -0.74646675       0.20706774      -1.15885497
H       -2.94824418       0.52184575       1.25971223
H       -2.15005472       1.76624640       0.32448772
H       -1.24594639       0.88835178       1.59275944
18
Frame=9 idx=000853 GeodesicLength=0.5397153403783312 rxn_smarts="[C:1]([C:2]([C@@:3]1([H:12])[C:4]([H:13])([H:14])[C@:5]1([C:6]([H:16])([H:17])[H:18])[H:15])([H:10])[H:11])([H:7])([H:8])[H:9]>>[C:1]([C:2]([C:3]([C:4]([C:5][C:6]([H:16])([H:17])[H:18])([H:13])[H:14])([H:12])[H:15])([H:10])[H:11])([H:7])([H:8])[H:9]"
C        2.10114010       0.83042801      -0.75886229
C        1.32445278      -0.15926805       0.09966894
C        0.04669275      -0.63688440      -0.55987343
C       -0.91994313      -1.42249124       0.31749556
C       -1.74722428      -0.30502129      -0.18144592
C       -2.01250207       0.79338359       0.79331372
H        2.34304787       0.40214487      -1.73437681
H        1.51826436       1.73897754      -0.92827006
H        3.03834813       1.12086267      -0.28115533
H        1.09846324       0.29448620       1.06845485
H        1.94938983      -1.03085760       0.31862712
H        0.24529142      -1.17433660      -1.48730921
H       -0.68472917      -1.41640152       1.38425246
H       -1.12256350      -2.42323292      -0.05133128
H       -0.76045629       0.21895437      -1.17076953
H       -2.96502309       0.50600004       1.25687879
H       -2.18489431       1.76266130       0.32265354
H       -1.26775466       0.90059503       1.59204889
18
Frame=10 idx=000853 GeodesicLength=0.5997236804211494 rxn_smarts="[C:1]([C:2]([C@@:3]1([H:12])[C:4]([H:13])([H:14])[C@:5]1([C:6]([H:16])([H:17])[H:18])[H:15])([H:10])[H:11])([H:7])([H:8])[H:9]>>[C:1]([C:2]([C:3]([C:4]([C:5][C:6]([H:16])([H:17])[H:18])([H:13])[H:14])([H:12])[H:15])([H:10])[H:11])([H:7])([H:8])[H:9]"
C        2.11232084       0.82545528      -0.75950057
C        1.33479838      -0.16593812       0.09636489
C        0.04769913      -0.62734335      -0.55714945
C       -0.91277526      -1.41462010       0.32539934
C       -1.74322858      -0.30156814      -0.17741958
C       -2.03282243       0.79276455       0.79262767
H        2.34166895       0.40458194      -1.74125241
H        1.53564043       1.74050402      -0.91455381
H        3.05627090       1.10327662      -0.28750935
H        1.12180402       0.28103782       1.07133265
H        1.95494073      -1.04414329       0.30240007
H        0.24057830      -1.16554821      -1.48552218
H       -0.68093371      -1.40303134       1.39277314
H       -1.10856144      -2.41757910      -0.04092675
H       -0.77482736       0.23087411      -1.18275208
H       -2.98191849       0.48972817       1.25375177
H       -2.22032796       1.75859617       0.32061118
H       -1.29032646       0.91295296       1.59132546
18
Frame=11 idx=000853 GeodesicLength=0.6597446263896299 rxn_smarts="[C:1]([C:2]([C@@:3]1([H:12])[C:4]([H:13])([H:14])[C@:5]1([C:6]([H:16])([H:17])[H:18])[H:15])([H:10])[H:11])([H:7])([H:8])[H:9]>>[C:1]([C:2]([C:3]([C:4]([C:5][C:6]([H:16])([H:17])[H:18])([H:13])[H:14])([H:12])[H:15])([H:10])[H:11])([H:7])([H:8])[H:9]"
C        2.12369326       0.82039727      -0.76014024
C        1.34541327      -0.17283123       0.09295996
C        0.04890432      -0.61753317      -0.55415251
C       -0.90550835      -1.40630530       0.33355497
C       -1.73903910      -0.29770841      -0.17331819
C       -2.05353963       0.79198256       0.79182635
H        2.34021422       0.40736134      -1.74811414
H        1.55342745       1.74183291      -0.90043918
H        3.07436747       1.08538060      -0.29420677
H        1.14590082       0.26684550       1.07418155
H        1.96047601      -1.05769898       0.28555660
H        0.23579719      -1.15644824      -1.48351526
H       -0.67704089      -1.38907775       1.40150645
H       -1.09448077      -2.41145763      -0.03016324
H       -0.78960632       0.24281809      -1.19480926
H       -2.99892624       0.47300945       1.25031234
H       -2.25635036       1.75402229       0.31836047
H       -1.31370235       0.92541069       1.59060011
18
Frame=12 idx=000853 GeodesicLength=0.7197792023258062 rxn_smarts="[C:1]([C:2]([C@@:3]1([H:12])[C:4]([H:13])([H:14])[C@:5]1([C:6]([H:16])([H:17])[H:18])[H:15])([H:10])[H:11])([H:7])([H:8])[H:9]>>[C:1]([C:2]([C:3]([C:4]([C:5][C:6]([H:16])([H:17])[H:18])([H:13])[H:14])([H:12])[H:15])([H:10])[H:11])([H:7])([H:8])[H:9]"
C        2.13527142       0.81524837      -0.76078154
C        1.35629753      -0.17994969       0.08944345
C        0.05031672      -0.60743362      -0.55087506
C       -0.89813532      -1.39752070       0.34197599
C       -1.73464717      -0.29341575      -0.16912631
C       -2.07466532       0.79102328       0.79091119
H        2.33869612       0.41048937      -1.75494854
H        1.57166181       1.74295239      -0.88591626
H        3.09264939       1.06715356      -0.30125691
H        1.17076128       0.25188031       1.07697113
H        1.96596901      -1.07152120       0.26807059
H        0.23094596      -1.14701712      -1.48127741
H       -0.67303469      -1.37450570       1.41046132
H       -1.08032193      -2.40484276      -0.01902199
H       -0.80482181       0.25477767      -1.20694690
H       -3.01604400       0.45581659       1.24654731
H       -2.29297950       1.74890991       0.31588656
H       -1.33791950       0.93795507       1.58988338
18
Frame=13 idx=000853 GeodesicLength=0.77981619201842 rxn_smarts="[C:1]([C:2]([C@@:3]1([H:12])[C:4]([H:13])([H:14])[C@:5]1([C:6]([H:16])([H:17])[H:18])[H:15])([H:10])[H:11])([H:7])([H:8])[H:9]>>[C:1]([C:2]([C:3]([C:4]([C:5][C:6]([H:16])([H:17])[H:18])([H:13])[H:14])([H:12])[H:15])([H:10])[H:11])([H:7])([H:8])[H:9]"
C        2.14706880       0.81000209      -0.76142302
C        1.36744684      -0.18729494       0.08580433
C        0.05194349      -0.59702509      -0.54731010
C       -0.89065113      -1.38824243       0.35067425
C       -1.73004673      -0.28866139      -0.16482499
C       -2.09620197       0.78986943       0.78988207
H        2.33713165       0.41397037      -1.76173634
H        1.59037499       1.74384270      -0.87099310
H        3.11110936       1.04859657      -0.30866569
H        1.19638813       0.23611300       1.07966835
H        1.97138604      -1.08559986       0.24992612
H        0.22602220      -1.13723387      -1.47880009
H       -0.66889821      -1.35928253       1.41964490
H       -1.06608959      -2.39771117      -0.00748676
H       -0.82050450       0.26673592      -1.21917265
H       -3.03326407       0.43813728       1.24243003
H       -2.33019295       1.74322424       0.31318771
H       -1.36302237       0.95055965       1.58919500
18
Frame=14 idx=000853 GeodesicLength=0.8398560543085789 rxn_smarts="[C:1]([C:2]([C@@:3]1([H:12])[C:4]([H:13])([H:14])[C@:5]1([C:6]([H:16])([H:17])[H:18])[H:15])([H:10])[H:11])([H:7])([H:8])[H:9]>>[C:1]([C:2]([C:3]([C:4]([C:5][C:6]([H:16])([H:17])[H:18])([H:13])[H:14])([H:12])[H:15])([H:10])[H:11])([H:7])([H:8])[H:9]"
C        2.15910065       0.80465105      -0.76206563
C        1.37885955      -0.19486751       0.08203189
C        0.05379421      -0.58628465      -0.54344956
C       -0.88304808      -1.37844005       0.35966411
C       -1.72522594      -0.28341204      -0.16039584
C       -2.11816239       0.78850354       0.78873907
H        2.33553662       0.41781427      -1.76846098
H        1.60960941       1.74448922      -0.85566091
H        3.12976001       1.02968314      -0.31644956
H        1.22278209       0.21951350       1.08223626
H        1.97669352      -1.09992548       0.23110160
H        0.22102539      -1.12707713      -1.47607001
H       -0.66461243      -1.34336791       1.42906684
H       -1.05178580      -2.39003313       0.00446205
H       -0.83668763       0.27867666      -1.23149423
H       -3.05058496       0.41993646       1.23794395
H       -2.36799911       1.73693940       0.31024968
H       -1.38905511       0.96320066       1.58855126
18
Frame=15 idx=000853 GeodesicLength=0.8998920248931006 rxn_smarts="[C:1]([C:2]([C@@:3]1([H:12])[C:4]([H:13])([H:14])[C@:5]1([C:6]([H:16])([H:17])[H:18])[H:15])([H:10])[H:11])([H:7])([H:8])[H:9]>>[C:1]([C:2]([C:3]([C:4]([C:5][C:6]([H:16])([H:17])[H:18])([H:13])[H:14])([H:12])[H:15])([H:10])[H:11])([H:7])([H:8])[H:9]"
C        2.17138251       0.79918708      -0.76270978
C        1.39053002      -0.20266683       0.07811363
C        0.05587887      -0.57518928      -0.53928616
C       -0.87532000      -1.36808393       0.36895812
C       -1.72017445      -0.27763024      -0.15581762
C       -2.14055029       0.78690514       0.78748579
H        2.33393250       0.42202434      -1.77510282
H        1.62940469       1.74487213      -0.83992464
H        3.14860144       1.01040164      -0.32461858
H        1.24993775       0.20205376       1.08463436
H        1.98185114      -1.11448252       0.21158469
H        0.21595393      -1.11652262      -1.47307623
H       -0.66015772      -1.32672334       1.43873422
H       -1.03741688      -2.38177958       0.01684159
H       -0.85340627       0.29058010      -1.24391913
H       -3.06800021       0.40118922       1.23306470
H       -2.40638385       1.73002048       0.30706257
H       -1.41606318       0.97584444       1.58797528
18
Frame=16 idx=000853 GeodesicLength=0.9599181332346564 rxn_smarts="[C:1]([C:2]([C@@:3]1([H:12])[C:4]([H:13])([H:14])[C@:5]1([C:6]([H:16])([H:17])[H:18])[H:15])([H:10])[H:11])([H:7])([H:8])[H:9]>>[C:1]([C:2]([C:3]([C:4]([C:5][C:6]([H:16])([H:17])[H:18])([H:13])[H:14])([H:12])[H:15])([H:10])[H:11])([H:7])([H:8])[H:9]"
C        2.18393143       0.79360112      -0.76335633
C        1.40245222      -0.21069105       0.07403769
C        0.05820797      -0.56371319      -0.53481244
C       -0.86745975      -1.35714036       0.37856975
C       -1.71487942      -0.27127268      -0.15106778
C       -2.16337375       0.78505237       0.78612295
H        2.33233831       0.42660707      -1.78164400
H        1.64980778       1.74497063      -0.82378530
H        3.16763918       0.99073053      -0.33318717
H        1.27784654       0.18370695       1.08682001
H        1.98681583      -1.12925269       0.19136435
H        0.21080781      -1.10554511      -1.46980601
H       -0.65551286      -1.30930549       1.44865528
H       -1.02299000      -2.37291792       0.02966959
H       -0.87069770       0.30242192      -1.25645607
H       -3.08550461       0.38186117       1.22776847
H       -2.44533535       1.72243362       0.30361472
H       -1.44409362       0.98845310       1.58749230
