17
Frame=0 idx=011523 GeodesicLength=0.0 rxn_smarts="[C:1]([C@@:2]1([H:11])[N:3]([H:12])[C@:4]1([C@@:5]1([H:14])[C:6]([H:15])([H:16])[N:7]1[H:17])[H:13])([H:8])([H:9])[H:10]>>[C:1](/[C:2](=[N:3]\[H:12])[H:11])([H:8])([H:9])[H:10].[C:4](=[C:5]1[C:6]([H:15])([H:16])[N:7]1[H:17])([H:13])[H:14]"
C       -1.95604523      -0.08301181       0.10499441
C       -1.05767436      -0.24332435      -1.11617877
N       -0.73622942       0.85703381      -1.89097720
C        0.41590245      -0.69518607      -0.74081661
C        1.12370608      -0.29269450       0.39148183
C        2.27116110       0.32251706       1.03104311
N        0.93492051       0.15546670       1.66076165
H       -2.96674333       0.14606603      -0.23422703
H       -1.63350249       0.75724181       0.72706883
H       -1.99418205      -0.98400280       0.72540176
H       -1.44998643      -1.05781960      -1.73602695
H       -0.58432544       1.64927693      -1.26319880
H        1.03753503      -0.90154380      -1.60463405
H        0.63974177      -1.63186065       0.02211470
H        3.05453708      -0.26887523       1.48715233
H        2.56237574       1.30261061       0.66235268
H        0.33880903       0.96810590       1.77368804
17
Frame=1 idx=011523 GeodesicLength=0.1219651895054313 rxn_smarts="[C:1]([C@@:2]1([H:11])[N:3]([H:12])[C@:4]1([C@@:5]1([H:14])[C:6]([H:15])([H:16])[N:7]1[H:17])[H:13])([H:8])([H:9])[H:10]>>[C:1](/[C:2](=[N:3]\[H:12])[H:11])([H:8])([H:9])[H:10].[C:4](=[C:5]1[C:6]([H:15])([H:16])[N:7]1[H:17])([H:13])[H:14]"
C       -1.99074992      -0.09603590       0.09464833
C       -1.06472120      -0.23207952      -1.10676655
N       -0.69911983       0.88254668      -1.83699978
C        0.42794402      -0.71359975      -0.72994482
C        1.13919930      -0.31490881       0.40135512
C        2.28651283       0.32606804       1.01584275
N        0.95175517       0.18709016       1.65387081
H       -2.99299413       0.14335556      -0.26283753
H       -1.67953584       0.72679719       0.74470170
H       -2.04943108      -1.01171216       0.69115308
H       -1.44260783      -1.02705511      -1.75921065
H       -0.58605886       1.66578212      -1.19085423
H        1.04711194      -0.93609203      -1.59177262
H        0.64378863      -1.65131638       0.05399414
H        3.07115294      -0.24864577       1.49080739
H        2.57769393       1.29134489       0.61003248
H        0.36005993       1.00846079       1.72198036
17
Frame=2 idx=011523 GeodesicLength=0.24296625510164277 rxn_smarts="[C:1]([C@@:2]1([H:11])[N:3]([H:12])[C@:4]1([C@@:5]1([H:14])[C:6]([H:15])([H:16])[N:7]1[H:17])[H:13])([H:8])([H:9])[H:10]>>[C:1](/[C:2](=[N:3]\[H:12])[H:11])([H:8])([H:9])[H:10].[C:4](=[C:5]1[C:6]([H:15])([H:16])[N:7]1[H:17])([H:13])[H:14]"
C       -2.02510563      -0.10677293       0.08380317
C       -1.07194020      -0.22098665      -1.09661511
N       -0.66354819       0.90492541      -1.78201843
C        0.44075156      -0.73160176      -0.71893036
C        1.15508978      -0.33689438       0.41179282
C        2.30139092       0.33008463       1.00058406
N        0.96888802       0.21575521       1.64651593
H       -3.01832698       0.14355217      -0.29163079
H       -1.72492858       0.69818001       0.76049504
H       -2.10395982      -1.03589144       0.65638055
H       -1.43436228      -0.99671824      -1.77948004
H       -0.58973568       1.68019857      -1.12157629
H        1.05719467      -0.96927802      -1.57888557
H        0.64955517      -1.67050856       0.08555849
H        3.08878782      -0.22662433       1.49223155
H        2.59032895       1.28054727       0.55982524
H        0.37992047       1.04203303       1.67194974
17
Frame=3 idx=011523 GeodesicLength=0.36323449024041127 rxn_smarts="[C:1]([C@@:2]1([H:11])[N:3]([H:12])[C@:4]1([C@@:5]1([H:14])[C:6]([H:15])([H:16])[N:7]1[H:17])[H:13])([H:8])([H:9])[H:10]>>[C:1](/[C:2](=[N:3]\[H:12])[H:11])([H:8])([H:9])[H:10].[C:4](=[C:5]1[C:6]([H:15])([H:16])[N:7]1[H:17])([H:13])[H:14]"
C       -2.05925911      -0.11540530       0.07242606
C       -1.07941680      -0.21008516      -1.08581632
N       -0.62965075       0.92432396      -1.72619569
C        0.45432887      -0.74915673      -0.70779487
C        1.17139642      -0.35839280       0.42266114
C        2.31593148       0.33444798       0.98523657
N        0.98638729       0.24158293       1.63897475
H       -3.04291614       0.14619982      -0.32071622
H       -1.77009094       0.67145645       0.77436759
H       -2.15781688      -1.05673167       0.62117828
H       -1.42531639      -0.96698151      -1.79702663
H       -0.59531669       1.69281063      -1.05545744
H        1.06782645      -1.00121010      -1.56597806
H        0.65713111      -1.68934338       0.11691158
H        3.10741385      -0.20332034       1.49128857
H        2.60066566       1.27026437       0.51172660
H        0.39870258       1.06954083       1.62421407
17
Frame=4 idx=011523 GeodesicLength=0.4829525685534273 rxn_smarts="[C:1]([C@@:2]1([H:11])[N:3]([H:12])[C@:4]1([C@@:5]1([H:14])[C:6]([H:15])([H:16])[N:7]1[H:17])[H:13])([H:8])([H:9])[H:10]>>[C:1](/[C:2](=[N:3]\[H:12])[H:11])([H:8])([H:9])[H:10].[C:4](=[C:5]1[C:6]([H:15])([H:16])[N:7]1[H:17])([H:13])[H:14]"
C       -2.09336193      -0.12213609       0.06048423
C       -1.08723900      -0.19940368      -1.07443327
N       -0.59754868       0.94092660      -1.66959016
C        0.46866993      -0.76625803      -0.69655633
C        1.18815643      -0.37923022       0.43383617
C        2.33026733       0.33905475       0.96977622
N        1.00432795       0.26478134       1.63145908
H       -3.06692002       0.15089100      -0.35021623
H       -1.81540463       0.64661461       0.78629861
H       -2.21109282      -1.07448719       0.58558484
H       -1.41555230      -0.93795083      -1.81204174
H       -0.60268040       1.70385473      -0.99243046
H        1.07902121      -1.03198969      -1.55306278
H        0.66658009      -1.70776372       0.14814379
H        3.12698880      -0.17916190       1.48795287
H        2.60907728       1.26050446       0.46565391
H        0.41671077       1.09175387       1.57914126
17
Frame=5 idx=011523 GeodesicLength=0.6022657047542078 rxn_smarts="[C:1]([C@@:2]1([H:11])[N:3]([H:12])[C@:4]1([C@@:5]1([H:14])[C:6]([H:15])([H:16])[N:7]1[H:17])[H:13])([H:8])([H:9])[H:10]>>[C:1](/[C:2](=[N:3]\[H:12])[H:11])([H:8])([H:9])[H:10].[C:4](=[C:5]1[C:6]([H:15])([H:16])[N:7]1[H:17])([H:13])[H:14]"
C       -2.12756243      -0.12715862       0.04794309
C       -1.09549593      -0.18896602      -1.06250060
N       -0.56735588       0.95491099      -1.61219006
C        0.48376701      -0.78291787      -0.68522990
C        1.20541954      -0.39930245       0.44520720
C        2.34451706       0.34382723       0.95418024
N        1.02278571       0.28558775       1.62412059
H       -3.09047641       0.15729153      -0.38025737
H       -1.86121200       0.62360131       0.79629605
H       -2.26390608      -1.08942098       0.54959682
H       -1.40516394      -0.90968470      -1.82468904
H       -0.61162588       1.71349689      -0.93230734
H        1.09077926      -1.06170652      -1.54015616
H        0.67795782      -1.72574173       0.17932666
H        3.14747022      -0.15447935       1.48226067
H        2.61588858       1.25126031       0.42147621
H        0.43421337       1.10940223       1.53692293
17
Frame=6 idx=011523 GeodesicLength=0.7212853144124172 rxn_smarts="[C:1]([C@@:2]1([H:11])[N:3]([H:12])[C@:4]1([C@@:5]1([H:14])[C:6]([H:15])([H:16])[N:7]1[H:17])[H:13])([H:8])([H:9])[H:10]>>[C:1](/[C:2](=[N:3]\[H:12])[H:11])([H:8])([H:9])[H:10].[C:4](=[C:5]1[C:6]([H:15])([H:16])[N:7]1[H:17])([H:13])[H:14]"
C       -2.16199733      -0.13063244       0.03477783
C       -1.10427756      -0.17880115      -1.05003438
N       -0.53918975       0.96642419      -1.55397369
C        0.49962226      -0.79915497      -0.67384709
C        1.22324510      -0.41855503       0.45666683
C        2.35877979       0.34870563       0.93843709
N        1.04182319       0.30422434       1.61706978
H       -3.11370049       0.16512987      -0.41095519
H       -1.90781897       0.60238309       0.80437823
H       -2.31637630      -1.10176103       0.51322843
H       -1.39425147      -0.88223786      -1.83509393
H       -0.62192021       1.72185134      -0.87485128
H        1.10310919      -1.09042656      -1.52730220
H        0.69133841      -1.74327771       0.21048868
H        3.16881192      -0.12953121       1.47429595
H        2.62137354       1.24252467       0.37906652
H        0.45142867       1.12313485       1.49764842
17
Frame=7 idx=011523 GeodesicLength=0.8400930495334221 rxn_smarts="[C:1]([C@@:2]1([H:11])[N:3]([H:12])[C@:4]1([C@@:5]1([H:14])[C:6]([H:15])([H:16])[N:7]1[H:17])[H:13])([H:8])([H:9])[H:10]>>[C:1](/[C:2](=[N:3]\[H:12])[H:11])([H:8])([H:9])[H:10].[C:4](=[C:5]1[C:6]([H:15])([H:16])[N:7]1[H:17])([H:13])[H:14]"
C       -2.19679489      -0.13268494       0.02095233
C       -1.11367264      -0.16894360      -1.03703034
N       -0.51315373       0.97557295      -1.49489021
C        0.51623816      -0.81500080      -0.66243249
C        1.24169385      -0.43697436       0.46812426
C        2.37313073       0.35366966       0.92252197
N        1.06150604       0.32088627       1.61038655
H       -3.13667938       0.17422024      -0.44243614
H       -1.95548545       0.58292433       0.81055468
H       -2.36864618      -1.11170026       0.47645720
H       -1.38292802      -0.85565036      -1.84334244
H       -0.63324021       1.72894787      -0.81972801
H        1.11601331      -1.11821784      -1.51453503
H        0.70679272      -1.76038937       0.24164772
H        3.19098407      -0.10446760       1.46412268
H        2.62571651       1.23431705       0.33827859
H        0.46852512       1.13349075       1.46134869
17
Frame=8 idx=011523 GeodesicLength=0.9587443990789777 rxn_smarts="[C:1]([C@@:2]1([H:11])[N:3]([H:12])[C@:4]1([C@@:5]1([H:14])[C:6]([H:15])([H:16])[N:7]1[H:17])[H:13])([H:8])([H:9])[H:10]>>[C:1](/[C:2](=[N:3]\[H:12])[H:11])([H:8])([H:9])[H:10].[C:4](=[C:5]1[C:6]([H:15])([H:16])[N:7]1[H:17])([H:13])[H:14]"
C       -2.23207120      -0.13339973       0.00643353
C       -1.12376762      -0.15944151      -1.02347310
N       -0.48934037       0.98241437      -1.43491206
C        0.53363017      -0.83049065      -0.65102404
C        1.26083113      -0.45457239       0.47949057
C        2.38761996       0.35872411       0.90641019
N        1.08188919       0.33572035       1.60413769
H       -3.15947313       0.18444266      -0.47482141
H       -2.00443373       0.56523265       0.81482199
H       -2.42086613      -1.11937308       0.43928255
H       -1.37131516      -0.82998472      -1.84948120
H       -0.64523251       1.73476051      -0.76657148
H        1.12950940      -1.14513782      -1.50190633
H        0.72441588      -1.77711300       0.27278881
H        3.21395976      -0.07936949       1.45179502
H        2.62902762       1.22668927       0.29898782
H        0.48561676       1.14089847       1.42804147
17
Frame=9 idx=011523 GeodesicLength=1.0772389329780196 rxn_smarts="[C:1]([C@@:2]1([H:11])[N:3]([H:12])[C@:4]1([C@@:5]1([H:14])[C:6]([H:15])([H:16])[N:7]1[H:17])[H:13])([H:8])([H:9])[H:10]>>[C:1](/[C:2](=[N:3]\[H:12])[H:11])([H:8])([H:9])[H:10].[C:4](=[C:5]1[C:6]([H:15])([H:16])[N:7]1[H:17])([H:13])[H:14]"
C       -2.26791985      -0.13282036      -0.00879921
C       -1.13464934      -0.15036158      -1.00933722
N       -0.46784658       0.98695729      -1.37404813
C        0.55182595      -0.84564679      -0.63968772
C        1.28072207      -0.47137179       0.49066286
C        2.40227461       0.36387964       0.89009744
N        1.10300469       0.34883599       1.59835982
H       -3.18211391       0.19569199      -0.50822304
H       -2.05485976       0.54939276       0.81715262
H       -2.47316071      -1.12485205       0.40176553
H       -1.35954200      -0.80535048      -1.85351264
H       -0.65755821       1.73922715      -0.71499921
H        1.14363037      -1.17120645      -1.48949507
H        0.74433132      -1.79348795       0.30383319
H        3.23768177      -0.05428212       1.43740087
H        2.63139183       1.21969081       0.26112153
H        0.50278776       1.14570393       1.39770836
17
Frame=10 idx=011523 GeodesicLength=1.195616970975358 rxn_smarts="[C:1]([C@@:2]1([H:11])[N:3]([H:12])[C@:4]1([C@@:5]1([H:14])[C:6]([H:15])([H:16])[N:7]1[H:17])[H:13])([H:8])([H:9])[H:10]>>[C:1](/[C:2](=[N:3]\[H:12])[H:11])([H:8])([H:9])[H:10].[C:4](=[C:5]1[C:6]([H:15])([H:16])[N:7]1[H:17])([H:13])[H:14]"
C       -2.30443761      -0.13093144      -0.02480353
C       -1.14638463      -0.14178039      -0.99458164
N       -0.44868741       0.98915186      -1.31228515
C        0.57086343      -0.86055099      -0.62844992
C        1.30145478      -0.48744185       0.50157041
C        2.41708585       0.36923019       0.87351358
N        1.12491451       0.36025033       1.59314030
H       -3.20458688       0.20803669      -0.54279609
H       -2.10690673       0.53548940       0.81749967
H       -2.52574900      -1.12814861       0.36387157
H       -1.34774000      -0.78185032      -1.85541419
H       -0.66978568       1.74219689      -0.66453692
H        1.15841357      -1.19653762      -1.47733747
H        0.76667937      -1.80960037       0.33476434
H        3.26217429      -0.02908944       1.42084928
H        2.63267835       1.21351050       0.22455212
H        0.52001380       1.14806518       1.37044365
17
Frame=11 idx=011523 GeodesicLength=1.3138715125550728 rxn_smarts="[C:1]([C@@:2]1([H:11])[N:3]([H:12])[C@:4]1([C@@:5]1([H:14])[C:6]([H:15])([H:16])[N:7]1[H:17])[H:13])([H:8])([H:9])[H:10]>>[C:1](/[C:2](=[N:3]\[H:12])[H:11])([H:8])([H:9])[H:10].[C:4](=[C:5]1[C:6]([H:15])([H:16])[N:7]1[H:17])([H:13])[H:14]"
C       -2.34169899      -0.12768783      -0.04162609
C       -1.15903806      -0.13379414      -0.97915095
N       -0.43187829       0.98890564      -1.24962910
C        0.59079516      -0.87526888      -0.61736165
C        1.32312258      -0.50285019       0.51212723
C        2.43202971       0.37485827       0.85661421
N        1.14765996       0.36997093       1.58853622
H       -3.22684093       0.22154244      -0.57868410
H       -2.16070012       0.52367449       0.81579540
H       -2.57882906      -1.12922208       0.32561424
H       -1.33603755      -0.75963784      -1.85512572
H       -0.68158734       1.74350739      -0.61472288
H        1.17391292      -1.22120513      -1.46549491
H        0.79163722      -1.82553126       0.36550721
H        3.28741056      -0.00367048       1.40210070
H        2.63277208       1.20830241       0.18920255
H        0.53727016       1.14810625       1.34629763
17
Frame=12 idx=011523 GeodesicLength=1.4319898196925525 rxn_smarts="[C:1]([C@@:2]1([H:11])[N:3]([H:12])[C@:4]1([C@@:5]1([H:14])[C:6]([H:15])([H:16])[N:7]1[H:17])[H:13])([H:8])([H:9])[H:10]>>[C:1](/[C:2](=[N:3]\[H:12])[H:11])([H:8])([H:9])[H:10].[C:4](=[C:5]1[C:6]([H:15])([H:16])[N:7]1[H:17])([H:13])[H:14]"
C       -2.37976663      -0.12301396      -0.05930893
C       -1.17267294      -0.12651525      -0.96297373
N       -0.41741758       0.98608914      -1.18608546
C        0.61169276      -0.88986511      -0.60648627
C        1.34582861      -0.51767180       0.52224505
C        2.44706983       0.38084659       0.83936717
N        1.17127058       0.37798827       1.58459348
H       -3.24879373       0.23629632      -0.61603002
H       -2.21634393       0.51415420       0.81195477
H       -2.63260434      -1.12798614       0.28703394
H       -1.32456801      -0.73890354      -1.85255694
H       -0.69272343       1.74298445      -0.56511991
H        1.19020767      -1.24526291      -1.45404563
H        0.81942372      -1.84137179       0.39595563
H        3.31334144       0.02211542       1.38113319
H        2.63154346       1.20421415       0.15502345
H        0.55451252       1.14590194       1.32530019
17
Frame=13 idx=011523 GeodesicLength=1.5499496655862925 rxn_smarts="[C:1]([C@@:2]1([H:11])[N:3]([H:12])[C@:4]1([C@@:5]1([H:14])[C:6]([H:15])([H:16])[N:7]1[H:17])[H:13])([H:8])([H:9])[H:10]>>[C:1](/[C:2](=[N:3]\[H:12])[H:11])([H:8])([H:9])[H:10].[C:4](=[C:5]1[C:6]([H:15])([H:16])[N:7]1[H:17])([H:13])[H:14]"
C       -2.41868991      -0.11681033      -0.07788819
C       -1.18735646      -0.12007336      -0.94595773
N       -0.40529770       0.98053854      -1.12164310
C        0.63364497      -0.90439656      -0.59590283
C        1.36968092      -0.53198247       0.53183147
C        2.46216188       0.38727032       0.82175993
N        1.19576241       0.38428894       1.58133910
H       -3.27033241       0.25238428      -0.65497556
H       -2.27392179       0.50719237       0.80587078
H       -2.68727514      -1.12431463       0.24820209
H       -1.31347437      -0.71987426      -1.84758519
H       -0.70305502       1.74044475      -0.51533101
H        1.20740113      -1.26873182      -1.44308935
H        0.85029709      -1.85721724       0.42596457
H        3.33988614       0.04841405       1.35796289
H        2.62887456       1.20136865       0.12199643
H        0.57169370       1.14149877       1.30744570
17
Frame=14 idx=011523 GeodesicLength=1.6677381413318249 rxn_smarts="[C:1]([C@@:2]1([H:11])[N:3]([H:12])[C@:4]1([C@@:5]1([H:14])[C:6]([H:15])([H:16])[N:7]1[H:17])[H:13])([H:8])([H:9])[H:10]>>[C:1](/[C:2](=[N:3]\[H:12])[H:11])([H:8])([H:9])[H:10].[C:4](=[C:5]1[C:6]([H:15])([H:16])[N:7]1[H:17])([H:13])[H:14]"
C       -2.45850670      -0.10893182      -0.09741460
C       -1.20314592      -0.11462366      -0.92797693
N       -0.39547115       0.97203466      -1.05623741
C        0.65675324      -0.91895144      -0.58567754
C        1.39480969      -0.54587918       0.54079884
C        2.47723077       0.39424034       0.80375837
N        1.22116108       0.38880979       1.57881090
H       -3.29128017       0.26996612      -0.69568820
H       -2.33348584       0.50310666       0.79740936
H       -2.74309380      -1.11801683       0.20916110
H       -1.30289551      -0.70281473      -1.84004742
H       -0.71247748       1.73566970      -0.46497495
H        1.22560686      -1.29165115      -1.43272002
H        0.88456639      -1.87318710       0.45538839
H        3.36696500       0.07546314       1.33253654
H        2.62453942       1.19993486       0.09010386
H        0.58872413       1.13483065       1.29276972
17
Frame=15 idx=011523 GeodesicLength=1.7853363585814332 rxn_smarts="[C:1]([C@@:2]1([H:11])[N:3]([H:12])[C@:4]1([C@@:5]1([H:14])[C:6]([H:15])([H:16])[N:7]1[H:17])[H:13])([H:8])([H:9])[H:10]>>[C:1](/[C:2](=[N:3]\[H:12])[H:11])([H:8])([H:9])[H:10].[C:4](=[C:5]1[C:6]([H:15])([H:16])[N:7]1[H:17])([H:13])[H:14]"
C       -2.49924126      -0.09920750      -0.11793140
C       -1.22011164      -0.11035169      -0.90887064
N       -0.38790393       0.96031201      -0.98976714
C        0.68113789      -0.93360529      -0.57589992
C        1.42135097      -0.55945296       0.54904751
C        2.49219027       0.40185728       0.78535433
N        1.24747596       0.39148497       1.57702502
H       -3.31141785       0.28918088      -0.73833918
H       -2.39507065       0.50229853       0.78640324
H       -2.80031523      -1.10885068       0.16999858
H       -1.29298648      -0.68804879      -1.82973222
H       -0.72097567       1.72842904      -0.41373764
H        1.24496726      -1.31400382      -1.42306893
H        0.92259828      -1.88940042       0.48402426
H        3.39445243       0.10350274       1.30485214
H        2.61832949       1.20004837       0.05936949
H        0.60552016       1.12580734       1.28127252
17
Frame=16 idx=011523 GeodesicLength=1.9027189501644137 rxn_smarts="[C:1]([C@@:2]1([H:11])[N:3]([H:12])[C@:4]1([C@@:5]1([H:14])[C:6]([H:15])([H:16])[N:7]1[H:17])[H:13])([H:8])([H:9])[H:10]>>[C:1](/[C:2](=[N:3]\[H:12])[H:11])([H:8])([H:9])[H:10].[C:4](=[C:5]1[C:6]([H:15])([H:16])[N:7]1[H:17])([H:13])[H:14]"
C       -2.54090012      -0.08743249      -0.13947211
C       -1.23834292      -0.10748513      -0.88843452
N       -0.38257893       0.94504362      -0.92209393
C        0.70694099      -0.94842038      -0.56669267
C        1.44944460      -0.57279024       0.55645986
C        2.50693411       0.41021811       0.76656947
N        1.27469282       0.39223076       1.57598119
H       -3.33047401       0.31013584      -0.78310959
H       -2.45868261       0.50528853       0.77263714
H       -2.85920068      -1.09650635       0.13087370
H       -1.28393021      -0.67598405      -1.81636378
H       -0.72858935       1.71847423      -0.36138793
H        1.26566102      -1.33570056      -1.41432059
H        0.96482722      -1.90597964       0.51159285
H        3.42217308       0.13278517       1.27495965
H        2.61003526       1.20182753       0.02986949
H        0.62198974       1.11429506       1.27293176
