12
Frame=0 idx=000543 GeodesicLength=0.0 rxn_smarts="[C:1]1([H:7])([H:8])[C@:2]2([H:9])[O:3][C:4]([H:10])([H:11])[O:5][C@:6]12[H:12]>>[C:1]([C@@:2]1([H:9])[O:3][C:4]([H:10])=[O+:5][C-:6]1[H:12])([H:7])([H:8])[H:11]"
C        0.90366319       0.57503908       0.68834236
C        0.46189227      -0.77816368       0.23076055
O       -0.91002268      -0.92373685       0.62052334
C       -1.44248675       0.20073570       0.00437365
O       -0.94950283       0.16185391      -1.29662033
C        0.25311695      -0.30398169      -1.18195352
H        1.87651341       0.87272296       0.31445386
H        0.78029127       0.79487416       1.74803017
H        1.00123835      -1.69725345       0.44571931
H       -2.52327817       0.25814065       0.04497792
H       -0.37528743       1.05852783       0.40343002
H        0.92386246      -0.21875862      -2.02203728
12
Frame=1 idx=000543 GeodesicLength=0.07158976670624591 rxn_smarts="[C:1]1([H:7])([H:8])[C@:2]2([H:9])[O:3][C:4]([H:10])([H:11])[O:5][C@:6]12[H:12]>>[C:1]([C@@:2]1([H:9])[O:3][C:4]([H:10])=[O+:5][C-:6]1[H:12])([H:7])([H:8])[H:11]"
C        0.91040481       0.57562787       0.67673558
C        0.45820884      -0.78013776       0.23388440
O       -0.91484176      -0.91801404       0.62569928
C       -1.45111009       0.19756286       0.00067992
O       -0.95371095       0.16169355      -1.29479574
C        0.25786636      -0.30191760      -1.17721117
H        1.89146133       0.85769327       0.31138448
H        0.79657947       0.79510391       1.73749554
H        0.99719902      -1.69853145       0.45051466
H       -2.53327338       0.24098899       0.03435923
H       -0.38963732       1.07439644       0.41528552
H        0.93085366      -0.20446605      -2.01403170
12
Frame=2 idx=000543 GeodesicLength=0.14318337836744371 rxn_smarts="[C:1]1([H:7])([H:8])[C@:2]2([H:9])[O:3][C:4]([H:10])([H:11])[O:5][C@:6]12[H:12]>>[C:1]([C@@:2]1([H:9])[O:3][C:4]([H:10])=[O+:5][C-:6]1[H:12])([H:7])([H:8])[H:11]"
C        0.91718953       0.57612499       0.66513081
C        0.45464899      -0.78202449       0.23693263
O       -0.91953961      -0.91219253       0.63074862
C       -1.45959999       0.19445267      -0.00299096
O       -0.95781322       0.16189127      -1.29294194
C        0.26262893      -0.29991748      -1.17254299
H        1.90615935       0.84256806       0.30849282
H        0.81249310       0.79542489       1.72679842
H        0.99326557      -1.69972299       0.45526607
H       -2.54291604       0.22373508       0.02375664
H       -0.40409155       1.09031098       0.42754296
H        0.93757493      -0.19065046      -2.00619307
12
Frame=3 idx=000543 GeodesicLength=0.2147773173553868 rxn_smarts="[C:1]1([H:7])([H:8])[C@:2]2([H:9])[O:3][C:4]([H:10])([H:11])[O:5][C@:6]12[H:12]>>[C:1]([C@@:2]1([H:9])[O:3][C:4]([H:10])=[O+:5][C-:6]1[H:12])([H:7])([H:8])[H:11]"
C        0.92403270       0.57651541       0.65353215
C        0.45120878      -0.78382994       0.23990634
O       -0.92411902      -0.90627387       0.63567360
C       -1.46795726       0.19140559      -0.00663723
O       -0.96181343       0.16244487      -1.29105655
C        0.26740621      -0.29799043      -1.16795140
H        1.92060107       0.82736541       0.30575772
H        0.82802782       0.79584252       1.71594746
H        0.98942893      -1.70083746       0.45997448
H       -2.55220038       0.20638639       0.01317216
H       -0.41866262       1.10627383       0.44020582
H        0.94404718      -0.17730232      -1.99852454
12
Frame=4 idx=000543 GeodesicLength=0.28636530661300186 rxn_smarts="[C:1]1([H:7])([H:8])[C@:2]2([H:9])[O:3][C:4]([H:10])([H:11])[O:5][C@:6]12[H:12]>>[C:1]([C@@:2]1([H:9])[O:3][C:4]([H:10])=[O+:5][C-:6]1[H:12])([H:7])([H:8])[H:11]"
C        0.93094892       0.57678598       0.64194319
C        0.44788489      -0.78555916       0.24280527
O       -0.92858224      -0.90025855       0.64047536
C       -1.47618313       0.18842166      -0.01025943
O       -0.96571393       0.16335392      -1.28913830
C        0.27220099      -0.29614288      -1.16343961
H        1.93478017       0.81210373       0.30316171
H        0.84318168       0.79636051       1.70495130
H        0.98568099      -1.70188221       0.46464046
H       -2.56112047       0.18894953       0.00260798
H       -0.43336516       1.12228733       0.45328153
H        0.95028729      -0.16441987      -1.99102946
12
Frame=5 idx=000543 GeodesicLength=0.35795842492510144 rxn_smarts="[C:1]1([H:7])([H:8])[C@:2]2([H:9])[O:3][C:4]([H:10])([H:11])[O:5][C@:6]12[H:12]>>[C:1]([C@@:2]1([H:9])[O:3][C:4]([H:10])=[O+:5][C-:6]1[H:12])([H:7])([H:8])[H:11]"
C        0.93795436       0.57692339       0.63036648
C        0.44467201      -0.78721670       0.24563142
O       -0.93293210      -0.89414402       0.64516093
C       -1.48428290       0.18549901      -0.01385702
O       -0.96951796       0.16461947      -1.28718364
C        0.27701351      -0.29438280      -1.15900829
H        1.94871175       0.79678660       0.30068115
H        0.85795529       0.79699175       1.69381514
H        0.98201083      -1.70286619       0.46926538
H       -2.56967816       0.17141990      -0.00794431
H       -0.44822266       1.13835812       0.46678386
H        0.95631603      -0.15198853      -1.98371110
12
Frame=6 idx=000543 GeodesicLength=0.42955211859948694 rxn_smarts="[C:1]1([H:7])([H:8])[C@:2]2([H:9])[O:3][C:4]([H:10])([H:11])[O:5][C@:6]12[H:12]>>[C:1]([C@@:2]1([H:9])[O:3][C:4]([H:10])=[O+:5][C-:6]1[H:12])([H:7])([H:8])[H:11]"
C        0.94506429       0.57691462       0.61880315
C        0.44156761      -0.78880671       0.24838470
O       -0.93716979      -0.88793018       0.64973110
C       -1.49225740       0.18263771      -0.01743106
O       -0.97322607       0.16624339      -1.28519050
C        0.28184777      -0.29271288      -1.15465965
H        1.96239440       0.78143114       0.29830335
H        0.87234937       0.79773870       1.68254546
H        0.97841067      -1.70379595       0.47384885
H       -2.57786708       0.15380281      -0.01848360
H       -0.46325958       1.15449001       0.48072068
H        0.96214580      -0.14001268      -1.97657246
12
Frame=7 idx=000543 GeodesicLength=0.5011389127188987 rxn_smarts="[C:1]1([H:7])([H:8])[C@:2]2([H:9])[O:3][C:4]([H:10])([H:11])[O:5][C@:6]12[H:12]>>[C:1]([C@@:2]1([H:9])[O:3][C:4]([H:10])=[O+:5][C-:6]1[H:12])([H:7])([H:8])[H:11]"
C        0.95229095       0.57674918       0.60725143
C        0.43856808      -0.79033290       0.25106602
O       -0.94129669      -0.88161784       0.65418832
C       -1.50011012       0.17983498      -0.02098190
O       -0.97683934       0.16822927      -1.28315525
C        0.28670497      -0.29113905      -1.15039570
H        1.97583696       0.76604133       0.29601449
H        0.88636256       0.79861365       1.67114277
H        0.97487356      -1.70467732       0.47839176
H       -2.58568294       0.13610122      -0.02901349
H       -0.47850056       1.17068610       0.49510932
H        0.96779257      -0.12848861      -1.96961776
12
Frame=8 idx=000543 GeodesicLength=0.5727390168444918 rxn_smarts="[C:1]1([H:7])([H:8])[C@:2]2([H:9])[O:3][C:4]([H:10])([H:11])[O:5][C@:6]12[H:12]>>[C:1]([C@@:2]1([H:9])[O:3][C:4]([H:10])=[O+:5][C-:6]1[H:12])([H:7])([H:8])[H:11]"
C        0.95965208       0.57641698       0.59570964
C        0.43566868      -0.79179746       0.25367719
O       -0.94531446      -0.87519906       0.65854212
C       -1.50784732       0.17709003      -0.02450991
O       -0.98035859       0.17058534      -1.28107214
C        0.29158611      -0.28966256      -1.14621539
H        1.98907140       0.75060783       0.29379676
H        0.90000373       0.79963262       1.65960763
H        0.97138744      -1.70551749       0.48289435
H       -2.59313111       0.11829702      -0.03955228
H       -0.49398692       1.18695595       0.50997068
H        0.97326897      -0.11740919      -1.96284867
12
Frame=9 idx=000543 GeodesicLength=0.6443310499375063 rxn_smarts="[C:1]1([H:7])([H:8])[C@:2]2([H:9])[O:3][C:4]([H:10])([H:11])[O:5][C@:6]12[H:12]>>[C:1]([C@@:2]1([H:9])[O:3][C:4]([H:10])=[O+:5][C-:6]1[H:12])([H:7])([H:8])[H:11]"
C        0.96716384       0.57589910       0.58417578
C        0.43286816      -0.79320297       0.25621862
O       -0.94922352      -0.86867397       0.66279105
C       -1.51546794       0.17440323      -0.02801692
O       -0.98378289       0.17331417      -1.27893871
C        0.29649435      -0.28828846      -1.14212198
H        2.00207908       0.73515627       0.29164600
H        0.91327360       0.80079881       1.64793868
H        0.96794447      -1.70632290       0.48735540
H       -2.60019662       0.10040462      -0.05009303
H       -0.50974359       1.20329749       0.52531840
H        0.97859105      -0.10678539      -1.95627326
12
Frame=10 idx=000543 GeodesicLength=0.7159175695401627 rxn_smarts="[C:1]1([H:7])([H:8])[C@:2]2([H:9])[O:3][C:4]([H:10])([H:11])[O:5][C@:6]12[H:12]>>[C:1]([C@@:2]1([H:9])[O:3][C:4]([H:10])=[O+:5][C-:6]1[H:12])([H:7])([H:8])[H:11]"
C        0.97483365       0.57519785       0.57264181
C        0.43016174      -0.79454920       0.25869161
O       -0.95302500      -0.86203794       0.66694197
C       -1.52298047       0.17177009      -0.03150486
O       -0.98711234       0.17642716      -1.27674918
C        0.30142864      -0.28702021      -1.13811664
H        2.01490814       0.71965821       0.28955017
H        0.92617858       0.80213219       1.63613034
H        0.96453917      -1.70709278       0.49177995
H       -2.60688429       0.08240850      -0.06065555
H       -0.52581505       1.21971631       0.54118519
H        0.98376723      -0.09661018      -1.94989479
12
Frame=11 idx=000543 GeodesicLength=0.787510979636767 rxn_smarts="[C:1]1([H:7])([H:8])[C@:2]2([H:9])[O:3][C:4]([H:10])([H:11])[O:5][C@:6]12[H:12]>>[C:1]([C@@:2]1([H:9])[O:3][C:4]([H:10])=[O+:5][C-:6]1[H:12])([H:7])([H:8])[H:11]"
C        0.98267826       0.57430398       0.56110035
C        0.42754623      -0.79583736       0.26109715
O       -0.95671863      -0.85528329       0.67100115
C       -1.53038892       0.16918895      -0.03497676
O       -0.99034413       0.17993614      -1.27449741
C        0.30639082      -0.28585973      -1.13420024
H        2.02758231       0.70410583       0.28750045
H        0.93872809       0.80364903       1.62417450
H        0.96116183      -1.70783167       0.49616884
H       -2.61319047       0.06429995      -0.07125491
H       -0.54225282       1.23621677       0.55760510
H        0.98880743      -0.08688860      -1.94371823
12
Frame=12 idx=000543 GeodesicLength=0.8591225534737703 rxn_smarts="[C:1]1([H:7])([H:8])[C@:2]2([H:9])[O:3][C:4]([H:10])([H:11])[O:5][C@:6]12[H:12]>>[C:1]([C@@:2]1([H:9])[O:3][C:4]([H:10])=[O+:5][C-:6]1[H:12])([H:7])([H:8])[H:11]"
C        0.99071155       0.57321470       0.54954042
C        0.42501667      -0.79706491       0.26343781
O       -0.96030502      -0.84839796       0.67497822
C       -1.53770086       0.16665758      -0.03843430
O       -0.99347786       0.18385690      -1.27217454
C        0.31137810      -0.28480957      -1.13037328
H        2.04014481       0.68846374       0.28548795
H        0.95093225       0.80537525       1.61205800
H        0.95780144      -1.70854040       0.50052578
H       -2.61911008       0.04605454      -0.08191446
H       -0.55911306       1.25280405       0.57461613
H        0.99372206      -0.07761391      -1.93774772
12
Frame=13 idx=000543 GeodesicLength=0.9307474261224147 rxn_smarts="[C:1]1([H:7])([H:8])[C@:2]2([H:9])[O:3][C:4]([H:10])([H:11])[O:5][C@:6]12[H:12]>>[C:1]([C@@:2]1([H:9])[O:3][C:4]([H:10])=[O+:5][C-:6]1[H:12])([H:7])([H:8])[H:11]"
C        0.99894630       0.57192517       0.53795103
C        0.42257030      -0.79823023       0.26571504
O       -0.96378351      -0.84137358       0.67887876
C       -1.54492091       0.16417353      -0.04188021
O       -0.99651045       0.18820367      -1.26977340
C        0.31638981      -0.28387425      -1.12663821
H        2.05262018       0.67271098       0.28350833
H        0.96279862       0.80733171       1.59976477
H        0.95445049      -1.70921893       0.50485461
H       -2.62463263       0.02766572      -0.09264880
H       -0.57645019       1.26947549       0.59225821
H        0.99852199      -0.06878927      -1.93199013
12
Frame=14 idx=000543 GeodesicLength=1.002382158804304 rxn_smarts="[C:1]1([H:7])([H:8])[C@:2]2([H:9])[O:3][C:4]([H:10])([H:11])[O:5][C@:6]12[H:12]>>[C:1]([C@@:2]1([H:9])[O:3][C:4]([H:10])=[O+:5][C-:6]1[H:12])([H:7])([H:8])[H:11]"
C        1.00740006       0.57042680       0.52631841
C        0.42020471      -0.79933097       0.26793071
O       -0.96715345      -0.83419818       0.68270860
C       -1.55205122       0.16173961      -0.04531696
O       -0.99943646       0.19299616      -1.26728446
C        0.32142543      -0.28305868      -1.12299770
H        2.06502687       0.65682931       0.28155874
H        0.97433371       0.80954436       1.58727405
H        0.95109865      -1.70986966       0.50915755
H       -2.62974455       0.00912084      -0.10347692
H       -0.59432009       1.28622499       0.61058122
H        1.00321633      -0.06042456      -1.92645325
12
Frame=15 idx=000543 GeodesicLength=1.074023065463071 rxn_smarts="[C:1]1([H:7])([H:8])[C@:2]2([H:9])[O:3][C:4]([H:10])([H:11])[O:5][C@:6]12[H:12]>>[C:1]([C@@:2]1([H:9])[O:3][C:4]([H:10])=[O+:5][C-:6]1[H:12])([H:7])([H:8])[H:11]"
C        1.01608869       0.56871218       0.51462741
C        0.41791804      -0.80036504       0.27008593
O       -0.97041319      -0.82686090       0.68647363
C       -1.55909477       0.15935557      -0.04874750
O       -1.00224980       0.19825394      -1.26469813
C        0.32648461      -0.28236857      -1.11945491
H        2.07738569       0.64079719       0.27963884
H        0.98554471       0.81204074       1.57456082
H        0.94773807      -1.71049363       0.51343806
H       -2.63443217      -0.00958607      -0.11441734
H       -0.61278364       1.30304424       0.62963704
H        1.00781377      -0.05252964      -1.92114386
12
Frame=16 idx=000543 GeodesicLength=1.1456561580013733 rxn_smarts="[C:1]1([H:7])([H:8])[C@:2]2([H:9])[O:3][C:4]([H:10])([H:11])[O:5][C@:6]12[H:12]>>[C:1]([C@@:2]1([H:9])[O:3][C:4]([H:10])=[O+:5][C-:6]1[H:12])([H:7])([H:8])[H:11]"
C        1.02502615       0.56677468       0.50286194
C        0.41570884      -0.80132923       0.27218266
O       -0.97356167      -0.81935105       0.69017786
C       -1.56605292       0.15702324      -0.05217527
O       -1.00494377       0.20399640      -1.26200500
C        0.33156666      -0.28181104      -1.11601360
H        2.08971436       0.62459554       0.27774978
H        0.99643940       0.81484704       1.56159793
H        0.94436112      -1.71109018       0.51770150
H       -2.63868200      -0.02845821      -0.12548709
H       -0.63190007       1.31991966       0.64948014
H        1.01232391      -0.04511686      -1.91607085
