12
Frame=0 idx=009144 GeodesicLength=0.0 rxn_smarts="[C:1]([c:2]1[c:3]([H:11])[o:4][c:5](=[O:6])[n:7]1[H:12])([H:8])([H:9])[H:10]>>[C:1]([C@:3]1([H:11])[C-:2]=[N+:7]([H:12])[C:5](=[O:6])[O:4]1)([H:8])([H:9])[H:10]"
C       -1.47027336      -0.01068484      -0.30995926
C        0.19372097       0.21176246      -1.03860847
C        0.02750151       1.05846962       0.04713886
O        0.79039718       0.74547716       1.12615627
C        1.48914634      -0.41321730       0.79241644
O        2.26522270      -0.94681818       1.51964605
N        1.07086184      -0.72480011      -0.47328479
H       -1.53341212      -1.00582358      -0.73540556
H       -1.67983979      -0.08706613       0.76168016
H       -2.16501036       0.65401438      -0.81016697
H       -0.45735491       2.02120297       0.08703137
H        1.46903997      -1.50251649      -0.96664410
12
Frame=1 idx=009144 GeodesicLength=0.044765672086970576 rxn_smarts="[C:1]([c:2]1[c:3]([H:11])[o:4][c:5](=[O:6])[n:7]1[H:12])([H:8])([H:9])[H:10]>>[C:1]([C@:3]1([H:11])[C-:2]=[N+:7]([H:12])[C:5](=[O:6])[O:4]1)([H:8])([H:9])[H:10]"
C       -1.48074389      -0.00944276      -0.31554882
C        0.19438476       0.20493443      -1.02757240
C        0.02184105       1.05121420       0.05868996
O        0.78705357       0.73324791       1.13868240
C        1.50938040      -0.40330942       0.79171670
O        2.30358503      -0.92723478       1.50652963
N        1.07289708      -0.72818071      -0.46680329
H       -1.55316452      -1.00187150      -0.74719665
H       -1.71181128      -0.09544053       0.75076770
H       -2.16400247       0.66407624      -0.82034395
H       -0.44137686       2.02485439       0.08777197
H        1.46195711      -1.51284746      -0.95669326
12
Frame=2 idx=009144 GeodesicLength=0.08786816061566703 rxn_smarts="[C:1]([c:2]1[c:3]([H:11])[o:4][c:5](=[O:6])[n:7]1[H:12])([H:8])([H:9])[H:10]>>[C:1]([C@:3]1([H:11])[C-:2]=[N+:7]([H:12])[C:5](=[O:6])[O:4]1)([H:8])([H:9])[H:10]"
C       -1.49079393      -0.00857267      -0.32017507
C        0.19459844       0.19797445      -1.01695860
C        0.01629548       1.04434158       0.06951561
O        0.78517949       0.72221020       1.14981028
C        1.52710994      -0.39438145       0.79137645
O        2.33795686      -0.90916639       1.49427291
N        1.07567569      -0.73080755      -0.46117770
H       -1.57253974      -0.99819550      -0.75794862
H       -1.74273527      -0.10371025       0.74046435
H       -2.16312054       0.67327317      -0.82905748
H       -0.42488356       2.02839027       0.08764471
H        1.45725713      -1.52135587      -0.94776684
12
Frame=3 idx=009144 GeodesicLength=0.1297716152465881 rxn_smarts="[C:1]([c:2]1[c:3]([H:11])[o:4][c:5](=[O:6])[n:7]1[H:12])([H:8])([H:9])[H:10]>>[C:1]([C@:3]1([H:11])[C-:2]=[N+:7]([H:12])[C:5](=[O:6])[O:4]1)([H:8])([H:9])[H:10]"
C       -1.50051051      -0.00801655      -0.32405284
C        0.19447149       0.19095573      -1.00663488
C        0.01082347       1.03779026       0.07982931
O        0.78444790       0.71216890       1.15989972
C        1.54287544      -0.38626924       0.79139722
O        2.36938646      -0.89216275       1.48264347
N        1.07910601      -0.73275413      -0.45626786
H       -1.59160868      -0.99467682      -0.76801324
H       -1.77291503      -0.11195021       0.73053095
H       -2.16232618       0.68177887      -0.83660018
H       -0.40791992       2.03173098       0.08684231
H        1.45416954      -1.52859505      -0.93957397
12
Frame=4 idx=009144 GeodesicLength=0.17073393934243905 rxn_smarts="[C:1]([c:2]1[c:3]([H:11])[o:4][c:5](=[O:6])[n:7]1[H:12])([H:8])([H:9])[H:10]>>[C:1]([C@:3]1([H:11])[C-:2]=[N+:7]([H:12])[C:5](=[O:6])[O:4]1)([H:8])([H:9])[H:10]"
C       -1.50988427      -0.00781103      -0.32721432
C        0.19405095       0.18399388      -0.99660617
C        0.00541436       1.03161971       0.08966181
O        0.78480256       0.70320326       1.16900768
C        1.55734861      -0.37852585       0.79151898
O        2.39771014      -0.87659006       1.47191081
N        1.08325007      -0.73388704      -0.45213291
H       -1.61029889      -0.99134374      -0.77745439
H       -1.80235238      -0.12026446       0.72094924
H       -2.16165764       0.68954467      -0.84301466
H       -0.39061807       2.03486806       0.08540302
H        1.45223456      -1.53480739      -0.93202909
12
Frame=5 idx=009144 GeodesicLength=0.2109403184669359 rxn_smarts="[C:1]([c:2]1[c:3]([H:11])[o:4][c:5](=[O:6])[n:7]1[H:12])([H:8])([H:9])[H:10]>>[C:1]([C@:3]1([H:11])[C-:2]=[N+:7]([H:12])[C:5](=[O:6])[O:4]1)([H:8])([H:9])[H:10]"
C       -1.51893057      -0.00796876      -0.32969262
C        0.19336900       0.17714121      -0.98687902
C        0.00005856       1.02586685       0.09904492
O        0.78615557       0.69532241       1.17721077
C        1.57094442      -0.37089708       0.79158327
O        2.42299482      -0.86266638       1.46225158
N        1.08810027      -0.73416352      -0.44878553
H       -1.62860458      -0.98820339      -0.78630180
H       -1.83111366      -0.12867762       0.71172117
H       -2.16113308       0.69657218      -0.84837492
H       -0.37306979       2.03779134       0.08332736
H        1.45122906      -1.54011725      -0.92510519
12
Frame=6 idx=009144 GeodesicLength=0.25032580945871785 rxn_smarts="[C:1]([c:2]1[c:3]([H:11])[o:4][c:5](=[O:6])[n:7]1[H:12])([H:8])([H:9])[H:10]>>[C:1]([C@:3]1([H:11])[C-:2]=[N+:7]([H:12])[C:5](=[O:6])[O:4]1)([H:8])([H:9])[H:10]"
C       -1.52742202      -0.00864944      -0.33138965
C        0.19252961       0.17074732      -0.97759169
C       -0.00517661       1.02075159       0.10781213
O        0.78881033       0.68899451       1.18419811
C        1.58405063      -0.36292112       0.79129498
O        2.44411543      -0.85140690       1.45424807
N        1.09407363      -0.73299381      -0.44663546
H       -1.64609211      -0.98543218      -0.79448715
H       -1.85868460      -0.13757947       0.70295858
H       -2.16082630       0.70253690      -0.85245853
H       -0.35561741       2.04066700       0.08062450
H        1.45023943      -1.54471440      -0.91857390
12
Frame=7 idx=009144 GeodesicLength=0.28923444943719445 rxn_smarts="[C:1]([c:2]1[c:3]([H:11])[o:4][c:5](=[O:6])[n:7]1[H:12])([H:8])([H:9])[H:10]>>[C:1]([C@:3]1([H:11])[C-:2]=[N+:7]([H:12])[C:5](=[O:6])[O:4]1)([H:8])([H:9])[H:10]"
C       -1.53563116      -0.00967844      -0.33254735
C        0.19152525       0.16455834      -0.96854487
C       -0.01035903       1.01604150       0.11626282
O        0.79225055       0.68360253       1.19047993
C        1.59697721      -0.35457245       0.79065731
O        2.46273166      -0.84183907       1.44733991
N        1.10072642      -0.73091851      -0.44524431
H       -1.66320600      -0.98279795      -0.80232088
H       -1.88573796      -0.14669976       0.69439120
H       -2.16065956       0.70786032      -0.85568090
H       -0.33808908       2.04328862       0.07747129
H        1.44947171      -1.54884513      -0.91226416
12
Frame=8 idx=009144 GeodesicLength=0.3278587659774749 rxn_smarts="[C:1]([c:2]1[c:3]([H:11])[o:4][c:5](=[O:6])[n:7]1[H:12])([H:8])([H:9])[H:10]>>[C:1]([C@:3]1([H:11])[C-:2]=[N+:7]([H:12])[C:5](=[O:6])[O:4]1)([H:8])([H:9])[H:10]"
C       -1.54365971      -0.01091677      -0.33348688
C        0.19048451       0.15854680      -0.95950472
C       -0.01553041       1.01152255       0.12469989
O        0.79607037       0.67858681       1.19652177
C        1.60967235      -0.34609807       0.78995933
O        2.48071011      -0.83249420       1.44055271
N        1.10788751      -0.72818565      -0.44432843
H       -1.68007973      -0.98004320      -0.81035741
H       -1.91270292      -0.15607526       0.68554028
H       -2.16047141       0.71289472      -0.85841265
H       -0.32039670       2.04550784       0.07433668
H        1.44801602      -1.55324557      -0.90552058
12
Frame=9 idx=009144 GeodesicLength=0.36632537060784826 rxn_smarts="[C:1]([c:2]1[c:3]([H:11])[o:4][c:5](=[O:6])[n:7]1[H:12])([H:8])([H:9])[H:10]>>[C:1]([C@:3]1([H:11])[C-:2]=[N+:7]([H:12])[C:5](=[O:6])[O:4]1)([H:8])([H:9])[H:10]"
C       -1.55164518      -0.01223782      -0.33443674
C        0.18945733       0.15256352      -0.95030291
C       -0.02071136       1.00698753       0.13335695
O        0.79994717       0.67342455       1.20268659
C        1.62205050      -0.33777694       0.78938371
O        2.49950287      -0.82218588       1.43307349
N        1.11532836      -0.72515106      -0.44361751
H       -1.69693022      -0.97694954      -0.81896509
H       -1.93998970      -0.16558631       0.67605926
H       -2.16012913       0.71795033      -0.86094785
H       -0.30242171       2.04713900       0.07153292
H        1.44554106      -1.55817740      -0.89782282
12
Frame=10 idx=009144 GeodesicLength=0.40454660243047 rxn_smarts="[C:1]([c:2]1[c:3]([H:11])[o:4][c:5](=[O:6])[n:7]1[H:12])([H:8])([H:9])[H:10]>>[C:1]([C@:3]1([H:11])[C-:2]=[N+:7]([H:12])[C:5](=[O:6])[O:4]1)([H:8])([H:9])[H:10]"
C       -1.55954792      -0.01373264      -0.33505793
C        0.18830673       0.14648773      -0.94107980
C       -0.02583942       1.00259461       0.14187255
O        0.80418350       0.66863163       1.20853243
C        1.63426058      -0.32934247       0.78871179
O        2.51737871      -0.81237801       1.42594065
N        1.12307907      -0.72173734      -0.44326789
H       -1.71374389      -0.97373589      -0.82750522
H       -1.96726970      -0.17508902       0.66640211
H       -2.15979090       0.72274442      -0.86298572
H       -0.28426625       2.04830684       0.06855100
H        1.44324950      -1.56274985      -0.89011398
12
Frame=11 idx=009144 GeodesicLength=0.44257893397639697 rxn_smarts="[C:1]([c:2]1[c:3]([H:11])[o:4][c:5](=[O:6])[n:7]1[H:12])([H:8])([H:9])[H:10]>>[C:1]([C@:3]1([H:11])[C-:2]=[N+:7]([H:12])[C:5](=[O:6])[O:4]1)([H:8])([H:9])[H:10]"
C       -1.56744693      -0.01536536      -0.33532356
C        0.18700197       0.14018973      -0.93180793
C       -0.03088364       0.99831789       0.15022233
O        0.80874120       0.66416290       1.21408123
C        1.64621783      -0.32093163       0.78801644
O        2.53443870      -0.80302798       1.41914286
N        1.13102652      -0.71810694      -0.44318489
H       -1.73066338      -0.97038058      -0.83588634
H       -1.99464861      -0.18442953       0.65660415
H       -2.15947286       0.72732853      -0.86457619
H       -0.26592005       2.04898067       0.06530572
H        1.44160925      -1.56673770      -0.88259383
12
Frame=12 idx=009144 GeodesicLength=0.48035040586641836 rxn_smarts="[C:1]([c:2]1[c:3]([H:11])[o:4][c:5](=[O:6])[n:7]1[H:12])([H:8])([H:9])[H:10]>>[C:1]([C@:3]1([H:11])[C-:2]=[N+:7]([H:12])[C:5](=[O:6])[O:4]1)([H:8])([H:9])[H:10]"
C       -1.57532757      -0.01714210      -0.33517911
C        0.18550527       0.13363225      -0.92247990
C       -0.03579519       0.99416553       0.15834781
O        0.81366372       0.66010867       1.21925835
C        1.65787489      -0.31251985       0.78728566
O        2.55041650      -0.79433258       1.41282353
N        1.13912234      -0.71424964      -0.44337804
H       -1.74768488      -0.96688687      -0.84401895
H       -2.02200244      -0.19358019       0.64671109
H       -2.15917420       0.73164737      -0.86566098
H       -0.24743013       2.04916377       0.06171844
H        1.44083169      -1.57000636      -0.87542791
12
Frame=13 idx=009144 GeodesicLength=0.5180259349917842 rxn_smarts="[C:1]([c:2]1[c:3]([H:11])[o:4][c:5](=[O:6])[n:7]1[H:12])([H:8])([H:9])[H:10]>>[C:1]([C@:3]1([H:11])[C-:2]=[N+:7]([H:12])[C:5](=[O:6])[O:4]1)([H:8])([H:9])[H:10]"
C       -1.58332898      -0.01897375      -0.33470376
C        0.18382841       0.12662729      -0.91297922
C       -0.04061886       0.99004190       0.16634379
O        0.81872653       0.65618493       1.22428604
C        1.66920815      -0.30432316       0.78668534
O        2.56611739      -0.78568111       1.40662891
N        1.14720928      -0.71046753      -0.44360254
H       -1.76501914      -0.96315766      -0.85197174
H       -2.04971924      -0.20231484       0.63660848
H       -2.15884549       0.73589678      -0.86645020
H       -0.22871570       2.04874342       0.05785519
H        1.44115767      -1.57257626      -0.86870031
12
Frame=14 idx=009144 GeodesicLength=0.5556282704332448 rxn_smarts="[C:1]([c:2]1[c:3]([H:11])[o:4][c:5](=[O:6])[n:7]1[H:12])([H:8])([H:9])[H:10]>>[C:1]([C@:3]1([H:11])[C-:2]=[N+:7]([H:12])[C:5](=[O:6])[O:4]1)([H:8])([H:9])[H:10]"
C       -1.59149448      -0.02081852      -0.33395437
C        0.18195474       0.11909771      -0.90321456
C       -0.04536374       0.98586228       0.17428049
O        0.82382275       0.65222722       1.22927977
C        1.68023565      -0.29634834       0.78625366
O        2.58194086      -0.77668864       1.40032701
N        1.15520107      -0.70686751      -0.44375196
H       -1.78272140      -0.95909783      -0.85985705
H       -2.07790676      -0.21056256       0.62616029
H       -2.15842433       0.74015879      -0.86701833
H       -0.20976275       2.04764225       0.05382827
H        1.44251840      -1.57460485      -0.86233322
12
Frame=15 idx=009144 GeodesicLength=0.5931572035919784 rxn_smarts="[C:1]([c:2]1[c:3]([H:11])[o:4][c:5](=[O:6])[n:7]1[H:12])([H:8])([H:9])[H:10]>>[C:1]([C@:3]1([H:11])[C-:2]=[N+:7]([H:12])[C:5](=[O:6])[O:4]1)([H:8])([H:9])[H:10]"
C       -1.59980691      -0.02270427      -0.33286792
C        0.17988264       0.11105181      -0.89321191
C       -0.05000170       0.98168130       0.18209529
O        0.82901867       0.64835042       1.23416492
C        1.69095554      -0.28858563       0.78597272
O        2.59758175      -0.76764095       1.39410750
N        1.16315100      -0.70337410      -0.44388771
H       -1.80074890      -0.95475440      -0.86755929
H       -2.10648843      -0.21829891       0.61544908
H       -2.15793642       0.74435704      -0.86732464
H       -0.19065128       2.04589830       0.04954405
H        1.44504405      -1.57598059      -0.85648209
12
Frame=16 idx=009144 GeodesicLength=0.6305838163319651 rxn_smarts="[C:1]([c:2]1[c:3]([H:11])[o:4][c:5](=[O:6])[n:7]1[H:12])([H:8])([H:9])[H:10]>>[C:1]([C@:3]1([H:11])[C-:2]=[N+:7]([H:12])[C:5](=[O:6])[O:4]1)([H:8])([H:9])[H:10]"
C       -1.60824195      -0.02465337      -0.33139792
C        0.17761115       0.10249309      -0.88297912
C       -0.05451572       0.97754160       0.18974369
O        0.83434845       0.64464167       1.23888957
C        1.70134912      -0.28104058       0.78583983
O        2.61282961      -0.75873362       1.38809617
N        1.17109488      -0.69992134      -0.44405655
H       -1.81904565      -0.95016704      -0.87498773
H       -2.13539840      -0.22549023       0.60452553
H       -2.15737974       0.74842583      -0.86734638
H       -0.17144759       2.04353452       0.04494386
H        1.44879584      -1.57663052      -0.85127096
