14
Frame=0 idx=011481 GeodesicLength=0.0 rxn_smarts="[C:1]([C@@:2]([C:3]#[N:4])([C:5](=[O:6])[C:7]([H:12])([H:13])[H:14])[H:11])([H:8])([H:9])[H:10]>>[C:1]([C@@:2]([C:3]#[N:4])([C-:5]=[O+:6][C:7]([H:12])([H:13])[H:14])[H:11])([H:8])([H:9])[H:10]"
C       -1.36519808      -0.64293182       0.38013956
C       -0.67166424       0.39604867      -0.50064679
C       -1.41845993       1.65309953      -0.53668989
N       -2.00711171       2.63790716      -0.53766722
C        0.78488079       0.78483957      -0.08766580
O        1.07479340       0.43502499       1.11536022
C        2.05995542      -0.47435834       0.05196886
H       -1.42989618      -0.29723743       1.41045125
H       -2.37209580      -0.84576639       0.01646607
H       -0.80159922      -1.57746848       0.37222351
H       -0.60861429       0.05069394      -1.53773374
H        2.11501971      -1.25329694       0.81567209
H        2.97767087       0.07075001      -0.10377211
H        1.66231926      -0.93730446      -0.85810605
14
Frame=1 idx=011481 GeodesicLength=0.08520952735946222 rxn_smarts="[C:1]([C@@:2]([C:3]#[N:4])([C:5](=[O:6])[C:7]([H:12])([H:13])[H:14])[H:11])([H:8])([H:9])[H:10]>>[C:1]([C@@:2]([C:3]#[N:4])([C-:5]=[O+:6][C:7]([H:12])([H:13])[H:14])[H:11])([H:8])([H:9])[H:10]"
C       -1.40101330      -0.63726882       0.39279842
C       -0.68633188       0.38337955      -0.49224101
C       -1.41085124       1.65295526      -0.54235626
N       -1.98211115       2.64770910      -0.56313966
C        0.77111673       0.74300805      -0.07445818
O        1.06185786       0.38257435       1.12166429
C        2.09536497      -0.46137639       0.04059173
H       -1.47086894      -0.28154042       1.41944229
H       -2.40843390      -0.82712819       0.02349355
H       -0.85022167      -1.57921996       0.39788251
H       -0.62379339       0.02921712      -1.52656116
H        2.17513436      -1.26260386       0.77823091
H        2.99609307       0.12043649      -0.08417989
H        1.73405849      -0.91014230      -0.89116754
14
Frame=2 idx=011481 GeodesicLength=0.16982751809746838 rxn_smarts="[C:1]([C@@:2]([C:3]#[N:4])([C:5](=[O:6])[C:7]([H:12])([H:13])[H:14])[H:11])([H:8])([H:9])[H:10]>>[C:1]([C@@:2]([C:3]#[N:4])([C-:5]=[O+:6][C:7]([H:12])([H:13])[H:14])[H:11])([H:8])([H:9])[H:10]"
C       -1.43910949      -0.63101151       0.40655232
C       -0.70166887       0.36847855      -0.48368214
C       -1.40083262       1.65154436      -0.54880935
N       -1.95248399       2.65665464      -0.58993350
C        0.75698829       0.69632123      -0.06193493
O        1.04864386       0.32321946       1.12650486
C        2.13192940      -0.44617225       0.02888183
H       -1.51216398      -0.26417087       1.42914687
H       -2.44749232      -0.80575853       0.03233017
H       -0.90380887      -1.58147741       0.42495317
H       -0.64066586       0.00430328      -1.51479020
H        2.23830814      -1.27030578       0.73694368
H        3.01233311       0.17361950      -0.06014819
H        1.81002321      -0.87524466      -0.92601458
14
Frame=3 idx=011481 GeodesicLength=0.2535308389221102 rxn_smarts="[C:1]([C@@:2]([C:3]#[N:4])([C:5](=[O:6])[C:7]([H:12])([H:13])[H:14])[H:11])([H:8])([H:9])[H:10]>>[C:1]([C@@:2]([C:3]#[N:4])([C-:5]=[O+:6][C:7]([H:12])([H:13])[H:14])[H:11])([H:8])([H:9])[H:10]"
C       -1.47942975      -0.62399589       0.42140155
C       -0.71771218       0.35108054      -0.47517956
C       -1.38796680       1.64860818      -0.55613975
N       -1.91762446       2.66442108      -0.61777571
C        0.74254664       0.64394975      -0.05075462
O        1.03522412       0.25606979       1.12911422
C        2.16944697      -0.42847939       0.01704123
H       -1.55314281      -0.24496038       1.43958380
H       -2.48927571      -0.78115496       0.04323457
H       -0.96267451      -1.58410886       0.45329935
H       -0.65971883      -0.02434359      -1.50260224
H        2.30490447      -1.27565521       0.69175487
H        3.02551995       0.23015602      -0.03105634
H        1.88990290      -0.83158707      -0.96192137
14
Frame=4 idx=011481 GeodesicLength=0.3359564592068693 rxn_smarts="[C:1]([C@@:2]([C:3]#[N:4])([C:5](=[O:6])[C:7]([H:12])([H:13])[H:14])[H:11])([H:8])([H:9])[H:10]>>[C:1]([C@@:2]([C:3]#[N:4])([C-:5]=[O+:6][C:7]([H:12])([H:13])[H:14])[H:11])([H:8])([H:9])[H:10]"
C       -1.52179810      -0.61601460       0.43738393
C       -0.73448176       0.33090214      -0.46697358
C       -1.37174792       1.64382650      -0.56443767
N       -1.87685629       2.67061719      -0.64652612
C        0.72784330       0.58494335      -0.04171732
O        1.02169515       0.18004094       1.12853579
C        2.20758485      -0.40799703       0.00532785
H       -1.59292695      -0.22374065       1.45081597
H       -2.53366747      -0.75271214       0.05658076
H       -1.02705660      -1.58691053       0.48278754
H       -0.68155883      -0.05700760      -1.49021104
H        2.37521834      -1.27779828       0.64256988
H        3.03454981       0.28978015       0.00387775
H        1.97320247      -0.77792946      -0.99801375
14
Frame=5 idx=011481 GeodesicLength=0.4167062484016773 rxn_smarts="[C:1]([C@@:2]([C:3]#[N:4])([C:5](=[O:6])[C:7]([H:12])([H:13])[H:14])[H:11])([H:8])([H:9])[H:10]>>[C:1]([C@@:2]([C:3]#[N:4])([C-:5]=[O+:6][C:7]([H:12])([H:13])[H:14])[H:11])([H:8])([H:9])[H:10]"
C       -1.56582417      -0.60685774       0.45444477
C       -0.75203914       0.30765522      -0.45952977
C       -1.35164582       1.63685360      -0.57376111
N       -1.82931574       2.67493421      -0.67548442
C        0.71294218       0.51808332      -0.03623362
O        1.00812326       0.09421625       1.12334139
C        2.24582716      -0.38446666      -0.00584443
H       -1.63021015      -0.20045726       1.46283908
H       -2.58035515      -0.71976699       0.07283529
H       -1.09696624      -1.58960874       0.51311539
H       -0.70714442      -0.09382035      -1.47810573
H        2.44954385      -1.27537469       0.58994497
H        3.03788510       0.35212762       0.04534098
H        2.05917926      -0.71351777      -1.03290281
14
Frame=6 idx=011481 GeodesicLength=0.4950978741095123 rxn_smarts="[C:1]([C@@:2]([C:3]#[N:4])([C:5](=[O:6])[C:7]([H:12])([H:13])[H:14])[H:11])([H:8])([H:9])[H:10]>>[C:1]([C@@:2]([C:3]#[N:4])([C-:5]=[O+:6][C:7]([H:12])([H:13])[H:14])[H:11])([H:8])([H:9])[H:10]"
C       -1.61069482      -0.59630642       0.47252326
C       -0.77033091       0.28120148      -0.45336638
C       -1.32712521       1.62735815      -0.58408539
N       -1.77437269       2.67695374      -0.70408854
C        0.69794609       0.44222307      -0.03600573
O        0.99465748      -0.00203782       1.11189706
C        2.28325629      -0.35772257      -0.01590567
H       -1.66319271      -0.17522468       1.47565689
H       -2.62854854      -0.68170495       0.09254071
H       -1.17188153      -1.59180632       0.54389799
H       -0.73752400      -0.13457538      -1.46686669
H        2.52767686      -1.26692853       0.53477671
H        3.03364224       0.41633853       0.09389841
H        2.14649145      -0.63776831      -1.06487263
14
Frame=7 idx=011481 GeodesicLength=0.5706603777150993 rxn_smarts="[C:1]([C@@:2]([C:3]#[N:4])([C:5](=[O:6])[C:7]([H:12])([H:13])[H:14])[H:11])([H:8])([H:9])[H:10]>>[C:1]([C@@:2]([C:3]#[N:4])([C-:5]=[O+:6][C:7]([H:12])([H:13])[H:14])[H:11])([H:8])([H:9])[H:10]"
C       -1.65536889      -0.58414398       0.49160284
C       -0.78929847       0.25132041      -0.44916028
C       -1.29748680       1.61492355      -0.59541681
N       -1.71082536       2.67635052      -0.73161672
C        0.68288018       0.35574225      -0.04331958
O        0.98136797      -0.10946771       1.09216414
C        2.31866245      -0.32754662      -0.02419777
H       -1.68963739      -0.14828847       1.48928247
H       -2.67721886      -0.63774821       0.11650719
H       -1.25111910      -1.59307237       0.57479262
H       -0.77412139      -0.17896024      -1.45724299
H        2.60938526      -1.25052986       0.47851035
H        3.01918237       0.48174087       0.15005556
H        2.23359804      -0.55032014      -1.09196102
14
Frame=8 idx=011481 GeodesicLength=0.6429198514779975 rxn_smarts="[C:1]([C@@:2]([C:3]#[N:4])([C:5](=[O:6])[C:7]([H:12])([H:13])[H:14])[H:11])([H:8])([H:9])[H:10]>>[C:1]([C@@:2]([C:3]#[N:4])([C-:5]=[O+:6][C:7]([H:12])([H:13])[H:14])[H:11])([H:8])([H:9])[H:10]"
C       -1.69824983      -0.57020373       0.51165879
C       -0.80871279       0.21784639      -0.44776782
C       -1.26183980       1.59910531      -0.60774535
N       -1.63705560       2.67283082      -0.75702015
C        0.66774683       0.25668386      -0.06122050
O        0.96831538      -0.22832054       1.06179917
C        2.35018233      -0.29376696      -0.02994071
H       -1.70667686      -0.12011474       1.50363600
H       -2.72466761      -0.58723340       0.14566981
H       -1.33332073      -1.59289695       0.60553499
H       -0.81861598      -0.22625619      -1.45017448
H        2.69377412      -1.22380411       0.42354618
H        2.99085134       0.54755845       0.21393588
H        2.31826921      -0.45142821      -1.11191180
14
Frame=9 idx=011481 GeodesicLength=0.71126745962969 rxn_smarts="[C:1]([C@@:2]([C:3]#[N:4])([C:5](=[O:6])[C:7]([H:12])([H:13])[H:14])[H:11])([H:8])([H:9])[H:10]>>[C:1]([C@@:2]([C:3]#[N:4])([C-:5]=[O+:6][C:7]([H:12])([H:13])[H:14])[H:11])([H:8])([H:9])[H:10]"
C       -1.73673663      -0.55479202       0.53203876
C       -0.82779296       0.18118545      -0.45017404
C       -1.21928398       1.57981374      -0.62066859
N       -1.55117465       2.66669301      -0.77698022
C        0.65255511       0.14356481      -0.09309319
O        0.95558221      -0.35603312       1.01927735
C        2.37467765      -0.25675878      -0.03226919
H       -1.71119604      -0.09212257       1.51799349
H       -2.76787264      -0.53058291       0.17997729
H       -1.41531177      -1.59092313       0.63521461
H       -0.87211132      -0.27423103      -1.44687348
H        2.77885714      -1.18312996       0.37597365
H        2.94375438       0.61329493       0.28164581
H        2.39605348      -0.34597842      -1.12206225
14
Frame=10 idx=011481 GeodesicLength=0.7765498944562823 rxn_smarts="[C:1]([C@@:2]([C:3]#[N:4])([C:5](=[O:6])[C:7]([H:12])([H:13])[H:14])[H:11])([H:8])([H:9])[H:10]>>[C:1]([C@@:2]([C:3]#[N:4])([C-:5]=[O+:6][C:7]([H:12])([H:13])[H:14])[H:11])([H:8])([H:9])[H:10]"
C       -1.76754076      -0.53802842       0.55278282
C       -0.84461173       0.14201171      -0.45628914
C       -1.16903651       1.55663332      -0.63444777
N       -1.45241106       2.65681380      -0.79267444
C        0.63756756       0.01760541      -0.13961889
O        0.94347803      -0.49023295       0.96473868
C        2.38791528      -0.21709388      -0.03105431
H       -1.70055808      -0.06499710       1.53189978
H       -2.80277546      -0.46895429       0.21924132
H       -1.49292012      -1.58646118       0.66456916
H       -0.93302773      -0.32109654      -1.44686513
H        2.85855548      -1.12861114       0.33687975
H        2.87395358       0.67591861       0.35268917
H        2.46141152      -0.23350736      -1.12185099
14
Frame=11 idx=011481 GeodesicLength=0.8420729785025378 rxn_smarts="[C:1]([C@@:2]([C:3]#[N:4])([C:5](=[O:6])[C:7]([H:12])([H:13])[H:14])[H:11])([H:8])([H:9])[H:10]>>[C:1]([C@@:2]([C:3]#[N:4])([C-:5]=[O+:6][C:7]([H:12])([H:13])[H:14])[H:11])([H:8])([H:9])[H:10]"
C       -1.78717336      -0.52021689       0.57354180
C       -0.85644575       0.10255724      -0.46499290
C       -1.11304462       1.53008722      -0.65020816
N       -1.34571246       2.64213290      -0.80785743
C        0.62353646      -0.11290616      -0.19652474
O        0.93269606      -0.62660518       0.90092238
C        2.38622160      -0.17698384      -0.02641438
H       -1.67373354      -0.03967869       1.54475389
H       -2.82509404      -0.40479995       0.26196067
H       -1.56034333      -1.57895015       0.69348278
H       -0.99550178      -0.36455693      -1.44832314
H        2.92536062      -1.06419988       0.30453082
H        2.78279049       0.72875937       0.42624285
H        2.50644364      -0.11463905      -1.11111443
14
Frame=12 idx=011481 GeodesicLength=0.9113639253315388 rxn_smarts="[C:1]([C@@:2]([C:3]#[N:4])([C:5](=[O:6])[C:7]([H:12])([H:13])[H:14])[H:11])([H:8])([H:9])[H:10]>>[C:1]([C@@:2]([C:3]#[N:4])([C-:5]=[O+:6][C:7]([H:12])([H:13])[H:14])[H:11])([H:8])([H:9])[H:10]"
C       -1.79409073      -0.50223618       0.59331293
C       -0.86204656       0.06621874      -0.47494988
C       -1.05707376       1.50234488      -0.66868055
N       -1.24093936       2.62360993      -0.82491139
C        0.61132916      -0.23477155      -0.25721473
O        0.92371354      -0.75719472       0.83202424
C        2.36987793      -0.14017086      -0.01880581
H       -1.63310710      -0.01724329       1.55558836
H       -2.83294756      -0.34261596       0.30543108
H       -1.61224012      -1.56855696       0.72083849
H       -1.05284664      -0.40222443      -1.44939896
H        2.97401646      -0.99680090       0.27800711
H        2.67902234       0.76542743       0.49931592
H        2.52733240       0.00421388      -1.09055681
14
Frame=13 idx=011481 GeodesicLength=0.9827340912433636 rxn_smarts="[C:1]([C@@:2]([C:3]#[N:4])([C:5](=[O:6])[C:7]([H:12])([H:13])[H:14])[H:11])([H:8])([H:9])[H:10]>>[C:1]([C@@:2]([C:3]#[N:4])([C-:5]=[O+:6][C:7]([H:12])([H:13])[H:14])[H:11])([H:8])([H:9])[H:10]"
C       -1.78983737      -0.48472149       0.61166537
C       -0.86263640       0.03565761      -0.48515896
C       -1.00761369       1.47632370      -0.68949608
N       -1.14988225       2.60332909      -0.84734602
C        0.60152929      -0.33767499      -0.31659467
O        0.91642996      -0.87465271       0.76172058
C        2.34389239      -0.10967943      -0.00882892
H       -1.58398794       0.00280062       1.56411448
H       -2.82830444      -0.28692489       0.34729993
H       -1.64660836      -1.55576812       0.74685116
H       -1.10162386      -0.43338952      -1.44915606
H        3.00406260      -0.93528771       0.25391580
H        2.57622305       0.78148075       0.57216318
H        2.52835702       0.11850710      -1.06114978
14
Frame=14 idx=011481 GeodesicLength=1.0547335061943401 rxn_smarts="[C:1]([C@@:2]([C:3]#[N:4])([C:5](=[O:6])[C:7]([H:12])([H:13])[H:14])[H:11])([H:8])([H:9])[H:10]>>[C:1]([C@@:2]([C:3]#[N:4])([C-:5]=[O+:6][C:7]([H:12])([H:13])[H:14])[H:11])([H:8])([H:9])[H:10]"
C       -1.77790892      -0.46831917       0.62804964
C       -0.85996711       0.01073051      -0.49532085
C       -0.96531290       1.45335511      -0.71115164
N       -1.07366429       2.58370408      -0.87162947
C        0.59362233      -0.42298414      -0.37327191
O        0.91040847      -0.97666653       0.69291792
C        2.31271602      -0.08557385       0.00249773
H       -1.53119035       0.02059936       1.57006330
H       -2.81517995      -0.23856759       0.38604874
H       -1.66643280      -1.54193781       0.77096591
H       -1.14273688      -0.45840178      -1.44787773
H        3.02068345      -0.87988518       0.23470365
H        2.47916549       0.78253085       0.63969849
H        2.51579743       0.22141614      -1.02569379
14
Frame=15 idx=011481 GeodesicLength=1.1263884603507346 rxn_smarts="[C:1]([C@@:2]([C:3]#[N:4])([C:5](=[O:6])[C:7]([H:12])([H:13])[H:14])[H:11])([H:8])([H:9])[H:10]>>[C:1]([C@@:2]([C:3]#[N:4])([C-:5]=[O+:6][C:7]([H:12])([H:13])[H:14])[H:11])([H:8])([H:9])[H:10]"
C       -1.76055871      -0.45273426       0.64295995
C       -0.85531211      -0.00953566      -0.50542134
C       -0.92944027       1.43340199      -0.73333455
N       -1.01186437       2.56517577      -0.89874086
C        0.58716318      -0.49370129      -0.42770176
O        0.90508149      -1.06576495       0.62530063
C        2.27898939      -0.06686871       0.01488468
H       -1.47628510       0.03696434       1.57397470
H       -2.79625502      -0.19611532       0.42252397
H       -1.67506942      -1.52745274       0.79374225
H       -1.17805312      -0.47878867      -1.44565194
H        3.02771449      -0.83069697       0.21903247
H        2.38905944       0.77148989       0.70339746
H        2.49483012       0.31462658      -0.98496565
14
Frame=16 idx=011481 GeodesicLength=1.1981379101888814 rxn_smarts="[C:1]([C@@:2]([C:3]#[N:4])([C:5](=[O:6])[C:7]([H:12])([H:13])[H:14])[H:11])([H:8])([H:9])[H:10]>>[C:1]([C@@:2]([C:3]#[N:4])([C-:5]=[O+:6][C:7]([H:12])([H:13])[H:14])[H:11])([H:8])([H:9])[H:10]"
C       -1.73935250      -0.43777274       0.65663567
C       -0.84934438      -0.02634193      -0.51550951
C       -0.89850956       1.41591237      -0.75592801
N       -0.96125771       2.54792196      -0.92793446
C        0.58169389      -0.55358366      -0.48026353
O        0.90022513      -1.14429597       0.55907790
C        2.24374563      -0.05240579       0.02803887
H       -1.42020200       0.05256945       1.57599939
H       -2.77325401      -0.15825653       0.45699842
H       -1.67517057      -1.51258753       0.81561904
H       -1.20905989      -0.49590257      -1.44259287
H        3.02811471      -0.78617206       0.20605361
H        2.30493317       0.75131795       0.76356364
H        2.46743810       0.39959705      -0.93975816
