14
Frame=0 idx=006029 GeodesicLength=0.0 rxn_smarts="[C:1]1([H:7])([H:8])[C:2]([H:9])([H:10])[C:3]([H:11])=[C:4]([H:12])[C:5]([H:13])([H:14])[O:6]1>>[C:1]1([H:7])([H:8])[C:2]([H:9])([H:10])[C:3]([H:11])=[C:4]([H:12])[C-:5]=[O+:6]1.[H:13][H:14]"
C       -0.93522121      -0.91368994      -0.35112909
C       -1.36358975       0.46092241       0.10660191
C       -0.15056846       1.33649673       0.20005982
C        1.05712631       0.77643996       0.29205732
C        1.19032835      -0.63492886       0.65398818
O        0.14048591      -1.40904553       0.47489990
H       -1.72712273      -1.65549428      -0.27048056
H       -0.56773306      -0.88179079      -1.38276630
H       -2.07336405       0.86749756      -0.61851196
H       -1.88968061       0.40781199       1.06634652
H       -0.27507570       2.41340069       0.19730695
H        1.96784137       1.36359230       0.30420971
H        2.30844812      -1.14497610       0.09467610
H        2.31812553      -0.98623617      -0.76725852
14
Frame=1 idx=006029 GeodesicLength=0.04848972292683122 rxn_smarts="[C:1]1([H:7])([H:8])[C:2]([H:9])([H:10])[C:3]([H:11])=[C:4]([H:12])[C:5]([H:13])([H:14])[O:6]1>>[C:1]1([H:7])([H:8])[C:2]([H:9])([H:10])[C:3]([H:11])=[C:4]([H:12])[C-:5]=[O+:6]1.[H:13][H:14]"
C       -0.94102715      -0.91188240      -0.35385734
C       -1.36700250       0.46200973       0.10883515
C       -0.15355905       1.33722275       0.19926738
C        1.05507424       0.77861108       0.28406651
C        1.19266346      -0.63619684       0.63431139
O        0.13814987      -1.40928878       0.46522985
H       -1.73321616      -1.65318038      -0.27053087
H       -0.58052369      -0.87784431      -1.38794437
H       -2.08009920       0.87098336      -0.61167432
H       -1.88835518       0.40712489       1.07105276
H       -0.27896156       2.41412337       0.20073317
H        1.96388602       1.36868798       0.29971069
H        2.33802862      -1.15198084       0.11603311
H        2.33494228      -0.99838961      -0.75523311
14
Frame=2 idx=006029 GeodesicLength=0.09691962581912658 rxn_smarts="[C:1]1([H:7])([H:8])[C:2]([H:9])([H:10])[C:3]([H:11])=[C:4]([H:12])[C:5]([H:13])([H:14])[O:6]1>>[C:1]1([H:7])([H:8])[C:2]([H:9])([H:10])[C:3]([H:11])=[C:4]([H:12])[C-:5]=[O+:6]1.[H:13][H:14]"
C       -0.94696206      -0.91004197      -0.35669158
C       -1.37042106       0.46307176       0.11117947
C       -0.15654751       1.33790493       0.19851092
C        1.05300295       0.78074754       0.27577424
C        1.19515269      -0.63757782       0.61360965
O        0.13580986      -1.40948815       0.45522749
H       -1.73938886      -1.65086234      -0.27056746
H       -0.59366838      -0.87376389      -1.39324647
H       -2.08692241       0.87452733      -0.60454574
H       -1.88688991       0.40630856       1.07591086
H       -0.28281191       2.41478842       0.20437122
H        1.95992404       1.37369478       0.29479782
H        2.36706460      -1.15844743       0.13819536
H        2.35265796      -1.01086172      -0.74252577
14
Frame=3 idx=006029 GeodesicLength=0.1452406567518305 rxn_smarts="[C:1]1([H:7])([H:8])[C:2]([H:9])([H:10])[C:3]([H:11])=[C:4]([H:12])[C:5]([H:13])([H:14])[O:6]1>>[C:1]1([H:7])([H:8])[C:2]([H:9])([H:10])[C:3]([H:11])=[C:4]([H:12])[C-:5]=[O+:6]1.[H:13][H:14]"
C       -0.95301280      -0.90817672      -0.35962037
C       -1.37382148       0.46409826       0.11363470
C       -0.15951584       1.33853496       0.19779958
C        1.05091547       0.78284839       0.26720466
C        1.19778040      -0.63906058       0.59181104
O        0.13348076      -1.40963600       0.44488712
H       -1.74561689      -1.64855575      -0.27056765
H       -0.60717065      -0.86955660      -1.39865176
H       -2.09379353       0.87811510      -0.59712752
H       -1.88526745       0.40535299       1.08090597
H       -0.28659761       2.41538527       0.20819032
H        1.95596423       1.37860670       0.28951256
H        2.39543174      -1.16436607       0.16117986
H        2.37122363      -1.02358996      -0.72915851
14
Frame=4 idx=006029 GeodesicLength=0.1933678593673975 rxn_smarts="[C:1]1([H:7])([H:8])[C:2]([H:9])([H:10])[C:3]([H:11])=[C:4]([H:12])[C:5]([H:13])([H:14])[O:6]1>>[C:1]1([H:7])([H:8])[C:2]([H:9])([H:10])[C:3]([H:11])=[C:4]([H:12])[C-:5]=[O+:6]1.[H:13][H:14]"
C       -0.95915789      -0.90629406      -0.36262647
C       -1.37718668       0.46508269       0.11619856
C       -0.16245412       1.33910916       0.19713131
C        1.04882243       0.78491706       0.25838500
C        1.20054263      -0.64063011       0.56880902
O        0.13120693      -1.40971561       0.43421535
H       -1.75186216      -1.64627604      -0.27048277
H       -0.62103513      -0.86523161      -1.40414813
H       -2.10068831       0.88173374      -0.58943436
H       -1.88347998       0.40425686       1.08603310
H       -0.29031109       2.41591043       0.21214167
H        1.95202555       1.38342489       0.28396145
H        2.42296360      -1.16976308       0.18498462
H        2.39061423      -1.03652432      -0.71516836
14
Frame=5 idx=006029 GeodesicLength=0.24122591101261676 rxn_smarts="[C:1]1([H:7])([H:8])[C:2]([H:9])([H:10])[C:3]([H:11])=[C:4]([H:12])[C:5]([H:13])([H:14])[O:6]1>>[C:1]1([H:7])([H:8])[C:2]([H:9])([H:10])[C:3]([H:11])=[C:4]([H:12])[C-:5]=[O+:6]1.[H:13][H:14]"
C       -0.96540401      -0.90440744      -0.36570905
C       -1.38053614       0.46603136       0.11887711
C       -0.16534768       1.33962049       0.19651439
C        1.04676962       0.78693715       0.24934854
C        1.20357246      -0.64233635       0.54446267
O        0.12904827      -1.40973027       0.42321865
H       -1.75814802      -1.64403603      -0.27027330
H       -0.63529154      -0.86081987      -1.40978014
H       -2.10764667       0.88539403      -0.58149018
H       -1.88157001       0.40304652       1.09132515
H       -0.29394444       2.41636369       0.21617428
H        1.94815131       1.38813396       0.27822588
H        2.44953194      -1.17460120       0.20966609
H        2.41081491      -1.04959601      -0.70056009
14
Frame=6 idx=006029 GeodesicLength=0.28924134540738083 rxn_smarts="[C:1]1([H:7])([H:8])[C:2]([H:9])([H:10])[C:3]([H:11])=[C:4]([H:12])[C:5]([H:13])([H:14])[O:6]1>>[C:1]1([H:7])([H:8])[C:2]([H:9])([H:10])[C:3]([H:11])=[C:4]([H:12])[C-:5]=[O+:6]1.[H:13][H:14]"
C       -0.97172042      -0.90252673      -0.36881549
C       -1.38377029       0.46691654       0.12164644
C       -0.16816471       1.34005785       0.19598083
C        1.04468349       0.78892971       0.24019101
C        1.20673352      -0.64413516       0.51885682
O        0.12687897      -1.40964728       0.41191707
H       -1.76439566      -1.64185654      -0.26995299
H       -0.64988308      -0.85634377      -1.41537862
H       -2.11445070       0.88903419      -0.57330672
H       -1.87945480       0.40170270       1.09664089
H       -0.29740831       2.41672175       0.22021805
H        1.94421985       1.39276490       0.27239195
H        2.47522167      -1.17890881       0.23507356
H        2.43151050      -1.06270934      -0.68546280
14
Frame=7 idx=006029 GeodesicLength=0.3371701031273315 rxn_smarts="[C:1]1([H:7])([H:8])[C:2]([H:9])([H:10])[C:3]([H:11])=[C:4]([H:12])[C:5]([H:13])([H:14])[O:6]1>>[C:1]1([H:7])([H:8])[C:2]([H:9])([H:10])[C:3]([H:11])=[C:4]([H:12])[C-:5]=[O+:6]1.[H:13][H:14]"
C       -0.97810908      -0.90066064      -0.37196025
C       -1.38695513       0.46775457       0.12452131
C       -0.17091338       1.34042794       0.19549727
C        1.04265008       0.79088143       0.23090585
C        1.21013947      -0.64602539       0.49177578
O        0.12486259      -1.40946469       0.40030753
H       -1.77062552      -1.63975085      -0.26944103
H       -0.66486809      -0.85181917      -1.42106064
H       -2.12125611       0.89267993      -0.56490611
H       -1.87720690       0.40025730       1.10208986
H       -0.30076277       2.41700556       0.22424146
H        1.94037201       1.39729089       0.26658030
H        2.49978632      -1.18271288       0.26129288
H        2.45288650      -1.07586400      -0.66984422
14
Frame=8 idx=006029 GeodesicLength=0.3849686107286383 rxn_smarts="[C:1]1([H:7])([H:8])[C:2]([H:9])([H:10])[C:3]([H:11])=[C:4]([H:12])[C:5]([H:13])([H:14])[O:6]1>>[C:1]1([H:7])([H:8])[C:2]([H:9])([H:10])[C:3]([H:11])=[C:4]([H:12])[C-:5]=[O+:6]1.[H:13][H:14]"
C       -0.98450341      -0.89883475      -0.37504465
C       -1.39006077       0.46855363       0.12741367
C       -0.17358217       1.34072623       0.19507667
C        1.04063501       0.79277450       0.22172487
C        1.21357814      -0.64796705       0.46361966
O        0.12292823      -1.40917508       0.38865769
H       -1.77677676      -1.63772111      -0.26868752
H       -0.68004990      -0.84734804      -1.42666371
H       -2.12791193       0.89629578      -0.55650375
H       -1.87492339       0.39879464       1.10750347
H       -0.30398003       2.41721460       0.22813176
H        1.93660876       1.40167511       0.26113030
H        2.52346643      -1.18596702       0.28762707
H        2.47457180      -1.08902144      -0.65398552
14
Frame=9 idx=006029 GeodesicLength=0.4324785276593572 rxn_smarts="[C:1]1([H:7])([H:8])[C:2]([H:9])([H:10])[C:3]([H:11])=[C:4]([H:12])[C:5]([H:13])([H:14])[O:6]1>>[C:1]1([H:7])([H:8])[C:2]([H:9])([H:10])[C:3]([H:11])=[C:4]([H:12])[C-:5]=[O+:6]1.[H:13][H:14]"
C       -0.99096928      -0.89700957      -0.37825876
C       -1.39301659       0.46924829       0.13052108
C       -0.17611773       1.34093635       0.19462215
C        1.03869493       0.79463444       0.21213893
C        1.21739128      -0.64996598       0.43334880
O        0.12128420      -1.40875615       0.37626865
H       -1.78283175      -1.63580651      -0.26773839
H       -0.69586930      -0.84269929      -1.43244955
H       -2.13459208       0.89988966      -0.54754252
H       -1.87217984       0.39706150       1.11321253
H       -0.30701700       2.41731836       0.23199860
H        1.93285604       1.40598573       0.25552879
H        2.54533898      -1.18869426       0.31547641
H        2.49702815      -1.10214259      -0.63712671
14
Frame=10 idx=006029 GeodesicLength=0.47993875117523094 rxn_smarts="[C:1]1([H:7])([H:8])[C:2]([H:9])([H:10])[C:3]([H:11])=[C:4]([H:12])[C:5]([H:13])([H:14])[O:6]1>>[C:1]1([H:7])([H:8])[C:2]([H:9])([H:10])[C:3]([H:11])=[C:4]([H:12])[C-:5]=[O+:6]1.[H:13][H:14]"
C       -0.99749141      -0.89520007      -0.38155271
C       -1.39586568       0.46986154       0.13379324
C       -0.17853808       1.34107314       0.19411203
C        1.03684906       0.79645404       0.20227196
C        1.22146709      -0.65196147       0.40111712
O        0.11996373      -1.40818436       0.36330015
H       -1.78877926      -1.63401101      -0.26652018
H       -0.71226364      -0.83795681      -1.43838522
H       -2.14132693       0.90344920      -0.53817418
H       -1.86909202       0.39514952       1.11917851
H       -0.30991342       2.41734093       0.23577419
H        1.92920410       1.41018691       0.25009145
H        2.56559299      -1.19091416       0.34443330
H        2.52019346      -1.11528740      -0.61943966
14
Frame=11 idx=006029 GeodesicLength=0.5274562411508632 rxn_smarts="[C:1]1([H:7])([H:8])[C:2]([H:9])([H:10])[C:3]([H:11])=[C:4]([H:12])[C:5]([H:13])([H:14])[O:6]1>>[C:1]1([H:7])([H:8])[C:2]([H:9])([H:10])[C:3]([H:11])=[C:4]([H:12])[C-:5]=[O+:6]1.[H:13][H:14]"
C       -1.00397346      -0.89343763      -0.38482035
C       -1.39851291       0.47037575       0.13714934
C       -0.18080902       1.34112690       0.19352811
C        1.03504299       0.79822878       0.19233437
C        1.22556579      -0.65387784       0.36711761
O        0.11891706      -1.40743040       0.34993161
H       -1.79448919      -1.63237025      -0.26493989
H       -0.72906696      -0.83319746      -1.44426238
H       -2.14788175       0.90691196      -0.52855296
H       -1.86565556       0.39308842       1.12520798
H       -0.31260810       2.41727058       0.23933726
H        1.92563099       1.41424296       0.24516668
H        2.58415812      -1.19259472       0.37406400
H        2.54368198      -1.12833705      -0.60126139
14
Frame=12 idx=006029 GeodesicLength=0.5749994288527474 rxn_smarts="[C:1]1([H:7])([H:8])[C:2]([H:9])([H:10])[C:3]([H:11])=[C:4]([H:12])[C:5]([H:13])([H:14])[O:6]1>>[C:1]1([H:7])([H:8])[C:2]([H:9])([H:10])[C:3]([H:11])=[C:4]([H:12])[C-:5]=[O+:6]1.[H:13][H:14]"
C       -1.01045533      -0.89168720      -0.38822739
C       -1.40096226       0.47075682       0.14073142
C       -0.18291158       1.34110175       0.19281036
C        1.03336437       0.79997522       0.18191042
C        1.22995208      -0.65567420       0.33075884
O        0.11836999      -1.40647535       0.33566845
H       -1.79994813      -1.63090906      -0.26306318
H       -0.74656984      -0.82826192      -1.45034336
H       -2.15448918       0.91029699      -0.51830923
H       -1.86162799       0.39071199       1.13159402
H       -0.31512483       2.41710027       0.24293158
H        1.92217782       1.41818397       0.24020981
H        2.60045257      -1.19372070       0.40522728
H        2.56777231      -1.14139860      -0.58189903
14
Frame=13 idx=006029 GeodesicLength=0.6215524194050835 rxn_smarts="[C:1]1([H:7])([H:8])[C:2]([H:9])([H:10])[C:3]([H:11])=[C:4]([H:12])[C:5]([H:13])([H:14])[O:6]1>>[C:1]1([H:7])([H:8])[C:2]([H:9])([H:10])[C:3]([H:11])=[C:4]([H:12])[C-:5]=[O+:6]1.[H:13][H:14]"
C       -1.01689477      -0.88993691      -0.39191310
C       -1.40309428       0.47092485       0.14467599
C       -0.18476397       1.34097207       0.19188001
C        1.03188288       0.80168713       0.17058244
C        1.23472423      -0.65723845       0.29139494
O        0.11856049      -1.40528782       0.31998572
H       -1.80500994      -1.62968845      -0.26091826
H       -0.76501544      -0.82300405      -1.45678785
H       -2.16121794       0.91356114      -0.50703271
H       -1.85661157       0.38779212       1.13856641
H       -0.31739251       2.41678473       0.24674252
H        1.91889937       1.42198522       0.23478001
H        2.61344700      -1.19409621       0.43843037
H        2.59248644      -1.15445537      -0.56038649
14
Frame=14 idx=006029 GeodesicLength=0.6683202176717328 rxn_smarts="[C:1]1([H:7])([H:8])[C:2]([H:9])([H:10])[C:3]([H:11])=[C:4]([H:12])[C:5]([H:13])([H:14])[O:6]1>>[C:1]1([H:7])([H:8])[C:2]([H:9])([H:10])[C:3]([H:11])=[C:4]([H:12])[C-:5]=[O+:6]1.[H:13][H:14]"
C       -1.02317723      -0.88822674      -0.39569912
C       -1.40488794       0.47089907       0.14883086
C       -0.18637610       1.34076017       0.19072149
C        1.03056260       0.80338058       0.15876496
C        1.23972264      -0.65850774       0.24954608
O        0.11942567      -1.40380406       0.30333552
H       -1.80955355      -1.62873630      -0.25835879
H       -0.78408373      -0.81758189      -1.46333470
H       -2.16785023       0.91663387      -0.49511256
H       -1.85081640       0.38447743       1.14585276
H       -0.31941527       2.41635138       0.25051157
H        1.91578069       1.42562703       0.22959077
H        2.62346048      -1.19383705       0.47297852
H        2.61720837      -1.16743575      -0.53762735
14
Frame=15 idx=006029 GeodesicLength=0.7148116963143845 rxn_smarts="[C:1]1([H:7])([H:8])[C:2]([H:9])([H:10])[C:3]([H:11])=[C:4]([H:12])[C:5]([H:13])([H:14])[O:6]1>>[C:1]1([H:7])([H:8])[C:2]([H:9])([H:10])[C:3]([H:11])=[C:4]([H:12])[C-:5]=[O+:6]1.[H:13][H:14]"
C       -1.02918414      -0.88656630      -0.39968016
C       -1.40623625       0.47061342       0.15327885
C       -0.18767198       1.34045380       0.18938676
C        1.02947633       0.80505147       0.14631570
C        1.24505887      -0.65936799       0.20519515
O        0.12115227      -1.40200143       0.28545873
H       -1.81339682      -1.62812463      -0.25551226
H       -0.80373446      -0.81194036      -1.47005848
H       -2.17437414       0.91944942      -0.48233919
H       -1.84401976       0.38061453       1.15356508
H       -0.32112750       2.41577779       0.25441342
H        1.91290571       1.42912120       0.22408822
H        2.62965112      -1.19282685       0.50905128
H        2.64150077      -1.18025407      -0.51316310
14
Frame=16 idx=006029 GeodesicLength=0.7611904064057456 rxn_smarts="[C:1]1([H:7])([H:8])[C:2]([H:9])([H:10])[C:3]([H:11])=[C:4]([H:12])[C:5]([H:13])([H:14])[O:6]1>>[C:1]1([H:7])([H:8])[C:2]([H:9])([H:10])[C:3]([H:11])=[C:4]([H:12])[C-:5]=[O+:6]1.[H:13][H:14]"
C       -1.03476307      -0.88495214      -0.40386152
C       -1.40707823       0.47002852       0.15801259
C       -0.18862549       1.34005133       0.18796157
C        1.02864916       0.80670256       0.13332181
C        1.25074964      -0.65974381       0.15880943
O        0.12381626      -1.39986255       0.26642523
H       -1.81635857      -1.62788461      -0.25248633
H       -0.82369635      -0.80602444      -1.47691654
H       -2.18069516       0.92196426      -0.46874828
H       -1.83621450       0.37610453       1.16166074
H       -0.32252315       2.41505451       0.25855901
H        1.91031027       1.43251889       0.21788212
H        2.63172217      -1.19102393       0.54644111
H        2.66470702      -1.19293311      -0.48706094
