11
Frame=0 idx=001763 GeodesicLength=0.0 rxn_smarts="[N:1]([c:2]1[c:3]([H:9])[n:4]([H:10])[n:5][c:6]1[H:11])([H:7])[H:8]>>[N:1]([C:2]1=[C:6]([H:11])[C@:3]1([N:4]([N:5])[H:10])[H:9])([H:7])[H:8]"
N       -1.84971326      -0.61726797       0.02692829
C       -0.67359878       0.09340504      -0.02342272
C        0.60402766      -0.48387417      -0.45187532
N        1.76668342      -0.08776363       0.20144770
N        1.99514142       1.05167948       0.59052070
C       -0.21987916       1.29712138      -0.02266581
H       -2.66124502      -0.10733935       0.33264441
H       -1.76007930      -1.53394227       0.43562185
H        0.69769880      -1.09351430      -1.34350682
H        2.39368907      -0.87031537       0.44221029
H       -0.29272485       2.35181117      -0.18790258
11
Frame=1 idx=001763 GeodesicLength=0.05437064301110563 rxn_smarts="[N:1]([c:2]1[c:3]([H:9])[n:4]([H:10])[n:5][c:6]1[H:11])([H:7])[H:8]>>[N:1]([C:2]1=[C:6]([H:11])[C@:3]1([N:4]([N:5])[H:10])[H:9])([H:7])[H:8]"
N       -1.85147049      -0.61237707       0.03236949
C       -0.67086100       0.08941684      -0.02797430
C        0.60459003      -0.47793605      -0.46327469
N        1.76004033      -0.09234116       0.21287973
N        1.95865819       1.04257518       0.63709314
C       -0.20571955       1.29267330      -0.03521535
H       -2.65328634      -0.09663822       0.35375723
H       -1.76356945      -1.53060760       0.43780379
H        0.70558827      -1.09499562      -1.34871653
H        2.41230859      -0.86435328       0.41317824
H       -0.29627857       2.34458367      -0.21190075
11
Frame=2 idx=001763 GeodesicLength=0.10876509632795386 rxn_smarts="[N:1]([c:2]1[c:3]([H:9])[n:4]([H:10])[n:5][c:6]1[H:11])([H:7])[H:8]>>[N:1]([C:2]1=[C:6]([H:11])[C@:3]1([N:4]([N:5])[H:10])[H:9])([H:7])[H:8]"
N       -1.85342147      -0.60728380       0.03738758
C       -0.66829043       0.08528562      -0.03317713
C        0.60516358      -0.47251290      -0.47424158
N        1.75298692      -0.09754985       0.22466976
N        1.92198335       1.03228961       0.68073571
C       -0.19153325       1.28790833      -0.04726519
H       -2.64520417      -0.08560255       0.37387672
H       -1.76761513      -1.52695299       0.43987232
H        0.71352129      -1.09759753      -1.35292647
H        2.43151182      -0.85504477       0.38438084
H       -0.29910252       2.33706082      -0.23331257
11
Frame=3 idx=001763 GeodesicLength=0.16324426361245709 rxn_smarts="[N:1]([c:2]1[c:3]([H:9])[n:4]([H:10])[n:5][c:6]1[H:11])([H:7])[H:8]>>[N:1]([C:2]1=[C:6]([H:11])[C@:3]1([N:4]([N:5])[H:10])[H:9])([H:7])[H:8]"
N       -1.85555888      -0.60199367       0.04210078
C       -0.66598776       0.08110010      -0.03939631
C        0.60573971      -0.46749108      -0.48493794
N        1.74529666      -0.10362892       0.23717627
N        1.88474716       1.02054789       0.72256004
C       -0.17731895       1.28288496      -0.05893346
H       -2.63684226      -0.07431563       0.39360806
H       -1.77197291      -1.52295632       0.44195203
H        0.72160888      -1.10113929      -1.35628713
H        2.45124734      -0.84228018       0.35517707
H       -0.30095899       2.32927216      -0.25301942
11
Frame=4 idx=001763 GeodesicLength=0.2178409838228789 rxn_smarts="[N:1]([c:2]1[c:3]([H:9])[n:4]([H:10])[n:5][c:6]1[H:11])([H:7])[H:8]>>[N:1]([C:2]1=[C:6]([H:11])[C@:3]1([N:4]([N:5])[H:10])[H:9])([H:7])[H:8]"
N       -1.85799338      -0.59640149       0.04645874
C       -0.66390620       0.07671824      -0.04621134
C        0.60631265      -0.46312996      -0.49503192
N        1.73700045      -0.11088612       0.25064436
N        1.84711515       1.00742553       0.76246684
C       -0.16298286       1.27745297      -0.07006907
H       -2.62832589      -0.06257265       0.41269423
H       -1.77705392      -1.51862661       0.44380303
H        0.72976589      -1.10567771      -1.35860777
H        2.47195869      -0.82538304       0.32497598
H       -0.30189058       2.32108085      -0.27112307
11
Frame=5 idx=001763 GeodesicLength=0.2725013720886346 rxn_smarts="[N:1]([c:2]1[c:3]([H:9])[n:4]([H:10])[n:5][c:6]1[H:11])([H:7])[H:8]>>[N:1]([C:2]1=[C:6]([H:11])[C@:3]1([N:4]([N:5])[H:10])[H:9])([H:7])[H:8]"
N       -1.86058851      -0.59057745       0.05051681
C       -0.66194919       0.07212822      -0.05348870
C        0.60691875      -0.45932248      -0.50475668
N        1.72828840      -0.11937843       0.26466073
N        1.80941262       0.99307496       0.80008830
C       -0.14847155       1.27162393      -0.08056029
H       -2.61958547      -0.05049464       0.43111682
H       -1.78267726      -1.51403168       0.44547508
H        0.73788505      -1.11107438      -1.36014640
H        2.49273605      -0.80448265       0.29463965
H       -0.30196890       2.31253460      -0.28754532
11
Frame=6 idx=001763 GeodesicLength=0.3272268808052617 rxn_smarts="[N:1]([c:2]1[c:3]([H:9])[n:4]([H:10])[n:5][c:6]1[H:11])([H:7])[H:8]>>[N:1]([C:2]1=[C:6]([H:11])[C@:3]1([N:4]([N:5])[H:10])[H:9])([H:7])[H:8]"
N       -1.86316065      -0.58459575       0.05439194
C       -0.66002536       0.06738301      -0.06118704
C        0.60759623      -0.45582178      -0.51444134
N        1.71941578      -0.12888083       0.27856255
N        1.77178338       0.97759327       0.83539499
C       -0.13378643       1.26549082      -0.09033872
H       -2.61041389      -0.03831417       0.44925535
H       -1.78850309      -1.50930343       0.44690224
H        0.74586154      -1.11704439      -1.36125385
H        2.51245181      -0.78019671       0.26529662
H       -0.30121930       2.30368995      -0.30258273
11
Frame=7 idx=001763 GeodesicLength=0.38208655039254197 rxn_smarts="[N:1]([c:2]1[c:3]([H:9])[n:4]([H:10])[n:5][c:6]1[H:11])([H:7])[H:8]>>[N:1]([C:2]1=[C:6]([H:11])[C@:3]1([N:4]([N:5])[H:10])[H:9])([H:7])[H:8]"
N       -1.86560990      -0.57849063       0.05821255
C       -0.65807227       0.06245931      -0.06933894
C        0.60837100      -0.45264403      -0.52426260
N        1.71065721      -0.13915097       0.29169396
N        1.73412919       0.96095755       0.86861009
C       -0.11892671       1.25905152      -0.09959364
H       -2.60074272      -0.02601998       0.46709354
H       -1.79440196      -1.50441252       0.44835723
H        0.75365003      -1.12346993      -1.36222765
H        2.53072436      -0.75289465       0.23762213
H       -0.29977821       2.29461432      -0.31616666
11
Frame=8 idx=001763 GeodesicLength=0.43714796229143515 rxn_smarts="[N:1]([c:2]1[c:3]([H:9])[n:4]([H:10])[n:5][c:6]1[H:11])([H:7])[H:8]>>[N:1]([C:2]1=[C:6]([H:11])[C@:3]1([N:4]([N:5])[H:10])[H:9])([H:7])[H:8]"
N       -1.86787431      -0.57227161       0.06209455
C       -0.65612555       0.05742678      -0.07814686
C        0.60923807      -0.44966580      -0.53436764
N        1.70208947      -0.14990941       0.30379024
N        1.69612207       0.94297741       0.90035485
C       -0.10393243       1.25239233      -0.10837989
H       -2.59037580      -0.01371823       0.48511974
H       -1.80014812      -1.49940727       0.44984319
H        0.76127296      -1.13018386      -1.36323413
H        2.54724804      -0.72299029       0.21180622
H       -0.29751439       2.28534995      -0.32888025
11
Frame=9 idx=001763 GeodesicLength=0.4923620397864207 rxn_smarts="[N:1]([c:2]1[c:3]([H:9])[n:4]([H:10])[n:5][c:6]1[H:11])([H:7])[H:8]>>[N:1]([C:2]1=[C:6]([H:11])[C@:3]1([N:4]([N:5])[H:10])[H:9])([H:7])[H:8]"
N       -1.86971244      -0.56616142       0.06614580
C       -0.65404586       0.05227117      -0.08729781
C        0.61022451      -0.44666983      -0.54505848
N        1.69401203      -0.16068667       0.31408737
N        1.65851734       0.92441683       0.92933967
C       -0.08893382       1.24559732      -0.11670220
H       -2.57945785      -0.00157166       0.50264788
H       -1.80543518      -1.49429467       0.45194878
H        0.76871330      -1.13656983      -1.36491835
H        2.56126955      -0.69237750       0.18979169
H       -0.29515158       2.27604626      -0.33998435
11
Frame=10 idx=001763 GeodesicLength=0.5478013837285812 rxn_smarts="[N:1]([c:2]1[c:3]([H:9])[n:4]([H:10])[n:5][c:6]1[H:11])([H:7])[H:8]>>[N:1]([C:2]1=[C:6]([H:11])[C@:3]1([N:4]([N:5])[H:10])[H:9])([H:7])[H:8]"
N       -1.87133922      -0.55992877       0.07027981
C       -0.65195028       0.04705405      -0.09670566
C        0.61125867      -0.44368826      -0.55592022
N        1.68623727      -0.17144943       0.32322838
N        1.62098821       0.90512874       0.95641762
C       -0.07394922       1.23869609      -0.12443914
H       -2.56771937       0.01032250       0.52081997
H       -1.81059152      -1.48928985       0.45352764
H        0.77599069      -1.14274375      -1.36676850
H        2.57328427      -0.66064674       0.17030440
H       -0.29220949       2.26654541      -0.35074429
11
Frame=11 idx=001763 GeodesicLength=0.603407223182895 rxn_smarts="[N:1]([c:2]1[c:3]([H:9])[n:4]([H:10])[n:5][c:6]1[H:11])([H:7])[H:8]>>[N:1]([C:2]1=[C:6]([H:11])[C@:3]1([N:4]([N:5])[H:10])[H:9])([H:7])[H:8]"
N       -1.87254260      -0.55388853       0.07460281
C       -0.64978747       0.04173639      -0.10635594
C        0.61236667      -0.44060949      -0.56723991
N        1.67886890      -0.18203863       0.33086631
N        1.58392467       0.88549543       0.98100407
C       -0.05909584       1.23173167      -0.13168443
H       -2.55558587       0.02202808       0.53825905
H       -1.81522459      -1.48414165       0.45606010
H        0.78319272      -1.14823928      -1.36940891
H        2.58319589      -0.62909479       0.15418866
H       -0.28931248       2.25702080      -0.36029182
11
Frame=12 idx=001763 GeodesicLength=0.6591027567279908 rxn_smarts="[N:1]([c:2]1[c:3]([H:9])[n:4]([H:10])[n:5][c:6]1[H:11])([H:7])[H:8]>>[N:1]([C:2]1=[C:6]([H:11])[C@:3]1([N:4]([N:5])[H:10])[H:9])([H:7])[H:8]"
N       -1.87337968      -0.54806349       0.07902365
C       -0.64753275       0.03629512      -0.11580025
C        0.61351328      -0.43740871      -0.57875490
N        1.67195000      -0.19234946       0.33721965
N        1.54771000       0.86587664       1.00299031
C       -0.04443578       1.22472304      -0.13826525
H       -2.54328992       0.03350178       0.55472364
H       -1.81950568      -1.47891993       0.45935843
H        0.79027692      -1.15293398      -1.37269283
H        2.59125933      -0.59812654       0.14102604
H       -0.28656573       2.24740553      -0.36882850
11
Frame=13 idx=001763 GeodesicLength=0.7149006233040684 rxn_smarts="[N:1]([c:2]1[c:3]([H:9])[n:4]([H:10])[n:5][c:6]1[H:11])([H:7])[H:8]>>[N:1]([C:2]1=[C:6]([H:11])[C@:3]1([N:4]([N:5])[H:10])[H:9])([H:7])[H:8]"
N       -1.87388946      -0.54242495       0.08355558
C       -0.64522196       0.03074913      -0.12507843
C        0.61468344      -0.43408849      -0.59040045
N        1.66539270      -0.20237642       0.34249468
N        1.51232442       0.84639893       1.02254598
C       -0.03000456       1.21769253      -0.14430563
H       -2.53081023       0.04474533       0.57043751
H       -1.82345066      -1.47365916       0.46328305
H        0.79731192      -1.15677580      -1.37661866
H        2.59767906      -0.56797108       0.13061041
H       -0.28401466       2.23770997      -0.37652405
11
Frame=14 idx=001763 GeodesicLength=0.770764297756296 rxn_smarts="[N:1]([c:2]1[c:3]([H:9])[n:4]([H:10])[n:5][c:6]1[H:11])([H:7])[H:8]>>[N:1]([C:2]1=[C:6]([H:11])[C@:3]1([N:4]([N:5])[H:10])[H:9])([H:7])[H:8]"
N       -1.87421290      -0.53675250       0.08814291
C       -0.64287799       0.02517102      -0.13401170
C        0.61583815      -0.43062062      -0.60195808
N        1.65912975      -0.21199104       0.34697180
N        1.47788197       0.82743310       1.03973696
C       -0.01584071       1.21072372      -0.14988032
H       -2.51779074       0.05553936       0.58658148
H       -1.82737406      -1.46866780       0.46649967
H        0.80426190      -1.15989317      -1.38084766
H        2.60256563      -0.53886324       0.12277176
H       -0.28158100       2.22792116      -0.38400683
11
Frame=15 idx=001763 GeodesicLength=0.8267193326603011 rxn_smarts="[N:1]([c:2]1[c:3]([H:9])[n:4]([H:10])[n:5][c:6]1[H:11])([H:7])[H:8]>>[N:1]([C:2]1=[C:6]([H:11])[C@:3]1([N:4]([N:5])[H:10])[H:9])([H:7])[H:8]"
N       -1.87421209      -0.53132654       0.09286310
C       -0.64052323       0.01952219      -0.14282752
C        0.61699553      -0.42696147      -0.61361858
N        1.65309396      -0.22130223       0.35063347
N        1.44427333       0.80880388       1.05481196
C       -0.00197664       1.20379455      -0.15503119
H       -2.50469725       0.06608893       0.60187919
H       -1.83086235      -1.46360858       0.47057175
H        0.81125786      -1.16200126      -1.38579981
H        2.60611382      -0.51110256       0.11732911
H       -0.27946295       2.21809310      -0.39081148
11
Frame=16 idx=001763 GeodesicLength=0.8828006975869802 rxn_smarts="[N:1]([c:2]1[c:3]([H:9])[n:4]([H:10])[n:5][c:6]1[H:11])([H:7])[H:8]>>[N:1]([C:2]1=[C:6]([H:11])[C@:3]1([N:4]([N:5])[H:10])[H:9])([H:7])[H:8]"
N       -1.87401687      -0.52592788       0.09769111
C       -0.63821203       0.01384041      -0.15160094
C        0.61813200      -0.42319983      -0.62522893
N        1.64721663      -0.23031532       0.35371194
N        1.41123905       0.79042847       1.06818419
C        0.01161896       1.19690445      -0.15987370
H       -2.49119292       0.07634437       0.61725516
H       -1.83418261      -1.45862690       0.47459552
H        0.81829185      -1.16341121      -1.39113715
H        2.60853796      -0.48423550       0.11381129
H       -0.27743201       2.20819894      -0.39740849
