17
Frame=0 idx=007831 GeodesicLength=0.0 rxn_smarts="[C:1]([C:2]([C@@:3]([O:4][H:14])([C:5]([C:6](=[O:7])[H:17])([H:15])[H:16])[H:13])([H:11])[H:12])([H:8])([H:9])[H:10]>>[C:1]([C:2]([C@@:3]([O:4][H:14])(/[C:5](=[C:6](\[O:7][H:15])[H:17])[H:16])[H:13])([H:11])[H:12])([H:8])([H:9])[H:10]"
C       -2.35607047      -0.54768189      -0.20547295
C       -1.14872208       0.34026004      -0.46970183
C        0.15745877      -0.25638699       0.03477843
O        0.32285385      -1.49276667      -0.65315725
C        1.33672399       0.68634441      -0.21435912
C        2.46201508       0.59693628       0.62918698
O        2.18847137       1.01507372       1.80264107
H       -3.26980157      -0.08067503      -0.57706618
H       -2.24478935      -1.51460123      -0.69576223
H       -2.48608319      -0.72669587       0.86503881
H       -1.04387547       0.52323359      -1.54376105
H       -1.28078195       1.31487440       0.00575481
H        0.06804683      -0.44980632       1.11302806
H        1.11543621      -1.92204639      -0.32839812
H        1.19148166       1.37530911       1.10782990
H        1.50156533       0.85211844      -1.27751755
H        3.48607096       0.28651035       0.40693827
17
Frame=1 idx=007831 GeodesicLength=0.04729737940198222 rxn_smarts="[C:1]([C:2]([C@@:3]([O:4][H:14])([C:5]([C:6](=[O:7])[H:17])([H:15])[H:16])[H:13])([H:11])[H:12])([H:8])([H:9])[H:10]>>[C:1]([C:2]([C@@:3]([O:4][H:14])(/[C:5](=[C:6](\[O:7][H:15])[H:17])[H:16])[H:13])([H:11])[H:12])([H:8])([H:9])[H:10]"
C       -2.35944129      -0.54662716      -0.21112513
C       -1.15069828       0.33966541      -0.47469920
C        0.15277700      -0.25434606       0.03926753
O        0.32432862      -1.49469922      -0.63896570
C        1.33236888       0.68729580      -0.20565685
C        2.46833081       0.58166594       0.62280879
O        2.20787311       0.97650528       1.80759901
H       -3.27126185      -0.08209377      -0.59040575
H       -2.24514324      -1.51672124      -0.69439055
H       -2.49504569      -0.71858130       0.85985473
H       -1.04083859       0.51596255      -1.54938015
H       -1.28520655       1.31707273      -0.00545094
H        0.05551223      -0.44257062       1.11800973
H        1.11585720      -1.91874639      -0.30422176
H        1.19363554       1.36523158       1.12820508
H        1.49622034       0.85959144      -1.26811983
H        3.50073175       0.33139502       0.36667097
17
Frame=2 idx=007831 GeodesicLength=0.09466130973692821 rxn_smarts="[C:1]([C:2]([C@@:3]([O:4][H:14])([C:5]([C:6](=[O:7])[H:17])([H:15])[H:16])[H:13])([H:11])[H:12])([H:8])([H:9])[H:10]>>[C:1]([C:2]([C@@:3]([O:4][H:14])(/[C:5](=[C:6](\[O:7][H:15])[H:17])[H:16])[H:13])([H:11])[H:12])([H:8])([H:9])[H:10]"
C       -2.36264119      -0.54539305      -0.21662070
C       -1.15238069       0.33904035      -0.47966506
C        0.14828221      -0.25249966       0.04364567
O        0.32566117      -1.49680789      -0.62481214
C        1.32834158       0.68786823      -0.19709668
C        2.47500613       0.56609827       0.61566899
O        2.22733394       0.93672243       1.81139874
H       -3.27245155      -0.08325453      -0.60354198
H       -2.24557183      -1.51867546      -0.69277251
H       -2.50379284      -0.71017641       0.85478391
H       -1.03755943       0.50860689      -1.55492674
H       -1.28909293       1.31925306      -0.01666982
H        0.04331031      -0.43544321       1.12283790
H        1.11594172      -1.91572065      -0.28013802
H        1.19625747       1.35461524       1.14837882
H        1.49091890       0.86690027      -1.25884783
H        3.51243701       0.37886613       0.32837745
17
Frame=3 idx=007831 GeodesicLength=0.14198455330371187 rxn_smarts="[C:1]([C:2]([C@@:3]([O:4][H:14])([C:5]([C:6](=[O:7])[H:17])([H:15])[H:16])[H:13])([H:11])[H:12])([H:8])([H:9])[H:10]>>[C:1]([C:2]([C@@:3]([O:4][H:14])(/[C:5](=[C:6](\[O:7][H:15])[H:17])[H:16])[H:13])([H:11])[H:12])([H:8])([H:9])[H:10]"
C       -2.36558396      -0.54415881      -0.22184086
C       -1.15385897       0.33843074      -0.48455729
C        0.14407328      -0.25061610       0.04779753
O        0.32714367      -1.49878251      -0.61086448
C        1.32458555       0.68847914      -0.18886955
C        2.48194824       0.55100754       0.60765353
O        2.24663229       0.89667070       1.81378019
H       -3.27346049      -0.08440893      -0.61610029
H       -2.24587159      -1.52052959      -0.69095860
H       -2.51203856      -0.70189304       0.84992373
H       -1.03424215       0.50132584      -1.56033952
H       -1.29268459       1.32139049      -0.02779014
H        0.03167629      -0.42827499       1.12738633
H        1.11616574      -1.91250602      -0.25648264
H        1.19903798       1.34404153       1.16802279
H        1.48567389       0.87434928      -1.24988302
H        3.52080338       0.42547472       0.29312229
17
Frame=4 idx=007831 GeodesicLength=0.18918370296246065 rxn_smarts="[C:1]([C:2]([C@@:3]([O:4][H:14])([C:5]([C:6](=[O:7])[H:17])([H:15])[H:16])[H:13])([H:11])[H:12])([H:8])([H:9])[H:10]>>[C:1]([C:2]([C@@:3]([O:4][H:14])(/[C:5](=[C:6](\[O:7][H:15])[H:17])[H:16])[H:13])([H:11])[H:12])([H:8])([H:9])[H:10]"
C       -2.36823782      -0.54290238      -0.22685011
C       -1.15509690       0.33779680      -0.48938981
C        0.14008811      -0.24870860       0.05177069
O        0.32862106      -1.50065166      -0.59705049
C        1.32102450       0.68907870      -0.18089154
C        2.48907955       0.53631175       0.59876153
O        2.26588366       0.85618884       1.81475980
H       -3.27417221      -0.08557407      -0.62824753
H       -2.24606513      -1.52229053      -0.68895483
H       -2.51978498      -0.69358602       0.84520805
H       -1.03085142       0.49399683      -1.56562746
H       -1.29587481       1.32345681      -0.03885119
H        0.02054307      -0.42100653       1.13169751
H        1.11631527      -1.90910611      -0.23314543
H        1.20208314       1.33334875       1.18731365
H        1.48034005       0.88187628      -1.24112503
H        3.52610486       0.47177114       0.26062219
17
Frame=5 idx=007831 GeodesicLength=0.2364993898004652 rxn_smarts="[C:1]([C:2]([C@@:3]([O:4][H:14])([C:5]([C:6](=[O:7])[H:17])([H:15])[H:16])[H:13])([H:11])[H:12])([H:8])([H:9])[H:10]>>[C:1]([C:2]([C@@:3]([O:4][H:14])(/[C:5](=[C:6](\[O:7][H:15])[H:17])[H:16])[H:13])([H:11])[H:12])([H:8])([H:9])[H:10]"
C       -2.37069851      -0.54165450      -0.23165505
C       -1.15617642       0.33717234      -0.49419277
C        0.13631840      -0.24673542       0.05558670
O        0.33022290      -1.50240894      -0.58331537
C        1.31765357       0.68978305      -0.17316573
C        2.49643503       0.52209176       0.58895763
O        2.28509853       0.81523871       1.81432348
H       -3.27473015      -0.08679755      -0.64005566
H       -2.24614254      -1.52402923      -0.68671406
H       -2.52719952      -0.68527594       0.84066183
H       -1.02741394       0.48666677      -1.57085292
H       -1.29884494       1.32551481      -0.04991250
H        0.00984092      -0.41362090       1.13582611
H        1.11654750      -1.90552290      -0.21000465
H        1.20533090       1.32254401       1.20632946
H        1.47494432       0.88965666      -1.23260318
H        3.52881395       0.51737727       0.23078668
17
Frame=6 idx=007831 GeodesicLength=0.28394238858835374 rxn_smarts="[C:1]([C:2]([C@@:3]([O:4][H:14])([C:5]([C:6](=[O:7])[H:17])([H:15])[H:16])[H:13])([H:11])[H:12])([H:8])([H:9])[H:10]>>[C:1]([C:2]([C@@:3]([O:4][H:14])(/[C:5](=[C:6](\[O:7][H:15])[H:17])[H:16])[H:13])([H:11])[H:12])([H:8])([H:9])[H:10]"
C       -2.37296718      -0.54042519      -0.23628783
C       -1.15710969       0.33654562      -0.49898015
C        0.13273292      -0.24466661       0.05927436
O        0.33193694      -1.50402562      -0.56960478
C        1.31442068       0.69063533      -0.16564308
C        2.50397091       0.50836943       0.57821843
O        2.30433180       0.77374354       1.81242916
H       -3.27511018      -0.08814040      -0.65163707
H       -2.24608140      -1.52577655      -0.68420207
H       -2.53432585      -0.67689158       0.83624874
H       -1.02392989       0.47928374      -1.57602559
H       -1.30161657       1.32755771      -0.06101822
H       -0.00047765      -0.40606184       1.13979652
H        1.11682682      -1.90170549      -0.18696057
H        1.20880833       1.31154806       1.22518032
H        1.46940194       0.89776040      -1.22425333
H        3.52918809       0.56224946       0.20346515
17
Frame=7 idx=007831 GeodesicLength=0.33159023150109906 rxn_smarts="[C:1]([C:2]([C@@:3]([O:4][H:14])([C:5]([C:6](=[O:7])[H:17])([H:15])[H:16])[H:13])([H:11])[H:12])([H:8])([H:9])[H:10]>>[C:1]([C:2]([C@@:3]([O:4][H:14])(/[C:5](=[C:6](\[O:7][H:15])[H:17])[H:16])[H:13])([H:11])[H:12])([H:8])([H:9])[H:10]"
C       -2.37507000      -0.53921116      -0.24077702
C       -1.15791076       0.33591535      -0.50376467
C        0.12930575      -0.24249220       0.06287118
O        0.33377582      -1.50551423      -0.55584545
C        1.31129971       0.69165475      -0.15827747
C        2.51167203       0.49512704       0.56651086
O        2.32363393       0.73158948       1.80901578
H       -3.27531999      -0.08962658      -0.66309517
H       -2.24587101      -1.52755726      -0.68138969
H       -2.54125804      -0.66836756       0.83193801
H       -1.02036860       0.47181508      -1.58115814
H       -1.30422979       1.32960377      -0.07221557
H       -0.01048049      -0.39829469       1.14364819
H        1.11715112      -1.89765636      -0.16389813
H        1.21253660       1.30025720       1.24397072
H        1.46367242       0.90624668      -1.21601989
H        3.52746130       0.60651067       0.17848645
17
Frame=8 idx=007831 GeodesicLength=0.3794326155134666 rxn_smarts="[C:1]([C:2]([C@@:3]([O:4][H:14])([C:5]([C:6](=[O:7])[H:17])([H:15])[H:16])[H:13])([H:11])[H:12])([H:8])([H:9])[H:10]>>[C:1]([C:2]([C@@:3]([O:4][H:14])(/[C:5](=[C:6](\[O:7][H:15])[H:17])[H:16])[H:13])([H:11])[H:12])([H:8])([H:9])[H:10]"
C       -2.37700661      -0.53804333      -0.24516117
C       -1.15861043       0.33526271      -0.50856367
C        0.12601485      -0.24015649       0.06640034
O        0.33572720      -1.50677726      -0.54198797
C        1.30824202       0.69290737      -0.15102402
C        2.51949406       0.48243640       0.55384183
O        2.34307726       0.68879125       1.80403248
H       -3.27536241      -0.09135288      -0.67451332
H       -2.24549915      -1.52937516      -0.67827694
H       -2.54798378      -0.65970452       0.82768262
H       -1.01678200       0.46422304      -1.58626283
H       -1.30672188       1.33160174      -0.08354550
H       -0.02016814      -0.39024940       1.14740184
H        1.11749835      -1.89323910      -0.14072092
H        1.21655983       1.28862264       1.26277445
H        1.45765835       0.91521080      -1.20784230
H        3.52386248       0.64984219       0.15576510
17
Frame=9 idx=007831 GeodesicLength=0.4276242395732147 rxn_smarts="[C:1]([C:2]([C@@:3]([O:4][H:14])([C:5]([C:6](=[O:7])[H:17])([H:15])[H:16])[H:13])([H:11])[H:12])([H:8])([H:9])[H:10]>>[C:1]([C:2]([C@@:3]([O:4][H:14])(/[C:5](=[C:6](\[O:7][H:15])[H:17])[H:16])[H:13])([H:11])[H:12])([H:8])([H:9])[H:10]"
C       -2.37881413      -0.53687381      -0.24942060
C       -1.15920062       0.33460156      -0.51340289
C        0.12283844      -0.23770104       0.06986236
O        0.33780308      -1.50794102      -0.52797865
C        1.30526242       0.69434408      -0.14387659
C        2.52745611       0.47016816       0.54009768
O        2.36262206       0.64496605       1.79732005
H       -3.27523604      -0.09327399      -0.68595896
H       -2.24498083      -1.53128519      -0.67471022
H       -2.55464327      -0.65071586       0.82349452
H       -1.01309715       0.45645361      -1.59135964
H       -1.30908938       1.33364296      -0.09509652
H       -0.02964389      -0.38194245       1.15104649
H        1.11783483      -1.88861670      -0.11731973
H        1.22092580       1.27647671       1.28163685
H        1.45138208       0.92466074      -1.19969035
H        3.51858047       0.69303621       0.13535619
17
Frame=10 idx=007831 GeodesicLength=0.47597807410137694 rxn_smarts="[C:1]([C:2]([C@@:3]([O:4][H:14])([C:5]([C:6](=[O:7])[H:17])([H:15])[H:16])[H:13])([H:11])[H:12])([H:8])([H:9])[H:10]>>[C:1]([C:2]([C@@:3]([O:4][H:14])(/[C:5](=[C:6](\[O:7][H:15])[H:17])[H:16])[H:13])([H:11])[H:12])([H:8])([H:9])[H:10]"
C       -2.38042778      -0.53572013      -0.25354251
C       -1.15965579       0.33390666      -0.51823068
C        0.11979245      -0.23513573       0.07324929
O        0.33995649      -1.50892567      -0.51390923
C        1.30234303       0.69592550      -0.13685453
C        2.53537694       0.45843607       0.52548923
O        2.38210108       0.60080143       1.78893492
H       -3.27489208      -0.09534848      -0.69725239
H       -2.24431092      -1.53317682      -0.67088130
H       -2.56104632      -0.64160786       0.81939142
H       -1.00934225       0.44855854      -1.59640186
H       -1.31128039       1.33561970      -0.10672078
H       -0.03881076      -0.37341119       1.15459156
H        1.11821354      -1.88363108      -0.09397095
H        1.22545549       1.26404720       1.30040830
H        1.44489507       0.93442110      -1.19159671
H        3.51163220       0.73524077       0.11729620
17
Frame=11 idx=007831 GeodesicLength=0.5246095562197152 rxn_smarts="[C:1]([C:2]([C@@:3]([O:4][H:14])([C:5]([C:6](=[O:7])[H:17])([H:15])[H:16])[H:13])([H:11])[H:12])([H:8])([H:9])[H:10]>>[C:1]([C:2]([C@@:3]([O:4][H:14])(/[C:5](=[C:6](\[O:7][H:15])[H:17])[H:16])[H:13])([H:11])[H:12])([H:8])([H:9])[H:10]"
C       -2.38192017      -0.53463763      -0.25754922
C       -1.16004564       0.33320445      -0.52305735
C        0.11686098      -0.23241378       0.07657527
O        0.34224120      -1.50971208      -0.49974363
C        1.29948691       0.69776463      -0.12993309
C        2.54326940       0.44728383       0.51002630
O        2.40154087       0.55634849       1.77883103
H       -3.27444354      -0.09766148      -0.70844124
H       -2.24350663      -1.53512564      -0.66678985
H       -2.56729073      -0.63245214       0.81534312
H       -1.00556036       0.44058548      -1.60139562
H       -1.31342000       1.33757545      -0.11844027
H       -0.04771370      -0.36463010       1.15804991
H        1.11868534      -1.87828173      -0.07057918
H        1.23015027       1.25139421       1.31911556
H        1.43821634       0.94466474      -1.18352300
H        3.50344945       0.77609330       0.10151126
17
Frame=12 idx=007831 GeodesicLength=0.5733692687492835 rxn_smarts="[C:1]([C:2]([C@@:3]([O:4][H:14])([C:5]([C:6](=[O:7])[H:17])([H:15])[H:16])[H:13])([H:11])[H:12])([H:8])([H:9])[H:10]>>[C:1]([C:2]([C@@:3]([O:4][H:14])(/[C:5](=[C:6](\[O:7][H:15])[H:17])[H:16])[H:13])([H:11])[H:12])([H:8])([H:9])[H:10]"
C       -2.38324403      -0.53359967      -0.26138886
C       -1.16034155       0.33248432      -0.52784446
C        0.11406562      -0.22960125       0.07979651
O        0.34461902      -1.51030881      -0.48559738
C        1.29670161       0.69974883      -0.12316337
C        2.55098030       0.43670482       0.49391739
O        2.42068497       0.51212080       1.76710160
H       -3.27386412      -0.10009630      -0.71931227
H       -2.24258575      -1.53703504      -0.66252223
H       -2.57322260      -0.62335812       0.81140002
H       -1.00177539       0.43258882      -1.60629312
H       -1.31543719       1.33945762      -0.13015231
H       -0.05627755      -0.35571977       1.16137021
H        1.11931187      -1.87254925      -0.04744556
H        1.23479527       1.23873341       1.33753492
H        1.43144734       0.95514411      -1.17551624
H        3.49414218       0.81528548       0.08811513
17
Frame=13 idx=007831 GeodesicLength=0.6224119459970582 rxn_smarts="[C:1]([C:2]([C@@:3]([O:4][H:14])([C:5]([C:6](=[O:7])[H:17])([H:15])[H:16])[H:13])([H:11])[H:12])([H:8])([H:9])[H:10]>>[C:1]([C:2]([C@@:3]([O:4][H:14])(/[C:5](=[C:6](\[O:7][H:15])[H:17])[H:16])[H:13])([H:11])[H:12])([H:8])([H:9])[H:10]"
C       -2.38449687      -0.53263348      -0.26510269
C       -1.16058384       0.33175814      -0.53260878
C        0.11138383      -0.22668794       0.08295384
O        0.34711507      -1.51076786      -0.47140018
C        1.29401604       0.70193347      -0.11648960
C        2.55859321       0.42669064       0.47713621
O        2.43964988       0.46800761       1.75372689
H       -3.27325078      -0.10269592      -0.72999037
H       -2.24160269      -1.53899051      -0.65806599
H       -2.57902663      -0.61430778       0.80752339
H       -0.99796310       0.42456369      -1.61111705
H       -1.31740575       1.34132572      -0.14189827
H       -0.06458767      -0.34665499       1.16460159
H        1.12009974      -1.86650098      -0.02442473
H        1.23946396       1.22601767       1.35578691
H        1.42461214       0.96599070      -1.16751564
H        3.48398347       0.85295182       0.07688447
17
Frame=14 idx=007831 GeodesicLength=0.6717155326347317 rxn_smarts="[C:1]([C:2]([C@@:3]([O:4][H:14])([C:5]([C:6](=[O:7])[H:17])([H:15])[H:16])[H:13])([H:11])[H:12])([H:8])([H:9])[H:10]>>[C:1]([C:2]([C@@:3]([O:4][H:14])(/[C:5](=[C:6](\[O:7][H:15])[H:17])[H:16])[H:13])([H:11])[H:12])([H:8])([H:9])[H:10]"
C       -2.38557685      -0.53173531      -0.26869474
C       -1.16074546       0.33100977      -0.53735952
C        0.10879211      -0.22361681       0.08605780
O        0.34973942      -1.51098695      -0.45712924
C        1.29133827       0.70436031      -0.10986750
C        2.56596604       0.41722975       0.45964230
O        2.45834061       0.42388423       1.73864055
H       -3.27245799      -0.10555262      -0.74054844
H       -2.24041927      -1.54098053      -0.65333771
H       -2.58463202      -0.60519863       0.80370333
H       -0.99408990       0.41644623      -1.61587302
H       -1.31932063       1.34313355      -0.15371301
H       -0.07268215      -0.33735788       1.16774899
H        1.12099548      -1.86000988      -0.00144227
H        1.24413560       1.21314589       1.37396379
H        1.41758213       0.97729200      -1.15945215
H        3.47303462       0.88893689       0.06766083
17
Frame=15 idx=007831 GeodesicLength=0.7211194908840984 rxn_smarts="[C:1]([C:2]([C@@:3]([O:4][H:14])([C:5]([C:6](=[O:7])[H:17])([H:15])[H:16])[H:13])([H:11])[H:12])([H:8])([H:9])[H:10]>>[C:1]([C:2]([C@@:3]([O:4][H:14])(/[C:5](=[C:6](\[O:7][H:15])[H:17])[H:16])[H:13])([H:11])[H:12])([H:8])([H:9])[H:10]"
C       -2.38648289      -0.53089030      -0.27215294
C       -1.16081166       0.33023083      -0.54203118
C        0.10631521      -0.22048890       0.08909150
O        0.35241270      -1.51102468      -0.44288270
C        1.28871618       0.70686854      -0.10334987
C        2.57301579       0.40829285       0.44171544
O        2.47656979       0.38043683       1.72207870
H       -3.27152884      -0.10847069      -0.75073944
H       -2.23913936      -1.54288276      -0.64860368
H       -2.58988687      -0.59628429       0.79995076
H       -0.99020453       0.40834559      -1.62048492
H       -1.32110321       1.34482425      -0.16542031
H       -0.08045861      -0.32797948       1.17079284
H        1.12204652      -1.85312963       0.02120397
H        1.24860260       1.20045484       1.39180660
H        1.41050343       0.98871241      -1.15139175
H        3.46143375       0.92298456       0.06041699
17
Frame=16 idx=007831 GeodesicLength=0.7707619925192634 rxn_smarts="[C:1]([C:2]([C@@:3]([O:4][H:14])([C:5]([C:6](=[O:7])[H:17])([H:15])[H:16])[H:13])([H:11])[H:12])([H:8])([H:9])[H:10]>>[C:1]([C:2]([C@@:3]([O:4][H:14])(/[C:5](=[C:6](\[O:7][H:15])[H:17])[H:16])[H:13])([H:11])[H:12])([H:8])([H:9])[H:10]"
C       -2.38729239      -0.53012803      -0.27550419
C       -1.16082185       0.32943549      -0.54664809
C        0.10393390      -0.21727442       0.09208085
O        0.35517935      -1.51089452      -0.42860000
C        1.28616502       0.70954091      -0.09688036
C        2.57980982       0.39987810       0.42330974
O        2.49442780       0.33748597       1.70400442
H       -3.27053901      -0.11153864      -0.76070442
H       -2.23777648      -1.54479452      -0.64377560
H       -2.59496994      -0.58750135       0.79623501
H       -0.98628574       0.40025019      -1.62497528
H       -1.32283648       1.34645241      -0.17708640
H       -0.08800302      -0.31849115       1.17375487
H        1.12327107      -1.84588743       0.04365258
H        1.25292885       1.18787646       1.40943300
H        1.40337840       1.00043413      -1.14325613
H        3.44943069       0.95515639       0.05496000
