15
Frame=0 idx=011144 GeodesicLength=0.0 rxn_smarts="[C:1]([C:2]([C@@:3]1([C:6]#[C:7][H:15])[C:4]([H:13])([H:14])[O:5]1)([H:11])[H:12])([H:8])([H:9])[H:10]>>[C:1]([C:6]#[C:7][H:15])([H:8])([H:9])[H:10].[C:2](=[C:3]1[C:4]([H:13])([H:14])[O:5]1)([H:11])[H:12]"
C       -1.06885753      -1.00311544      -0.82999869
C       -0.43870421      -0.22712553       1.50619695
C        0.37909729       0.48999113       0.57010657
C        0.24091932       1.90348345       0.20230654
O        1.27265174       1.48145416       1.07433276
C        0.74109559      -0.47528244      -0.51034394
C        1.69506195      -0.97203615      -1.10761361
H       -1.95590163      -0.51906213      -0.44447273
H       -1.07896247      -2.07093196      -0.64335527
H       -0.94982141      -0.77244970      -1.88208029
H       -0.83318061       0.28886938       2.37634533
H       -0.35650078      -1.30013037       1.56233180
H        0.56306592       2.21440804      -0.78940515
H       -0.54271977       2.50187595       0.66121995
H        2.33275661      -1.53994838      -1.74557023
15
Frame=1 idx=011144 GeodesicLength=0.11531316324621302 rxn_smarts="[C:1]([C:2]([C@@:3]1([C:6]#[C:7][H:15])[C:4]([H:13])([H:14])[O:5]1)([H:11])[H:12])([H:8])([H:9])[H:10]>>[C:1]([C:6]#[C:7][H:15])([H:8])([H:9])[H:10].[C:2](=[C:3]1[C:4]([H:13])([H:14])[O:5]1)([H:11])[H:12]"
C       -1.07563071      -1.01780011      -0.81539443
C       -0.46074152      -0.21757436       1.49709474
C        0.37841271       0.49542733       0.57903276
C        0.26572845       1.90950327       0.20807296
O        1.28005471       1.46977921       1.09395757
C        0.74665176      -0.48734682      -0.52640245
C        1.70018328      -0.96925630      -1.13298947
H       -1.98302140      -0.59140120      -0.40841809
H       -1.05762512      -2.09177009      -0.66572831
H       -0.99590483      -0.75101312      -1.86325983
H       -0.90455392       0.31197081       2.33441705
H       -0.34287181      -1.28448796       1.59748520
H        0.60517778       2.21256436      -0.78015434
H       -0.51126846       2.52373516       0.65686763
H        2.35540907      -1.51233018      -1.77458099
15
Frame=2 idx=011144 GeodesicLength=0.23021018026183132 rxn_smarts="[C:1]([C:2]([C@@:3]1([C:6]#[C:7][H:15])[C:4]([H:13])([H:14])[O:5]1)([H:11])[H:12])([H:8])([H:9])[H:10]>>[C:1]([C:6]#[C:7][H:15])([H:8])([H:9])[H:10].[C:2](=[C:3]1[C:4]([H:13])([H:14])[O:5]1)([H:11])[H:12]"
C       -1.08243520      -1.03273664      -0.80071411
C       -0.48311270      -0.20768754       1.48754864
C        0.37740636       0.50101750       0.58826315
C        0.29047643       1.91519489       0.21419468
O        1.28708493       1.45795160       1.11349704
C        0.75196680      -0.49992652      -0.54301026
C        1.70510664      -0.96613273      -1.15900013
H       -2.00688235      -0.66646178      -0.37273484
H       -1.03712977      -2.11112095      -0.69027763
H       -1.04279512      -0.72980976      -1.84164090
H       -0.97286140       0.33434237       2.29026685
H       -0.33252996      -1.26566503       1.63371484
H        0.64672722       2.20976652      -0.77053716
H       -0.47923967       2.54519776       0.65319395
H        2.37821781      -1.48392970      -1.80276413
15
Frame=3 idx=011144 GeodesicLength=0.34469978262634954 rxn_smarts="[C:1]([C:2]([C@@:3]1([C:6]#[C:7][H:15])[C:4]([H:13])([H:14])[O:5]1)([H:11])[H:12])([H:8])([H:9])[H:10]>>[C:1]([C:6]#[C:7][H:15])([H:8])([H:9])[H:10].[C:2](=[C:3]1[C:4]([H:13])([H:14])[O:5]1)([H:11])[H:12]"
C       -1.08917913      -1.04809395      -0.78588096
C       -0.50586371      -0.19745457       1.47757534
C        0.37608823       0.50671856       0.59788042
C        0.31521442       1.92047940       0.22065344
O        1.29373848       1.44594109       1.13302910
C        0.75709038      -0.51311315      -0.56011283
C        1.70989228      -0.96281196      -1.18547141
H       -2.02702483      -0.74396618      -0.33743942
H       -1.01760209      -2.12900692      -0.71698726
H       -1.09035408      -0.70907941      -1.81702120
H       -1.03841782       0.35625110       2.24396189
H       -0.32566788      -1.24368071       1.67104005
H        0.68782195       2.20589200      -0.76057240
H       -0.44661559       2.56620495       0.65008797
H        2.40087939      -1.45428024      -1.83074272
15
Frame=4 idx=011144 GeodesicLength=0.4588096568688316 rxn_smarts="[C:1]([C:2]([C@@:3]1([C:6]#[C:7][H:15])[C:4]([H:13])([H:14])[O:5]1)([H:11])[H:12])([H:8])([H:9])[H:10]>>[C:1]([C:6]#[C:7][H:15])([H:8])([H:9])[H:10].[C:2](=[C:3]1[C:4]([H:13])([H:14])[O:5]1)([H:11])[H:12]"
C       -1.09597490      -1.06381712      -0.77096569
C       -0.52862134      -0.18707451       1.46705725
C        0.37449000       0.51260117       0.60769333
C        0.33971622       1.92547395       0.22750956
O        1.30009356       1.43381903       1.15227983
C        0.76184799      -0.52655733      -0.57830764
C        1.71423630      -0.95873242      -1.21327438
H       -2.04312278      -0.82351799      -0.30231967
H       -0.99926822      -2.14520739      -0.74616670
H       -1.13903183      -0.68873368      -1.78927941
H       -1.10097237       0.37746535       2.19564646
H       -0.32187378      -1.21876019       1.70903355
H        0.72793892       2.20129380      -0.75025461
H       -0.41359659       2.58669891       0.64791849
H        2.42413882      -1.42495158      -1.85657037
15
Frame=5 idx=011144 GeodesicLength=0.5725733811817654 rxn_smarts="[C:1]([C:2]([C@@:3]1([C:6]#[C:7][H:15])[C:4]([H:13])([H:14])[O:5]1)([H:11])[H:12])([H:8])([H:9])[H:10]>>[C:1]([C:6]#[C:7][H:15])([H:8])([H:9])[H:10].[C:2](=[C:3]1[C:4]([H:13])([H:14])[O:5]1)([H:11])[H:12]"
C       -1.10255752      -1.08023594      -0.75577937
C       -0.55171389      -0.17639076       1.45612814
C        0.37259877       0.51853619       0.61798027
C        0.36428677       1.92995796       0.23469968
O        1.30611086       1.42143491       1.17160315
C        0.76642515      -0.54064275      -0.59712012
C        1.71847945      -0.95474498      -1.24132037
H       -2.05474758      -0.90480077      -0.26750605
H       -0.98225765      -2.15986735      -0.77743210
H       -1.18824741      -0.66947111      -1.75815546
H       -1.16135156       0.39848156       2.14504919
H       -0.32179147      -1.19070654       1.74802921
H        0.76772679       2.19551618      -0.73959206
H       -0.37993918       2.60663859       0.64623685
H        2.44697847      -1.39370521      -1.88282098
15
Frame=6 idx=011144 GeodesicLength=0.6859686009555781 rxn_smarts="[C:1]([C:2]([C@@:3]1([C:6]#[C:7][H:15])[C:4]([H:13])([H:14])[O:5]1)([H:11])[H:12])([H:8])([H:9])[H:10]>>[C:1]([C:6]#[C:7][H:15])([H:8])([H:9])[H:10].[C:2](=[C:3]1[C:4]([H:13])([H:14])[O:5]1)([H:11])[H:12]"
C       -1.10899734      -1.09715798      -0.74055061
C       -0.57460250      -0.16571166       1.44462466
C        0.37045117       0.52467803       0.62846464
C        0.38849108       1.93418905       0.24237469
O        1.31186609       1.40896899       1.19061002
C        0.77059358      -0.55470104      -0.61746822
C        1.72226044      -0.94983641      -1.27089687
H       -2.06159904      -0.98704723      -0.23287311
H       -0.96684972      -2.17260406      -0.81097980
H       -1.23848695      -0.65141735      -1.72376064
H       -1.21886084       0.41871923       2.09252376
H       -0.32477954      -1.15986090       1.78733198
H        0.80627445       2.18922907      -0.72852788
H       -0.34606942       2.62598112       0.64570366
H        2.47030855      -1.36342885      -1.90657628
15
Frame=7 idx=011144 GeodesicLength=0.7990036532441471 rxn_smarts="[C:1]([C:2]([C@@:3]1([C:6]#[C:7][H:15])[C:4]([H:13])([H:14])[O:5]1)([H:11])[H:12])([H:8])([H:9])[H:10]>>[C:1]([C:6]#[C:7][H:15])([H:8])([H:9])[H:10].[C:2](=[C:3]1[C:4]([H:13])([H:14])[O:5]1)([H:11])[H:12]"
C       -1.11488737      -1.11492713      -0.72513475
C       -0.59776614      -0.15482095       1.43268078
C        0.36800562       0.53088756       0.63953116
C        0.41270299       1.93791843       0.25054293
O        1.31724928       1.39624677       1.20985045
C        0.77464961      -0.56917063      -0.63870282
C        1.72616104      -0.94497963      -1.30057130
H       -2.06338522      -1.06964260      -0.19871825
H       -0.95310926      -2.18367687      -0.84589979
H       -1.28880726      -0.63576815      -1.68619757
H       -1.27431270       0.43871475       2.03773733
H       -0.33179484      -1.12592521       1.82732439
H        0.84442061       2.18189685      -0.71694985
H       -0.31169047       2.64470005       0.64582712
H        2.49256411      -1.33145325      -1.93131984
15
Frame=8 idx=011144 GeodesicLength=0.9117548921457183 rxn_smarts="[C:1]([C:2]([C@@:3]1([C:6]#[C:7][H:15])[C:4]([H:13])([H:14])[O:5]1)([H:11])[H:12])([H:8])([H:9])[H:10]>>[C:1]([C:6]#[C:7][H:15])([H:8])([H:9])[H:10].[C:2](=[C:3]1[C:4]([H:13])([H:14])[O:5]1)([H:11])[H:12]"
C       -1.12097741      -1.13288741      -0.70997301
C       -0.61990796      -0.14442898       1.41998605
C        0.36535986       0.53742313       0.65028687
C        0.43612071       1.94172047       0.25935428
O        1.32277466       1.38335260       1.22799008
C        0.77756477      -0.58254011      -0.66327196
C        1.72854751      -0.93792887      -1.33402574
H       -2.06026257      -1.15204190      -0.16433457
H       -0.94181578      -2.19223268      -0.88296359
H       -1.34119955      -0.62201877      -1.64556683
H       -1.32608715       0.45708265       1.98152110
H       -0.34087696      -1.08975347       1.86654479
H        0.88015926       2.17503439      -0.70503540
H       -0.27738887       2.66281502       0.64817016
H        2.51798948      -1.30359607      -1.94868222
15
Frame=9 idx=011144 GeodesicLength=1.024197093234144 rxn_smarts="[C:1]([C:2]([C@@:3]1([C:6]#[C:7][H:15])[C:4]([H:13])([H:14])[O:5]1)([H:11])[H:12])([H:8])([H:9])[H:10]>>[C:1]([C:6]#[C:7][H:15])([H:8])([H:9])[H:10].[C:2](=[C:3]1[C:4]([H:13])([H:14])[O:5]1)([H:11])[H:12]"
C       -1.12654128      -1.15134282      -0.69489267
C       -0.64177137      -0.13415858       1.40680297
C        0.36249734       0.54411244       0.66140656
C        0.45927995       1.94521136       0.26873872
O        1.32818964       1.37020261       1.24592382
C        0.77994692      -0.59548860      -0.68995865
C        1.73079973      -0.93078282      -1.36817452
H       -2.05184207      -1.23395903      -0.13020111
H       -0.93274083      -2.19859850      -0.92119551
H       -1.39400892      -0.61122772      -1.60203044
H       -1.37541228       0.47459580       1.92332048
H       -0.35340930      -1.05085844       1.90565391
H        0.91479785       2.16775714      -0.69268118
H       -0.24283715       2.68026283       0.65176065
H        2.54305176      -1.27572568      -1.96447303
15
Frame=10 idx=011144 GeodesicLength=1.1363532624661983 rxn_smarts="[C:1]([C:2]([C@@:3]1([C:6]#[C:7][H:15])[C:4]([H:13])([H:14])[O:5]1)([H:11])[H:12])([H:8])([H:9])[H:10]>>[C:1]([C:6]#[C:7][H:15])([H:8])([H:9])[H:10].[C:2](=[C:3]1[C:4]([H:13])([H:14])[O:5]1)([H:11])[H:12]"
C       -1.13124937      -1.17024747      -0.68007570
C       -0.66334827      -0.12402896       1.39306117
C        0.35937019       0.55114783       0.67297973
C        0.48208291       1.94868561       0.27912076
O        1.33344001       1.35685154       1.26392830
C        0.78177996      -0.60733437      -0.71918540
C        1.73299444      -0.92240954      -1.40358509
H       -2.03792013      -1.31476958      -0.09656700
H       -0.92553008      -2.20290719      -0.95955672
H       -1.44687847      -0.60452026      -1.55634639
H       -1.42235038       0.49110565       1.86311299
H       -0.36949595      -1.00919200       1.94438908
H        0.94823328       2.16063364      -0.67943397
H       -0.20817698       2.69721748       0.65720877
H        2.56704886      -1.25023237      -1.97905053
15
Frame=11 idx=011144 GeodesicLength=1.2482886121443688 rxn_smarts="[C:1]([C:2]([C@@:3]1([C:6]#[C:7][H:15])[C:4]([H:13])([H:14])[O:5]1)([H:11])[H:12])([H:8])([H:9])[H:10]>>[C:1]([C:6]#[C:7][H:15])([H:8])([H:9])[H:10].[C:2](=[C:3]1[C:4]([H:13])([H:14])[O:5]1)([H:11])[H:12]"
C       -1.13507867      -1.18979228      -0.66535284
C       -0.68513073      -0.11379643       1.37879551
C        0.35591097       0.55828326       0.68526412
C        0.50509517       1.95175918       0.29049619
O        1.33857298       1.34278638       1.28237799
C        0.78300120      -0.61853595      -0.75062495
C        1.73540477      -0.91407491      -1.43912887
H       -2.01878946      -1.39397741      -0.06343013
H       -0.92028317      -2.20579690      -0.99661915
H       -1.49932279      -0.60300475      -1.50909510
H       -1.46733567       0.50719903       1.80048023
H       -0.39029576      -0.96433366       1.98296318
H        0.98141915       2.15295941      -0.66520624
H       -0.17271535       2.71360588       0.66414852
H        2.58954737      -1.22328084      -1.99506847
15
Frame=12 idx=011144 GeodesicLength=1.3600393983833956 rxn_smarts="[C:1]([C:2]([C@@:3]1([C:6]#[C:7][H:15])[C:4]([H:13])([H:14])[O:5]1)([H:11])[H:12])([H:8])([H:9])[H:10]>>[C:1]([C:6]#[C:7][H:15])([H:8])([H:9])[H:10].[C:2](=[C:3]1[C:4]([H:13])([H:14])[O:5]1)([H:11])[H:12]"
C       -1.13814680      -1.20958997      -0.65097100
C       -0.70664934      -0.10370573       1.36391184
C        0.35214995       0.56567614       0.69800378
C        0.52799943       1.95472315       0.30304538
O        1.34378523       1.32802168       1.30083903
C        0.78308746      -0.62810150      -0.78550232
C        1.73757495      -0.90481711      -1.47602138
H       -1.99433160      -1.47136737      -0.03058508
H       -0.91694879      -2.20717795      -1.03225276
H       -1.55192085      -0.60665812      -1.46063372
H       -1.50974266       0.52235258       1.73582865
H       -0.41517573      -0.91653344       2.02065130
H        1.01358142       2.14547491      -0.64996972
H       -0.13671232       2.72947258       0.67335773
H        2.61144965      -1.19776984      -2.00970171
15
Frame=13 idx=011144 GeodesicLength=1.471692894894089 rxn_smarts="[C:1]([C:2]([C@@:3]1([C:6]#[C:7][H:15])[C:4]([H:13])([H:14])[O:5]1)([H:11])[H:12])([H:8])([H:9])[H:10]>>[C:1]([C:6]#[C:7][H:15])([H:8])([H:9])[H:10].[C:2](=[C:3]1[C:4]([H:13])([H:14])[O:5]1)([H:11])[H:12]"
C       -1.14051086      -1.22968412      -0.63674949
C       -0.72826866      -0.09351467       1.34844973
C        0.34802085       0.57315850       0.71139932
C        0.55127214       1.95725312       0.31676033
O        1.34911014       1.31210883       1.31957625
C        0.78177085      -0.63619903      -0.82377592
C        1.73978825      -0.89596124      -1.51307082
H       -1.96459741      -1.54689877       0.00216304
H       -0.91545701      -2.20758929      -1.06560774
H       -1.60454272      -0.61601693      -1.41121242
H       -1.54991717       0.53701367       1.66867989
H       -0.44503620      -0.86534420       2.05743969
H        1.04550353       2.13760195      -0.63365858
H       -0.09955867       2.74472760       0.68456292
H        2.63242295      -1.17065541      -2.02495619
15
Frame=14 idx=011144 GeodesicLength=1.5832396383525362 rxn_smarts="[C:1]([C:2]([C@@:3]1([C:6]#[C:7][H:15])[C:4]([H:13])([H:14])[O:5]1)([H:11])[H:12])([H:8])([H:9])[H:10]>>[C:1]([C:6]#[C:7][H:15])([H:8])([H:9])[H:10].[C:2](=[C:3]1[C:4]([H:13])([H:14])[O:5]1)([H:11])[H:12]"
C       -1.14192077      -1.24985753      -0.62291265
C       -0.74977368      -0.08332273       1.33229513
C        0.34349629       0.58094040       0.72537696
C        0.57465694       1.95969191       0.33206196
O        1.35459460       1.29503643       1.33850465
C        0.77865453      -0.64167038      -0.86647090
C        1.74170768      -0.88580760      -1.55153280
H       -1.92923523      -1.62015103       0.03470144
H       -0.91509027      -2.20741810      -1.09608883
H       -1.65719732      -0.63149705      -1.36133397
H       -1.58747040       0.55091455       1.59928898
H       -0.47967592      -0.81075348       2.09270893
H        1.07662007       2.13010700      -0.61595797
H       -0.06146927       2.75948711       0.69870229
H        2.65210275      -1.14569950      -2.03934322
15
Frame=15 idx=011144 GeodesicLength=1.6947175414466518 rxn_smarts="[C:1]([C:2]([C@@:3]1([C:6]#[C:7][H:15])[C:4]([H:13])([H:14])[O:5]1)([H:11])[H:12])([H:8])([H:9])[H:10]>>[C:1]([C:6]#[C:7][H:15])([H:8])([H:9])[H:10].[C:2](=[C:3]1[C:4]([H:13])([H:14])[O:5]1)([H:11])[H:12]"
C       -1.14236907      -1.27020568      -0.60925013
C       -0.77153986      -0.07288347       1.31544612
C        0.33848797       0.58881960       0.74011383
C        0.59861043       1.96166085       0.34900991
O        1.36025915       1.27623040       1.35783817
C        0.77334700      -0.64459171      -0.91366732
C        1.74320250      -0.87490663      -1.59095362
H       -1.88829397      -1.69082184       0.06720933
H       -0.91550779      -2.20749295      -1.12278790
H       -1.70965699      -0.65365579      -1.31114855
H       -1.62256079       0.56455598       1.52721511
H       -0.52007051      -0.75219239       2.12628082
H        1.10758917       2.12235681      -0.59678170
H       -0.02178221       2.77358070       0.71567497
H        2.67028496      -1.12045389      -2.05419906
15
Frame=16 idx=011144 GeodesicLength=1.8061285643782266 rxn_smarts="[C:1]([C:2]([C@@:3]1([C:6]#[C:7][H:15])[C:4]([H:13])([H:14])[O:5]1)([H:11])[H:12])([H:8])([H:9])[H:10]>>[C:1]([C:6]#[C:7][H:15])([H:8])([H:9])[H:10].[C:2](=[C:3]1[C:4]([H:13])([H:14])[O:5]1)([H:11])[H:12]"
C       -1.14172362      -1.29063001      -0.59571713
C       -0.79365170      -0.06211011       1.29788995
C        0.33291695       0.59675555       0.75567205
C        0.62323504       1.96302051       0.36774069
O        1.36608669       1.25535798       1.37757946
C        0.76532838      -0.64447170      -0.96590352
C        1.74389511      -0.86280686      -1.63160383
H       -1.84141640      -1.75865965       0.09983135
H       -0.91617380      -2.20828771      -1.14541401
H       -1.76182985      -0.68269909      -1.26054221
H       -1.65503257       0.57804418       1.45232597
H       -0.56656050      -0.68929158       2.15761795
H        1.13846732       2.11419854      -0.57604429
H        0.01974427       2.78686828       0.73573422
H        2.68671469      -1.09528834      -2.06916664
