13
Frame=0 idx=008814 GeodesicLength=0.0 rxn_smarts="[N:1]([c:2]1[c:3]([O:4][H:10])[n:5]([H:11])[c:6]([H:12])[c:7]1[H:13])([H:8])[H:9]>>[N:1]([C:2]1=[C-:3][N:5]([H:11])[C@:6]([O:4][H:10])([H:12])[C+:7]1[H:13])([H:8])[H:9]"
N       -1.88976570       0.92676887       0.36106408
C       -0.64116364       0.48083517       0.23360975
C       -0.29297903      -0.88035330       0.85363609
O        0.29466441      -1.54751913      -0.77873081
N        1.11863180      -0.67592896       1.07074601
C        1.38948688      -0.10996631      -0.16784496
C        0.45807395       0.95323493      -0.41986846
H       -2.19173549       1.80716838      -0.01129897
H       -2.52904751       0.37171950       0.90221763
H       -0.26322119      -1.33126377      -1.53602191
H        1.59260193      -1.55351931       1.23801039
H        2.36077355      -0.21561392      -0.64116793
H        0.59368003       1.77443779      -1.10435086
13
Frame=1 idx=008814 GeodesicLength=0.05107107365386861 rxn_smarts="[N:1]([c:2]1[c:3]([O:4][H:10])[n:5]([H:11])[c:6]([H:12])[c:7]1[H:13])([H:8])[H:9]>>[N:1]([C:2]1=[C-:3][N:5]([H:11])[C@:6]([O:4][H:10])([H:12])[C+:7]1[H:13])([H:8])[H:9]"
N       -1.89802932       0.91352922       0.34107013
C       -0.63717692       0.48391708       0.24664507
C       -0.29029157      -0.87926034       0.84885857
O        0.29206695      -1.55548197      -0.79104213
N        1.11702188      -0.68633618       1.06045110
C        1.39359105      -0.11098261      -0.17607668
C        0.46381458       0.95847655      -0.40655219
H       -2.20374887       1.78070973      -0.05881520
H       -2.51864719       0.40514051       0.94625590
H       -0.28636143      -1.33673204      -1.53186669
H        1.59506567      -1.55966458       1.23617661
H        2.37375433      -0.20072657      -0.63309375
H        0.59894083       1.78741120      -1.08201074
13
Frame=2 idx=008814 GeodesicLength=0.10207594311940252 rxn_smarts="[N:1]([c:2]1[c:3]([O:4][H:10])[n:5]([H:11])[c:6]([H:12])[c:7]1[H:13])([H:8])[H:9]>>[N:1]([C:2]1=[C-:3][N:5]([H:11])[C@:6]([O:4][H:10])([H:12])[C+:7]1[H:13])([H:8])[H:9]"
N       -1.90513256       0.89995481       0.32478242
C       -0.63350622       0.48637069       0.25965776
C       -0.28761723      -0.87851956       0.84374459
O        0.28932279      -1.56340673      -0.80391509
N        1.11517240      -0.69680070       1.04959462
C        1.39717016      -0.11173848      -0.18458690
C        0.46905641       0.96344449      -0.39289439
H       -2.21521438       1.75001593      -0.10744044
H       -2.50680462       0.44347259       0.98772379
H       -0.30926458      -1.34270938      -1.52768327
H        1.59742228      -1.56551437       1.23381681
H        2.38602340      -0.18497752      -0.62423664
H        0.60337214       1.80040824      -1.05856326
13
Frame=3 idx=008814 GeodesicLength=0.1529967837453672 rxn_smarts="[N:1]([c:2]1[c:3]([O:4][H:10])[n:5]([H:11])[c:6]([H:12])[c:7]1[H:13])([H:8])[H:9]>>[N:1]([C:2]1=[C-:3][N:5]([H:11])[C@:6]([O:4][H:10])([H:12])[C+:7]1[H:13])([H:8])[H:9]"
N       -1.91138833       0.88718223       0.31137616
C       -0.63042035       0.48808934       0.27159809
C       -0.28481188      -0.87767569       0.83879204
O        0.28682173      -1.57246499      -0.81615600
N        1.11339116      -0.70622394       1.03847548
C        1.40038665      -0.11228040      -0.19384271
C        0.47353565       0.96772706      -0.38060264
H       -2.22297585       1.72333566      -0.14638757
H       -2.49739804       0.47945798       1.01864994
H       -0.33183786      -1.35126752      -1.52244632
H        1.60030278      -1.56969751       1.23225831
H        2.39786821      -0.16855306      -0.61488827
H        0.60652612       1.81237085      -1.03682652
13
Frame=4 idx=008814 GeodesicLength=0.20383453710021368 rxn_smarts="[N:1]([c:2]1[c:3]([O:4][H:10])[n:5]([H:11])[c:6]([H:12])[c:7]1[H:13])([H:8])[H:9]>>[N:1]([C:2]1=[C-:3][N:5]([H:11])[C@:6]([O:4][H:10])([H:12])[C+:7]1[H:13])([H:8])[H:9]"
N       -1.91717476       0.87555844       0.30094412
C       -0.62811909       0.48886693       0.28217080
C       -0.28230036      -0.87732337       0.83311315
O        0.28514694      -1.58234360      -0.82862920
N        1.11120792      -0.71533672       1.02701536
C        1.40341932      -0.11258425      -0.20341003
C        0.47738363       0.97150799      -0.36917733
H       -2.22917504       1.69840195      -0.18046874
H       -2.48870194       0.51589080       1.04526523
H       -0.35302475      -1.36169020      -1.51729549
H        1.60319750      -1.57303856       1.23120580
H        2.40958522      -0.15130007      -0.60428156
H        0.60855542       1.82339066      -1.01645211
13
Frame=5 idx=008814 GeodesicLength=0.25482718600297527 rxn_smarts="[N:1]([c:2]1[c:3]([O:4][H:10])[n:5]([H:11])[c:6]([H:12])[c:7]1[H:13])([H:8])[H:9]>>[N:1]([C:2]1=[C-:3][N:5]([H:11])[C@:6]([O:4][H:10])([H:12])[C+:7]1[H:13])([H:8])[H:9]"
N       -1.92262053       0.86473116       0.29302446
C       -0.62632040       0.48894359       0.29189976
C       -0.28004789      -0.87743451       0.82681169
O        0.28395478      -1.59272774      -0.84158997
N        1.10869739      -0.72444094       1.01514293
C        1.40630045      -0.11269820      -0.21329658
C        0.48084357       0.97495593      -0.35819851
H       -2.23493917       1.67291932      -0.21284392
H       -2.47969166       0.55423815       1.06992628
H       -0.37322083      -1.37339934      -1.51237902
H        1.60599426      -1.57593453       1.23031405
H        2.42100331      -0.13336829      -0.59260229
H        0.61004672       1.83421540      -0.99620888
13
Frame=6 idx=008814 GeodesicLength=0.3057847498480647 rxn_smarts="[N:1]([c:2]1[c:3]([O:4][H:10])[n:5]([H:11])[c:6]([H:12])[c:7]1[H:13])([H:8])[H:9]>>[N:1]([C:2]1=[C-:3][N:5]([H:11])[C@:6]([O:4][H:10])([H:12])[C+:7]1[H:13])([H:8])[H:9]"
N       -1.92724590       0.85418007       0.28641195
C       -0.62422604       0.48908576       0.30217214
C       -0.27738019      -0.87723367       0.82090866
O        0.28200924      -1.60315764      -0.85439488
N        1.10659165      -0.73328352       1.00274431
C        1.40889498      -0.11266387      -0.22376155
C        0.48425932       0.97829550      -0.34708107
H       -2.23938303       1.64681836      -0.24380272
H       -2.47128618       0.59213476       1.09000787
H       -0.39428930      -1.38585786      -1.50628212
H        1.60918159      -1.57820177       1.22905861
H        2.43139612      -0.11536262      -0.58099854
H        0.61147776       1.84524650      -0.97498266
13
Frame=7 idx=008814 GeodesicLength=0.35685881239448825 rxn_smarts="[N:1]([c:2]1[c:3]([O:4][H:10])[n:5]([H:11])[c:6]([H:12])[c:7]1[H:13])([H:8])[H:9]>>[N:1]([C:2]1=[C-:3][N:5]([H:11])[C@:6]([O:4][H:10])([H:12])[C+:7]1[H:13])([H:8])[H:9]"
N       -1.93176409       0.84433235       0.28129013
C       -0.62241008       0.48886239       0.31205737
C       -0.27478495      -0.87730952       0.81477887
O        0.28025637      -1.61397403      -0.86740299
N        1.10451451      -0.74213128       0.99001985
C        1.41151673      -0.11242351      -0.23456959
C        0.48751037       0.98148943      -0.33628651
H       -2.24312122       1.62146320      -0.27224714
H       -2.46341091       0.63020724       1.10726867
H       -0.41486501      -1.39940519      -1.49992706
H        1.61260016      -1.58008716       1.22802552
H        2.44146035      -0.09703973      -0.56877533
H        0.61249777       1.85601582      -0.95423179
13
Frame=8 idx=008814 GeodesicLength=0.40797168168591896 rxn_smarts="[N:1]([c:2]1[c:3]([O:4][H:10])[n:5]([H:11])[c:6]([H:12])[c:7]1[H:13])([H:8])[H:9]>>[N:1]([C:2]1=[C-:3][N:5]([H:11])[C@:6]([O:4][H:10])([H:12])[C+:7]1[H:13])([H:8])[H:9]"
N       -1.93606768       0.83506965       0.27780386
C       -0.62089204       0.48807670       0.32133532
C       -0.27239237      -0.87773521       0.80799594
O        0.27885785      -1.62506080      -0.88096831
N        1.10211889      -0.75098474       0.97686739
C        1.41398452      -0.11192472      -0.24557004
C        0.49048464       0.98440053      -0.32571416
H       -2.24654228       1.59544633      -0.29933575
H       -2.45476734       0.66995468       1.12323379
H       -0.43455633      -1.41400083      -1.49379574
H        1.61582157      -1.58144519       1.22710211
H        2.45085817      -0.07828831      -0.55555731
H        0.61309240       1.86649191      -0.93339711
13
Frame=9 idx=008814 GeodesicLength=0.45912499000825086 rxn_smarts="[N:1]([c:2]1[c:3]([O:4][H:10])[n:5]([H:11])[c:6]([H:12])[c:7]1[H:13])([H:8])[H:9]>>[N:1]([C:2]1=[C-:3][N:5]([H:11])[C@:6]([O:4][H:10])([H:12])[C+:7]1[H:13])([H:8])[H:9]"
N       -1.93980810       0.82585743       0.27483387
C       -0.61901163       0.48751224       0.33146988
C       -0.26953843      -0.87785499       0.80173568
O        0.27664250      -1.63603090      -0.89439331
N        1.10022428      -0.75973116       0.96318097
C        1.41625523      -0.11121152      -0.25710764
C        0.49354346       0.98738217      -0.31473662
H       -2.24885982       1.56868712      -0.32568885
H       -2.44687654       0.70925727       1.13537408
H       -0.45514702      -1.42910142      -1.48631286
H        1.61956176      -1.58233937       1.22571776
H        2.45916120      -0.05985450      -0.54288113
H        0.61385310       1.87742764      -0.91119183
13
Frame=10 idx=008814 GeodesicLength=0.5103246793035535 rxn_smarts="[N:1]([c:2]1[c:3]([O:4][H:10])[n:5]([H:11])[c:6]([H:12])[c:7]1[H:13])([H:8])[H:9]>>[N:1]([C:2]1=[C-:3][N:5]([H:11])[C@:6]([O:4][H:10])([H:12])[C+:7]1[H:13])([H:8])[H:9]"
N       -1.94349784       0.81726095       0.27300914
C       -0.61733780       0.48658933       0.34126825
C       -0.26683014      -0.87825181       0.79508756
O        0.27464355      -1.64719205      -0.90819257
N        1.09822077      -0.76850346       0.94921566
C        1.41855198      -0.11016544      -0.26876511
C        0.49651022       0.99025460      -0.30388965
H       -2.25068110       1.54245594      -0.34995309
H       -2.43900000       0.74880862       1.14557330
H       -0.47502380      -1.44508557      -1.47882636
H        1.62331447      -1.58274850       1.22462297
H        2.46689871      -0.04134392      -0.52966656
H        0.61423099       1.88792130      -0.88948352
13
Frame=11 idx=008814 GeodesicLength=0.561525444698435 rxn_smarts="[N:1]([c:2]1[c:3]([O:4][H:10])[n:5]([H:11])[c:6]([H:12])[c:7]1[H:13])([H:8])[H:9]>>[N:1]([C:2]1=[C-:3][N:5]([H:11])[C@:6]([O:4][H:10])([H:12])[C+:7]1[H:13])([H:8])[H:9]"
N       -1.94697800       0.80906046       0.27220154
C       -0.61574507       0.48539053       0.35101940
C       -0.26412447      -0.87881260       0.78810254
O        0.27273636      -1.65841062      -0.92237482
N        1.09612414      -0.77730496       0.93478299
C        1.42070654      -0.10879892      -0.28059170
C        0.49931866       0.99301372      -0.29292735
H       -2.25208082       1.51557182      -0.37311570
H       -2.43069440       0.78941580       1.15392218
H       -0.49436243      -1.46186763      -1.47108557
H        1.62705522      -1.58264116       1.22346866
H        2.47372802      -0.02292714      -0.51615355
H        0.61431624       1.89831069      -0.86724863
13
Frame=12 idx=008814 GeodesicLength=0.6129519386447091 rxn_smarts="[N:1]([c:2]1[c:3]([O:4][H:10])[n:5]([H:11])[c:6]([H:12])[c:7]1[H:13])([H:8])[H:9]>>[N:1]([C:2]1=[C-:3][N:5]([H:11])[C@:6]([O:4][H:10])([H:12])[C+:7]1[H:13])([H:8])[H:9]"
N       -1.95041750       0.80117396       0.27220800
C       -0.61414739       0.48406787       0.36107906
C       -0.26134895      -0.87950851       0.78113903
O        0.27058168      -1.66956839      -0.93687923
N        1.09422772      -0.78625887       0.91996553
C        1.42287126      -0.10710516      -0.29269679
C        0.50215880       0.99579814      -0.28175061
H       -2.25324374       1.48775973      -0.39570659
H       -2.42246360       0.83085881       1.16020777
H       -0.51369068      -1.47923238      -1.46288792
H        1.63111013      -1.58220061       1.22231257
H        2.47988746      -0.00479584      -0.50284486
H        0.61447481       1.90901125      -0.84414594
13
Frame=13 idx=008814 GeodesicLength=0.6644043715231739 rxn_smarts="[N:1]([c:2]1[c:3]([O:4][H:10])[n:5]([H:11])[c:6]([H:12])[c:7]1[H:13])([H:8])[H:9]>>[N:1]([C:2]1=[C-:3][N:5]([H:11])[C@:6]([O:4][H:10])([H:12])[C+:7]1[H:13])([H:8])[H:9]"
N       -1.95326871       0.79320055       0.27257571
C       -0.61221646       0.48282430       0.37194791
C       -0.25822452      -0.88000146       0.77443051
O        0.26760159      -1.68042684      -0.95148632
N        1.09258835      -0.79512581       0.90451497
C        1.42467230      -0.10499443      -0.30515487
C        0.50504399       0.99868058      -0.26992309
H       -2.25338098       1.45818976      -0.41821903
H       -2.41422022       0.87275942       1.16341070
H       -0.53368710      -1.49712056      -1.45345840
H        1.63543880      -1.58110398       1.22062159
H        2.48475055       0.01283973      -0.49030289
H        0.61490242       1.92027877      -0.81895678
13
Frame=14 idx=008814 GeodesicLength=0.7159711742546806 rxn_smarts="[N:1]([c:2]1[c:3]([O:4][H:10])[n:5]([H:11])[c:6]([H:12])[c:7]1[H:13])([H:8])[H:9]>>[N:1]([C:2]1=[C-:3][N:5]([H:11])[C@:6]([O:4][H:10])([H:12])[C+:7]1[H:13])([H:8])[H:9]"
N       -1.95612625       0.78570251       0.27378728
C       -0.61038228       0.48135850       0.38292800
C       -0.25514996      -0.88068818       0.76752259
O        0.26461805      -1.69124922      -0.96650363
N        1.09094772      -0.80410249       0.88871061
C        1.42644566      -0.10248427      -0.31773299
C        0.50788753       1.00154191      -0.25791362
H       -2.25323319       1.42825795      -0.43947955
H       -2.40588972       0.91528591       1.16464343
H       -0.55316012      -1.51569356      -1.44380859
H        1.63988204      -1.57949096       1.21909672
H        2.48896837       0.03008849      -0.47791297
H        0.61519215       1.93147342      -0.79333727
13
Frame=15 idx=008814 GeodesicLength=0.7675947480658383 rxn_smarts="[N:1]([c:2]1[c:3]([O:4][H:10])[n:5]([H:11])[c:6]([H:12])[c:7]1[H:13])([H:8])[H:9]>>[N:1]([C:2]1=[C-:3][N:5]([H:11])[C@:6]([O:4][H:10])([H:12])[C+:7]1[H:13])([H:8])[H:9]"
N       -1.95881597       0.77857923       0.27568166
C       -0.60853604       0.47973471       0.39417721
C       -0.25206282      -0.88146289       0.76045736
O        0.26145220      -1.70192921      -0.98189710
N        1.08929517      -0.81311453       0.87247987
C        1.42807198      -0.09952780      -0.33041620
C        0.51071032       1.00440916      -0.24556185
H       -2.25253956       1.39785885      -0.45954290
H       -2.39741865       0.95813962       1.16360142
H       -0.57229562      -1.53493420      -1.43371943
H        1.64437663      -1.57720901       1.21762173
H        2.49238008       0.04686716      -0.46583956
H        0.61538229       1.94258891      -0.76704221
13
Frame=16 idx=008814 GeodesicLength=0.8192490659398406 rxn_smarts="[N:1]([c:2]1[c:3]([O:4][H:10])[n:5]([H:11])[c:6]([H:12])[c:7]1[H:13])([H:8])[H:9]>>[N:1]([C:2]1=[C-:3][N:5]([H:11])[C@:6]([O:4][H:10])([H:12])[C+:7]1[H:13])([H:8])[H:9]"
N       -1.96134555       0.77188621       0.27825895
C       -0.60669169       0.47794295       0.40567055
C       -0.24900390      -0.88232562       0.75317812
O        0.25815631      -1.71245202      -0.99770337
N        1.08756972      -0.82215407       0.85583721
C        1.42953957      -0.09610998      -0.34314484
C        0.51350833       1.00726946      -0.23285375
H       -2.25130699       1.36720541      -0.47823810
H       -2.38875163       1.00115081       1.16035309
H       -0.59093801      -1.55484344      -1.42328614
H        1.64883370      -1.57417667       1.21627137
H        2.49501963       0.06311852      -0.45408175
H        0.61541048       1.95348844      -0.74026133
