15
Frame=0 idx=006518 GeodesicLength=0.0 rxn_smarts="[C:1]([C@@:2]1([H:11])[C:3]([H:12])([H:13])[O:4][C@:5]1([C:6]#[C:7][H:15])[H:14])([H:8])([H:9])[H:10]>>[C:1]([C@@:2]1([H:11])[C:3]([H:12])([H:13])[O:4][C:5]1=[C:6]=[C:7]([H:14])[H:15])([H:8])([H:9])[H:10]"
C       -1.17918048       1.30208013       0.34263792
C       -0.67258512      -0.11742136       0.51144768
C       -1.19150310      -1.18235045      -0.46986929
O        0.14586351      -1.32536492      -1.02815609
C        0.65316214      -0.41525831      -0.16716517
C        1.96016475      -0.05065253      -0.01857889
C        3.23923410       0.08165136      -0.25676514
H       -2.21316298       1.38452347       0.68201331
H       -0.57082436       1.99327459       0.92664358
H       -1.13315516       1.61228333      -0.70306736
H       -0.72044007      -0.43045953       1.55390568
H       -1.88700095      -0.83295295      -1.23261963
H       -1.53250304      -2.12200188      -0.03654842
H        1.63314435      -0.64595373       0.98957657
H        3.46878635       0.74860276      -1.09345469
15
Frame=1 idx=006518 GeodesicLength=0.09411302537398628 rxn_smarts="[C:1]([C@@:2]1([H:11])[C:3]([H:12])([H:13])[O:4][C@:5]1([C:6]#[C:7][H:15])[H:14])([H:8])([H:9])[H:10]>>[C:1]([C@@:2]1([H:11])[C:3]([H:12])([H:13])[O:4][C:5]1=[C:6]=[C:7]([H:14])[H:15])([H:8])([H:9])[H:10]"
C       -1.18510625       1.29898014       0.34684279
C       -0.67758304      -0.12026911       0.51359174
C       -1.19455027      -1.18330684      -0.47077264
O        0.14435566      -1.33555696      -1.02059399
C        0.65090137      -0.42226420      -0.15818362
C        1.94383983       0.00053369      -0.04746782
C        3.22850454       0.06809391      -0.26244476
H       -2.22071834       1.37994780       0.68158329
H       -0.57952189       1.98908598       0.93515111
H       -1.13441771       1.61251809      -0.69764987
H       -0.72815459      -0.43541852       1.55534751
H       -1.88450433      -0.83009287      -1.23717050
H       -1.54572901      -2.12023502      -0.03929809
H        1.66362121      -0.62862122       0.98705783
H        3.51906282       0.72660513      -1.08599298
15
Frame=2 idx=006518 GeodesicLength=0.1882055876086129 rxn_smarts="[C:1]([C@@:2]1([H:11])[C:3]([H:12])([H:13])[O:4][C@:5]1([C:6]#[C:7][H:15])[H:14])([H:8])([H:9])[H:10]>>[C:1]([C@@:2]1([H:11])[C:3]([H:12])([H:13])[O:4][C:5]1=[C:6]=[C:7]([H:14])[H:15])([H:8])([H:9])[H:10]"
C       -1.18499863       1.29635995       0.34793365
C       -0.68111351      -0.12395535       0.51520187
C       -1.20076204      -1.18547679      -0.46933384
O        0.13844072      -1.35250882      -1.01172369
C        0.64860064      -0.43614555      -0.15011900
C        1.92674746       0.03811299      -0.08197818
C        3.21333079       0.05761837      -0.27384672
H       -2.22159068       1.38004735       0.67896537
H       -0.57928327       1.98466249       0.93835884
H       -1.12986597       1.61075356      -0.69607248
H       -0.73450937      -0.43875286       1.55698767
H       -1.88466281      -0.82779797      -1.23944837
H       -1.56468297      -2.11751437      -0.03743896
H        1.69503903      -0.61907591       0.98126325
H        3.55931061       0.73367291      -1.05874941
15
Frame=3 idx=006518 GeodesicLength=0.2821529618108402 rxn_smarts="[C:1]([C@@:2]1([H:11])[C:3]([H:12])([H:13])[O:4][C@:5]1([C:6]#[C:7][H:15])[H:14])([H:8])([H:9])[H:10]>>[C:1]([C@@:2]1([H:11])[C:3]([H:12])([H:13])[O:4][C:5]1=[C:6]=[C:7]([H:14])[H:15])([H:8])([H:9])[H:10]"
C       -1.18289189       1.29388501       0.34857033
C       -0.68404677      -0.12792032       0.51683447
C       -1.20689395      -1.18754794      -0.46797177
O        0.13261227      -1.37087952      -1.00181211
C        0.64714107      -0.45175826      -0.14089872
C        1.90890730       0.06989245      -0.11710489
C        3.19584538       0.05485125      -0.28353686
H       -2.22050906       1.38129536       0.67542834
H       -0.57671547       1.97992914       0.94128659
H       -1.12268150       1.60887636      -0.69496954
H       -0.74135617      -0.44213684       1.55866002
H       -1.88366539      -0.82487522      -1.24240511
H       -1.58474130      -2.11409071      -0.03583045
H        1.72664043      -0.61191996       0.97583121
H        3.59235506       0.74239921      -1.03208151
15
Frame=4 idx=006518 GeodesicLength=0.37608116021812527 rxn_smarts="[C:1]([C@@:2]1([H:11])[C:3]([H:12])([H:13])[O:4][C@:5]1([C:6]#[C:7][H:15])[H:14])([H:8])([H:9])[H:10]>>[C:1]([C@@:2]1([H:11])[C:3]([H:12])([H:13])[O:4][C:5]1=[C:6]=[C:7]([H:14])[H:15])([H:8])([H:9])[H:10]"
C       -1.17898640       1.29163035       0.34854891
C       -0.68633342      -0.13197386       0.51838771
C       -1.21318101      -1.18962734      -0.46631070
O        0.12636154      -1.39070387      -0.99101799
C        0.64626851      -0.46880187      -0.13120212
C        1.89024899       0.09612023      -0.15346293
C        3.17668603       0.05680921      -0.29315371
H       -2.21751705       1.38371881       0.67123219
H       -0.57182909       1.97518871       0.94326750
H       -1.11360061       1.60670931      -0.69464614
H       -0.74818131      -0.44513863       1.56034986
H       -1.88213909      -0.82174005      -1.24542217
H       -1.60579427      -2.10997661      -0.03371802
H        1.75850179      -0.60783889       0.96979665
H        3.61949540       0.75562449      -1.00264904
15
Frame=5 idx=006518 GeodesicLength=0.4700246188198997 rxn_smarts="[C:1]([C@@:2]1([H:11])[C:3]([H:12])([H:13])[O:4][C@:5]1([C:6]#[C:7][H:15])[H:14])([H:8])([H:9])[H:10]>>[C:1]([C@@:2]1([H:11])[C:3]([H:12])([H:13])[O:4][C:5]1=[C:6]=[C:7]([H:14])[H:15])([H:8])([H:9])[H:10]"
C       -1.17373586       1.28962254       0.34793974
C       -0.68795694      -0.13592564       0.51980264
C       -1.21951644      -1.19168748      -0.46427303
O        0.11969742      -1.41162366      -0.97947857
C        0.64588605      -0.48656988      -0.12150138
C        1.87081935       0.11754629      -0.19120319
C        3.15626225       0.06197108      -0.30311383
H       -2.21301621       1.38701342       0.66667835
H       -0.56517279       1.97065053       0.94425703
H       -1.10341219       1.60430787      -0.69504401
H       -0.75461645      -0.44757875       1.56200752
H       -1.88022642      -0.81860552      -1.24829402
H       -1.62738732      -2.10518674      -0.03090197
H        1.79059251      -0.60685656       0.96270256
H        3.64178302       0.77292249      -0.96957783
15
Frame=6 idx=006518 GeodesicLength=0.5639887582447377 rxn_smarts="[C:1]([C@@:2]1([H:11])[C:3]([H:12])([H:13])[O:4][C@:5]1([C:6]#[C:7][H:15])[H:14])([H:8])([H:9])[H:10]>>[C:1]([C@@:2]1([H:11])[C:3]([H:12])([H:13])[O:4][C:5]1=[C:6]=[C:7]([H:14])[H:15])([H:8])([H:9])[H:10]"
C       -1.16746109       1.28787405       0.34683469
C       -0.68892257      -0.13965836       0.52106880
C       -1.22572861      -1.19367388      -0.46188997
O        0.11277581      -1.43326083      -0.96728555
C        0.64598145      -0.50453782      -0.11198225
C        1.85068699       0.13488001      -0.23016758
C        3.13480670       0.06977360      -0.31324999
H       -2.20733157       1.39094391       0.66190544
H       -0.55719380       1.96642995       0.94435885
H       -1.09256199       1.60176493      -0.69605949
H       -0.76049886      -0.44940393       1.56360809
H       -1.87788360      -0.81555068      -1.25099327
H       -1.64910516      -2.09975089      -0.02743625
H        1.82294961      -0.60903832       0.95440869
H        3.65948668       0.79320826      -0.93312021
15
Frame=7 idx=006518 GeodesicLength=0.6579895003837571 rxn_smarts="[C:1]([C@@:2]1([H:11])[C:3]([H:12])([H:13])[O:4][C@:5]1([C:6]#[C:7][H:15])[H:14])([H:8])([H:9])[H:10]>>[C:1]([C@@:2]1([H:11])[C:3]([H:12])([H:13])[O:4][C:5]1=[C:6]=[C:7]([H:14])[H:15])([H:8])([H:9])[H:10]"
C       -1.16032706       1.28640196       0.34525174
C       -0.68920198      -0.14308997       0.52215621
C       -1.23175375      -1.19557348      -0.45913002
O        0.10561329      -1.45540968      -0.95453512
C        0.64652887      -0.52238220      -0.10288972
C        1.82991858       0.14856868      -0.27041763
C        3.11241737       0.07972465      -0.32350918
H       -2.20061446       1.39539014       0.65701594
H       -0.54809719       1.96262029       0.94354618
H       -1.08135006       1.59912069      -0.69768196
H       -0.76560191      -0.45053729       1.56512955
H       -1.87519156      -0.81267265      -1.25341437
H       -1.67069505      -2.09369676      -0.02324123
H        1.85563953      -0.61454613       0.94467461
H        3.67271538       0.81608173      -0.89295500
15
Frame=8 idx=006518 GeodesicLength=0.7520339416814847 rxn_smarts="[C:1]([C@@:2]1([H:11])[C:3]([H:12])([H:13])[O:4][C@:5]1([C:6]#[C:7][H:15])[H:14])([H:8])([H:9])[H:10]>>[C:1]([C@@:2]1([H:11])[C:3]([H:12])([H:13])[O:4][C:5]1=[C:6]=[C:7]([H:14])[H:15])([H:8])([H:9])[H:10]"
C       -1.15273101       1.28519365       0.34341577
C       -0.68886734      -0.14614577       0.52310007
C       -1.23723561      -1.19727104      -0.45623366
O        0.09870010      -1.47752019      -0.94127167
C        0.64762654      -0.53950535      -0.09412177
C        1.80866518       0.15949596      -0.31130511
C        3.08920235       0.09223154      -0.33252878
H       -2.19335081       1.40000635       0.65206062
H       -0.53857522       1.95924751       0.94230361
H       -1.07006050       1.59659333      -0.69961294
H       -0.77002835      -0.45111741       1.56653989
H       -1.87176898      -0.80989449      -1.25583351
H       -1.69163707      -2.08708477      -0.01878338
H        1.88854081      -0.62315936       0.93397130
H        3.68151991       0.83893004      -0.85170044
15
Frame=9 idx=006518 GeodesicLength=0.8461620771156784 rxn_smarts="[C:1]([C@@:2]1([H:11])[C:3]([H:12])([H:13])[O:4][C@:5]1([C:6]#[C:7][H:15])[H:14])([H:8])([H:9])[H:10]>>[C:1]([C@@:2]1([H:11])[C:3]([H:12])([H:13])[O:4][C:5]1=[C:6]=[C:7]([H:14])[H:15])([H:8])([H:9])[H:10]"
C       -1.14443329       1.28428700       0.34112925
C       -0.68780428      -0.14881411       0.52383215
C       -1.24241870      -1.19885516      -0.45295823
O        0.09162836      -1.49984394      -0.92757656
C        0.64918058      -0.55611433      -0.08606515
C        1.78693443       0.16741143      -0.35351392
C        3.06499749       0.10666017      -0.34086824
H       -2.18522630       1.40500006       0.64704155
H       -0.52818414       1.95637828       0.94019392
H       -1.05864992       1.59405478      -0.70211933
H       -0.77338648      -0.45095075       1.56784408
H       -1.86805299      -0.80737883      -1.25789158
H       -1.71211731      -2.07990435      -0.01356967
H        1.92188618      -0.63550304       0.92161465
H        3.68564636       0.86357277      -0.80709292
15
Frame=10 idx=006518 GeodesicLength=0.9404082765088718 rxn_smarts="[C:1]([C@@:2]1([H:11])[C:3]([H:12])([H:13])[O:4][C@:5]1([C:6]#[C:7][H:15])[H:14])([H:8])([H:9])[H:10]>>[C:1]([C@@:2]1([H:11])[C:3]([H:12])([H:13])[O:4][C:5]1=[C:6]=[C:7]([H:14])[H:15])([H:8])([H:9])[H:10]"
C       -1.13567448       1.28367249       0.33855024
C       -0.68609000      -0.15106696       0.52438573
C       -1.24703511      -1.20024142      -0.44951949
O        0.08479108      -1.52193934      -0.91351284
C        0.65127701      -0.57183588      -0.07856650
C        1.76488550       0.17292140      -0.39641404
C        3.03969475       0.12375201      -0.34675980
H       -2.17656051       1.41015857       0.64193860
H       -0.51738242       1.95400232       0.93760122
H       -1.04720334       1.59166678      -0.70498286
H       -0.77582869      -0.45017945       1.56902028
H       -1.86374724      -0.80503691      -1.25982913
H       -1.73175974      -2.07222750      -0.00802134
H        1.95554186      -0.65165502       0.90809359
H        3.68509133       0.88800892      -0.76198366
15
Frame=11 idx=006518 GeodesicLength=1.0348558134642205 rxn_smarts="[C:1]([C@@:2]1([H:11])[C:3]([H:12])([H:13])[O:4][C@:5]1([C:6]#[C:7][H:15])[H:14])([H:8])([H:9])[H:10]>>[C:1]([C@@:2]1([H:11])[C:3]([H:12])([H:13])[O:4][C:5]1=[C:6]=[C:7]([H:14])[H:15])([H:8])([H:9])[H:10]"
C       -1.12618209       1.28337465       0.33551919
C       -0.68363090      -0.15292343       0.52470536
C       -1.25125937      -1.20148863      -0.44576927
O        0.07790355      -1.54397962      -0.89916804
C        0.65386824      -0.58689462      -0.07187603
C        1.74257158       0.17574145      -0.44046233
C        3.01289178       0.14363277      -0.34976648
H       -2.16702553       1.41568350       0.63671970
H       -0.50572414       1.95212991       0.93420421
H       -1.03555245       1.58932747      -0.70841193
H       -0.77707726      -0.44869435       1.57006539
H       -1.85916388      -0.80295085      -1.26141090
H       -1.75071504      -2.06404351      -0.00182188
H        1.98967837      -0.67237250       0.89289627
H        3.67941714       0.91345778      -0.71542328
15
Frame=12 idx=006518 GeodesicLength=1.1296213417141883 rxn_smarts="[C:1]([C@@:2]1([H:11])[C:3]([H:12])([H:13])[O:4][C@:5]1([C:6]#[C:7][H:15])[H:14])([H:8])([H:9])[H:10]>>[C:1]([C@@:2]1([H:11])[C:3]([H:12])([H:13])[O:4][C:5]1=[C:6]=[C:7]([H:14])[H:15])([H:8])([H:9])[H:10]"
C       -1.11570602       1.28340885       0.33191904
C       -0.68034438      -0.15440596       0.52475201
C       -1.25517629      -1.20262199      -0.44162941
O        0.07081485      -1.56605772      -0.88459692
C        0.65695062      -0.60145142      -0.06614450
C        1.72009172       0.17564940      -0.48592476
C        2.98396006       0.16678371      -0.34889930
H       -2.15634108       1.42172881       0.63131455
H       -0.49285458       1.95074541       0.92981060
H       -1.02347352       1.58697393      -0.71255031
H       -0.77692350      -0.44643751       1.57097395
H       -1.85446896      -0.80115043      -1.26251132
H       -1.76906035      -2.05533023       0.00520586
H        2.02446330      -0.69840899       0.87559663
H        3.66806813       0.94057415      -0.66731611
15
Frame=13 idx=006518 GeodesicLength=1.2249158238494189 rxn_smarts="[C:1]([C@@:2]1([H:11])[C:3]([H:12])([H:13])[O:4][C@:5]1([C:6]#[C:7][H:15])[H:14])([H:8])([H:9])[H:10]>>[C:1]([C@@:2]1([H:11])[C:3]([H:12])([H:13])[O:4][C:5]1=[C:6]=[C:7]([H:14])[H:15])([H:8])([H:9])[H:10]"
C       -1.10380584       1.28379779       0.32753771
C       -0.67606336      -0.15554796       0.52445650
C       -1.25894097      -1.20369024      -0.43693146
O        0.06323707      -1.58839655      -0.86986552
C        0.66052332      -0.61581041      -0.06163493
C        1.69755615       0.17217007      -0.53333128
C        2.95187047       0.19371301      -0.34327037
H       -2.14399721       1.42856308       0.62563164
H       -0.47812599       1.94982901       0.92403465
H       -1.01061615       1.58447122      -0.71766360
H       -0.77498788      -0.44328285       1.57173873
H       -1.84995392      -0.79969971      -1.26288449
H       -1.78694943      -2.04602645       0.01343085
H        2.06024108      -0.73071956       0.85532485
H        3.65001264       0.97062956      -0.61657327
15
Frame=14 idx=006518 GeodesicLength=1.3210749892458422 rxn_smarts="[C:1]([C@@:2]1([H:11])[C:3]([H:12])([H:13])[O:4][C@:5]1([C:6]#[C:7][H:15])[H:14])([H:8])([H:9])[H:10]>>[C:1]([C@@:2]1([H:11])[C:3]([H:12])([H:13])[O:4][C:5]1=[C:6]=[C:7]([H:14])[H:15])([H:8])([H:9])[H:10]"
C       -1.09010860       1.28455014       0.32222489
C       -0.67063546      -0.15637747       0.52378012
C       -1.26257204      -1.20470270      -0.43158217
O        0.05507679      -1.61111187      -0.85496737
C        0.66464927      -0.63015744      -0.05848191
C        1.67512712       0.16504623      -0.58293397
C        2.91514688       0.22479092      -0.33194848
H       -2.12958325       1.43637044       0.61954214
H       -0.46105647       1.94934203       0.91665380
H       -0.99661041       1.58173422      -0.72392631
H       -0.77096165      -0.43915890       1.57235762
H       -1.84570173      -0.79861399      -1.26241228
H       -1.80441192      -2.03606206       0.02305609
H        2.09750515      -0.76979785       0.83120388
H        3.62413632       1.00414831      -0.56256607
15
Frame=15 idx=006518 GeodesicLength=1.4184536362362752 rxn_smarts="[C:1]([C@@:2]1([H:11])[C:3]([H:12])([H:13])[O:4][C@:5]1([C:6]#[C:7][H:15])[H:14])([H:8])([H:9])[H:10]>>[C:1]([C@@:2]1([H:11])[C:3]([H:12])([H:13])[O:4][C:5]1=[C:6]=[C:7]([H:14])[H:15])([H:8])([H:9])[H:10]"
C       -1.07493122       1.28563680       0.31614882
C       -0.66414993      -0.15685498       0.52280703
C       -1.26570332      -1.20558256      -0.42576369
O        0.04687843      -1.63372466      -0.83985670
C        0.66947844      -0.64405914      -0.05640674
C        1.65296045       0.15528063      -0.63388103
C        2.87235683       0.25922016      -0.31484318
H       -2.11350885       1.44487843       0.61297893
H       -0.44223797       1.94929022       0.90807585
H       -0.98157424       1.57889849      -0.73110071
H       -0.76499945      -0.43419252       1.57285589
H       -1.84129858      -0.79783641      -1.26133782
H       -1.82096875      -2.02554505       0.03366993
H        2.13677831      -0.81420852       0.80315397
H        3.59091986       1.03879913      -0.50650055
15
Frame=16 idx=006518 GeodesicLength=1.5167225787507235 rxn_smarts="[C:1]([C@@:2]1([H:11])[C:3]([H:12])([H:13])[O:4][C@:5]1([C:6]#[C:7][H:15])[H:14])([H:8])([H:9])[H:10]>>[C:1]([C@@:2]1([H:11])[C:3]([H:12])([H:13])[O:4][C:5]1=[C:6]=[C:7]([H:14])[H:15])([H:8])([H:9])[H:10]"
C       -1.06068260       1.28692800       0.31040489
C       -0.65753300      -0.15678798       0.52195524
C       -1.26719734      -1.20608947      -0.42041231
O        0.04066484      -1.65435484      -0.82438771
C        0.67519385      -0.65550975      -0.05404317
C        1.63093551       0.14706888      -0.68270457
C        2.82401505       0.29382747      -0.29391776
H       -2.09864151       1.45255868       0.60617970
H       -0.42536260       1.94981299       0.90046945
H       -0.96722123       1.57671625      -0.73778055
H       -0.75878299      -0.42909159       1.57334099
H       -1.83518149      -0.79714667      -1.26090987
H       -1.83514409      -2.01512391       0.04319061
H        2.17791037      -0.85795622       0.77421968
H        3.55702724       1.06514816      -0.45560461
