13
Frame=0 idx=011260 GeodesicLength=0.0 rxn_smarts="[C:1]([C@@:2]1([H:11])[O:3][C:4](=[O:5])[C:6]([H:12])=[C:7]1[H:13])([H:8])([H:9])[H:10]>>[C:1]([C:2]([O:3][C:4](=[O:5])[C:6](=[C:7])[H:12])([H:11])[H:13])([H:8])([H:9])[H:10]"
C       -2.04892320      -0.35718260      -0.10297710
C       -0.64325152       0.17983552       0.02475333
O        0.26172572      -0.90528178      -0.16795576
C        1.58131659      -0.71474396      -0.11167784
O        2.34716807      -1.61567245      -0.27431217
C        2.05037684       0.67890744       0.16426525
C        1.46123921       1.81369107       0.37153172
H       -2.23422775      -1.12710696       0.64575307
H       -2.76425236       0.45222492       0.04576535
H       -2.20696537      -0.78655790      -1.09209255
H       -0.48547670       0.61342902       1.01891321
H        3.13506070       0.81933385       0.21060211
H       -0.45379028       0.94912387      -0.73256860
13
Frame=1 idx=011260 GeodesicLength=0.11655545580477798 rxn_smarts="[C:1]([C@@:2]1([H:11])[O:3][C:4](=[O:5])[C:6]([H:12])=[C:7]1[H:13])([H:8])([H:9])[H:10]>>[C:1]([C:2]([O:3][C:4](=[O:5])[C:6](=[C:7])[H:12])([H:11])[H:13])([H:8])([H:9])[H:10]"
C       -2.03929747      -0.35195892      -0.10224755
C       -0.63110623       0.17915705       0.02430903
O        0.26524677      -0.91265538      -0.16946042
C        1.58557851      -0.72886645      -0.09230641
O        2.35426100      -1.62027038      -0.28879113
C        2.04262912       0.66753989       0.18676985
C        1.41017442       1.78538207       0.36073829
H       -2.22810292      -1.11718887       0.65049948
H       -2.75123759       0.46087365       0.04475766
H       -2.20003268      -0.78228073      -1.09049234
H       -0.48698260       0.61378937       1.02111992
H        3.12322746       0.83548628       0.19352009
H       -0.44435778       0.97099242      -0.73841647
13
Frame=2 idx=011260 GeodesicLength=0.2331049232441918 rxn_smarts="[C:1]([C@@:2]1([H:11])[O:3][C:4](=[O:5])[C:6]([H:12])=[C:7]1[H:13])([H:8])([H:9])[H:10]>>[C:1]([C:2]([O:3][C:4](=[O:5])[C:6](=[C:7])[H:12])([H:11])[H:13])([H:8])([H:9])[H:10]"
C       -2.02984932      -0.34730853      -0.10109007
C       -0.61937859       0.17858079       0.02343164
O        0.26886133      -0.91907244      -0.17300721
C        1.58968816      -0.74150044      -0.07697305
O        2.36066302      -1.62482990      -0.29826104
C        2.03510692       0.65787632       0.20393443
C        1.36241515       1.75706350       0.35028706
H       -2.22099148      -1.10845486       0.65527995
H       -2.73871440       0.46842330       0.04537493
H       -2.19390872      -0.77795673      -1.08861984
H       -0.48789529       0.61393852       1.02270753
H        3.11068413       0.84913211       0.18143949
H       -0.43668091       0.99410836      -0.74450381
13
Frame=3 idx=011260 GeodesicLength=0.3496592241426799 rxn_smarts="[C:1]([C@@:2]1([H:11])[O:3][C:4](=[O:5])[C:6]([H:12])=[C:7]1[H:13])([H:8])([H:9])[H:10]>>[C:1]([C:2]([O:3][C:4](=[O:5])[C:6](=[C:7])[H:12])([H:11])[H:13])([H:8])([H:9])[H:10]"
C       -2.02064390      -0.34318144      -0.09954341
C       -0.60809245       0.17801490       0.02216848
O        0.27248867      -0.92471813      -0.17847405
C        1.59360693      -0.75277685      -0.06539642
O        2.36662992      -1.62977048      -0.30309724
C        2.02768297       0.64969645       0.21610761
C        1.31757214       1.72903480       0.33990475
H       -2.21308201      -1.10084777       0.66006122
H       -2.72669189       0.47499973       0.04752057
H       -2.18861497      -0.77352752      -1.08652214
H       -0.48826425       0.61384158       1.02374436
H        3.09812829       0.86076146       0.17417615
H       -0.43071944       1.01847328      -0.75064987
13
Frame=4 idx=011260 GeodesicLength=0.4662087615839924 rxn_smarts="[C:1]([C@@:2]1([H:11])[O:3][C:4](=[O:5])[C:6]([H:12])=[C:7]1[H:13])([H:8])([H:9])[H:10]>>[C:1]([C:2]([O:3][C:4](=[O:5])[C:6](=[C:7])[H:12])([H:11])[H:13])([H:8])([H:9])[H:10]"
C       -2.01171802      -0.33951480      -0.09772543
C       -0.59724594       0.17737325       0.02065725
O        0.27608083      -0.92980287      -0.18532602
C        1.59732839      -0.76295619      -0.05662931
O        2.37235764      -1.63517770      -0.30440236
C        2.02033008       0.64267355       0.22429592
C        1.27533628       1.70140249       0.32955083
H       -2.20468271      -1.09418006       0.66480556
H       -2.71515863       0.48076949       0.05077641
H       -2.18398838      -0.76905913      -1.08428605
H       -0.48828059       0.61360430       1.02433801
H        3.08586246       0.87091842       0.17064354
H       -0.42622142       1.04394927      -0.75669835
13
Frame=5 idx=011260 GeodesicLength=0.582748315236801 rxn_smarts="[C:1]([C@@:2]1([H:11])[O:3][C:4](=[O:5])[C:6]([H:12])=[C:7]1[H:13])([H:8])([H:9])[H:10]>>[C:1]([C:2]([O:3][C:4](=[O:5])[C:6](=[C:7])[H:12])([H:11])[H:13])([H:8])([H:9])[H:10]"
C       -2.00305755      -0.33626513      -0.09575597
C       -0.58681353       0.17658121       0.01905629
O        0.27961766      -0.93452683      -0.19292585
C        1.60085326      -0.77229204      -0.04971103
O        2.37785100      -1.64086631      -0.30341421
C        2.01301708       0.63655533       0.22950096
C        1.23542545       1.67421283       0.31926353
H       -2.19606544      -1.08823229       0.66950725
H       -2.70405128       0.48588520       0.05465073
H       -2.17978304      -0.76471038      -1.08198428
H       -0.48813397       0.61338877       1.02459622
H        3.07402211       0.87991148       0.16975168
H       -0.42288175       1.07035816      -0.76253533
13
Frame=6 idx=011260 GeodesicLength=0.699270354720072 rxn_smarts="[C:1]([C@@:2]1([H:11])[O:3][C:4](=[O:5])[C:6]([H:12])=[C:7]1[H:13])([H:8])([H:9])[H:10]>>[C:1]([C:2]([O:3][C:4](=[O:5])[C:6](=[C:7])[H:12])([H:11])[H:13])([H:8])([H:9])[H:10]"
C       -1.99465228      -0.33339123      -0.09370406
C       -0.57676456       0.17557270       0.01746893
O        0.28309756      -0.93903601      -0.20085240
C        1.60420824      -0.78096703      -0.04405263
O        2.38312551      -1.64670280      -0.30096852
C        2.00574714       0.63112411       0.23243731
C        1.19761937       1.64745673       0.30896442
H       -2.18741479      -1.08283809       0.67416964
H       -2.69332022       0.49046292       0.05883274
H       -2.17584502      -0.76056516      -1.07964905
H       -0.48792425       0.61329481       1.02457253
H        3.06259866       0.88800386       0.17085325
H       -0.42047535       1.09758519      -0.76807217
13
Frame=7 idx=011260 GeodesicLength=0.8157794762007884 rxn_smarts="[C:1]([C@@:2]1([H:11])[O:3][C:4](=[O:5])[C:6]([H:12])=[C:7]1[H:13])([H:8])([H:9])[H:10]>>[C:1]([C:2]([O:3][C:4](=[O:5])[C:6](=[C:7])[H:12])([H:11])[H:13])([H:8])([H:9])[H:10]"
C       -1.98648852      -0.33086521      -0.09161719
C       -0.56707230       0.17429688       0.01596191
O        0.28652546      -0.94342967      -0.20890234
C        1.60741500      -0.78909141      -0.03932807
O        2.38819919      -1.65263340      -0.29741507
C        1.99851896       0.62627340       0.23347471
C        1.16170644       1.62113893       0.29861079
H       -2.17883339      -1.07792483       0.67876619
H       -2.68291771       0.49458212       0.06316607
H       -2.17208390      -0.75663738      -1.07732745
H       -0.48768653       0.61334857       1.02432119
H        3.05157432       0.89532405       0.17348762
H       -0.41885702       1.12561794      -0.77319836
13
Frame=8 idx=011260 GeodesicLength=0.9322739863867106 rxn_smarts="[C:1]([C@@:2]1([H:11])[O:3][C:4](=[O:5])[C:6]([H:12])=[C:7]1[H:13])([H:8])([H:9])[H:10]>>[C:1]([C:2]([O:3][C:4](=[O:5])[C:6](=[C:7])[H:12])([H:11])[H:13])([H:8])([H:9])[H:10]"
C       -1.97855786      -0.32866227      -0.08952153
C       -0.55771052       0.17270433       0.01457670
O        0.28990895      -0.94779025      -0.21694093
C        1.61050096      -0.79674992      -0.03533401
O        2.39309691      -1.65862310      -0.29300030
C        1.99134126       0.62190743       0.23286855
C        1.12751342       1.59524307       0.28811182
H       -2.17039599      -1.07342974       0.68328768
H       -2.67280367       0.49830809       0.06755099
H       -2.16844819      -0.75292926      -1.07504198
H       -0.48742554       0.61356734       1.02386460
H        3.04089320       0.90199416       0.17739790
H       -0.41791294       1.15446012      -0.77781949
13
Frame=9 idx=011260 GeodesicLength=1.0487530339445907 rxn_smarts="[C:1]([C@@:2]1([H:11])[O:3][C:4](=[O:5])[C:6]([H:12])=[C:7]1[H:13])([H:8])([H:9])[H:10]>>[C:1]([C:2]([O:3][C:4](=[O:5])[C:6](=[C:7])[H:12])([H:11])[H:13])([H:8])([H:9])[H:10]"
C       -1.97085166      -0.32676274      -0.08746598
C       -0.54866155       0.17074808       0.01336632
O        0.29325552      -0.95218303      -0.22487593
C        1.61348099      -0.80400559      -0.03188594
O        2.39783685      -1.66467317      -0.28774665
C        1.98419926       0.61796199       0.23086188
C        1.09486424       1.56974610       0.27750659
H       -2.16217602      -1.06933668       0.68766397
H       -2.66294219       0.50169068       0.07190152
H       -2.16487638      -0.74940222      -1.07286141
H       -0.48716234       0.61392196       1.02325683
H        3.03056893       0.90812809       0.18205593
H       -0.41753564       1.18416653      -0.78177715
13
Frame=10 idx=011260 GeodesicLength=1.165221215887584 rxn_smarts="[C:1]([C@@:2]1([H:11])[O:3][C:4](=[O:5])[C:6]([H:12])=[C:7]1[H:13])([H:8])([H:9])[H:10]>>[C:1]([C:2]([O:3][C:4](=[O:5])[C:6](=[C:7])[H:12])([H:11])[H:13])([H:8])([H:9])[H:10]"
C       -1.96336287      -0.32515356      -0.08542564
C       -0.53989937       0.16838689       0.01232044
O        0.29657426      -0.95667141      -0.23267528
C        1.61638722      -0.81090019      -0.02897368
O        2.40245147      -1.67075900      -0.28182813
C        1.97711133       0.61439946       0.22741066
C        1.06363127       1.54463845       0.26656824
H       -2.15418508      -1.06559102       0.69195620
H       -2.65329599       0.50477452       0.07621151
H       -2.16138068      -0.74607871      -1.07074318
H       -0.48683986       0.61445229       1.02245348
H        3.02048295       0.91374309       0.18776164
H       -0.41767462       1.21475920      -0.78503626
13
Frame=11 idx=011260 GeodesicLength=1.2816803323910888 rxn_smarts="[C:1]([C@@:2]1([H:11])[O:3][C:4](=[O:5])[C:6]([H:12])=[C:7]1[H:13])([H:8])([H:9])[H:10]>>[C:1]([C:2]([O:3][C:4](=[O:5])[C:6](=[C:7])[H:12])([H:11])[H:13])([H:8])([H:9])[H:10]"
C       -1.95608545      -0.32382211      -0.08340977
C       -0.53140529       0.16557592       0.01145458
O        0.29987255      -0.96131703      -0.24028989
C        1.61924128      -0.81747473      -0.02653543
O        2.40696742      -1.67687209      -0.27529760
C        1.97007296       0.61117848       0.22257296
C        1.03368340       1.51989254       0.25521516
H       -2.14645984      -1.06216179       0.69616271
H       -2.64383143       0.50760090       0.08044247
H       -2.15794295      -0.74295271      -1.06869707
H       -0.48643809       0.61516376       1.02144932
H        3.01058535       0.91889927       0.19442539
H       -0.41825991       1.24628959      -0.78749283
13
Frame=12 idx=011260 GeodesicLength=1.3981320644631745 rxn_smarts="[C:1]([C@@:2]1([H:11])[O:3][C:4](=[O:5])[C:6]([H:12])=[C:7]1[H:13])([H:8])([H:9])[H:10]>>[C:1]([C:2]([O:3][C:4](=[O:5])[C:6](=[C:7])[H:12])([H:11])[H:13])([H:8])([H:9])[H:10]"
C       -1.94901392      -0.32276070      -0.08140141
C       -0.52315973       0.16227254       0.01076284
O        0.30315581      -0.96618263      -0.24768679
C        1.62206916      -0.82375579      -0.02457935
O        2.41141621      -1.68299265      -0.26825488
C        1.96308427       0.60827992       0.21628751
C        1.00490588       1.49548935       0.24328280
H       -2.13901596      -1.05900387       0.70033172
H       -2.63451330       0.51020829       0.08457856
H       -2.15456930      -0.74004815      -1.06669215
H       -0.48591133       0.61608929       1.02020359
H        3.00079321       0.92360375       0.20225263
H       -0.41924100       1.27880063      -0.78908507
13
Frame=13 idx=011260 GeodesicLength=1.514577733382337 rxn_smarts="[C:1]([C@@:2]1([H:11])[O:3][C:4](=[O:5])[C:6]([H:12])=[C:7]1[H:13])([H:8])([H:9])[H:10]>>[C:1]([C:2]([O:3][C:4](=[O:5])[C:6](=[C:7])[H:12])([H:11])[H:13])([H:8])([H:9])[H:10]"
C       -1.94214306      -0.32196016      -0.07940080
C       -0.51514440       0.15843025       0.01025015
O        0.30643109      -0.97132947      -0.25483779
C        1.62489461      -0.82977228      -0.02309630
O        2.41582844      -1.68911634      -0.26070741
C        1.95614117       0.60567240       0.20853661
C        0.97719033       1.47139144       0.23067209
H       -2.13187836      -1.05608749       0.70447519
H       -2.62530768       0.51263400       0.08859697
H       -2.15125443      -0.73736368      -1.06472634
H       -0.48522630       0.61723710       1.01869268
H        2.99102495       0.92790503       0.21124817
H       -0.42055637       1.31235920      -0.78970323
13
Frame=14 idx=011260 GeodesicLength=1.6310194418954869 rxn_smarts="[C:1]([C@@:2]1([H:11])[O:3][C:4](=[O:5])[C:6]([H:12])=[C:7]1[H:13])([H:8])([H:9])[H:10]>>[C:1]([C:2]([O:3][C:4](=[O:5])[C:6](=[C:7])[H:12])([H:11])[H:13])([H:8])([H:9])[H:10]"
C       -1.93546592      -0.32141554      -0.07738199
C       -0.50733884       0.15400424       0.00990283
O        0.30970343      -0.97682302      -0.26172012
C        1.62774519      -0.83554057      -0.02213212
O        2.42024148      -1.69522462      -0.25273261
C        1.94924320       0.60334712       0.19918429
C        0.95043888       1.44757065       0.21719629
H       -2.12505199      -1.05336368       0.70865733
H       -2.61617525       0.51491533       0.09249061
H       -2.14801198      -0.73493225      -1.06275495
H       -0.48432423       0.61864804       1.01685668
H        2.98115282       0.93179381       0.22171312
H       -0.42215680       1.34702050      -0.78927934
13
Frame=15 idx=011260 GeodesicLength=1.7474609241417147 rxn_smarts="[C:1]([C@@:2]1([H:11])[O:3][C:4](=[O:5])[C:6]([H:12])=[C:7]1[H:13])([H:8])([H:9])[H:10]>>[C:1]([C:2]([O:3][C:4](=[O:5])[C:6](=[C:7])[H:12])([H:11])[H:13])([H:8])([H:9])[H:10]"
C       -1.92897268      -0.32112107      -0.07532374
C       -0.49972067       0.14894657       0.00971124
O        0.31297959      -0.98273039      -0.26831374
C        1.63064889      -0.84107573      -0.02173659
O        2.42469462      -1.70130436      -0.24436392
C        1.94238894       0.60129080       0.18809648
C        0.92455855       1.42398690       0.20268506
H       -2.11854140      -1.05078702       0.71293141
H       -2.60707188       0.51709091       0.09625047
H       -2.14484966      -0.73277809      -1.06074111
H       -0.48314518       0.62035513       1.01463675
H        2.97101234       0.93527210       0.23388601
H       -0.42398147       1.38285425      -0.78771832
13
Frame=16 idx=011260 GeodesicLength=1.863904580530398 rxn_smarts="[C:1]([C@@:2]1([H:11])[O:3][C:4](=[O:5])[C:6]([H:12])=[C:7]1[H:13])([H:8])([H:9])[H:10]>>[C:1]([C:2]([O:3][C:4](=[O:5])[C:6](=[C:7])[H:12])([H:11])[H:13])([H:8])([H:9])[H:10]"
C       -1.92265162      -0.32107199      -0.07318663
C       -0.49226310       0.14320758       0.00965522
O        0.31626671      -0.98912658      -0.27459696
C        1.63364140      -0.84638668      -0.02200530
O        2.42923507      -1.70732958      -0.23568493
C        1.93558316       0.59949409       0.17508565
C        0.89946568       1.40059766       0.18690251
H       -2.11233955      -1.04829244       0.71739038
H       -2.59794722       0.51920437       0.09987253
H       -2.14178687      -0.73095011      -1.05861779
H       -0.48160895       0.62241568       1.01194630
H        2.96037001       0.93831468       0.24818865
H       -0.42596471       1.41992332      -0.78494963
