15
Frame=0 idx=009896 GeodesicLength=0.0 rxn_smarts="[C:1]([C@@:2]1([H:11])[C@:3]([C:4]#[N:5])([H:12])[N:6]1[C:7]([H:13])([H:14])[H:15])([H:8])([H:9])[H:10]>>[C:1]([C@@:2]1([H:11])[C:3](=[C:4]=[N:5][H:12])[N:6]1[C:7]([H:13])([H:14])[H:15])([H:8])([H:9])[H:10]"
C       -2.08334182       0.03763164       0.17637379
C       -0.66826008      -0.15947968      -0.28038526
C        0.31393494       0.92194534      -0.26917289
C        0.55941612       2.35742610      -0.36735906
N        1.33934919       1.81188084      -1.24010733
N        0.42008955      -0.04813893       0.73634283
C        1.48688738      -1.02825113       0.68289569
H       -2.13826196       0.84655282       0.90345370
H       -2.72454306       0.28768892      -0.67068569
H       -2.46587529      -0.87551172       0.63618805
H       -0.51031252      -0.94789869      -1.01572218
H        1.16611195       0.64499946      -1.33356180
H        1.72468097      -1.33982475      -0.34654946
H        1.19530531      -1.90667304       1.25770975
H        2.38481927      -0.60234716       1.13057990
15
Frame=1 idx=009896 GeodesicLength=0.11081546450511975 rxn_smarts="[C:1]([C@@:2]1([H:11])[C@:3]([C:4]#[N:5])([H:12])[N:6]1[C:7]([H:13])([H:14])[H:15])([H:8])([H:9])[H:10]>>[C:1]([C@@:2]1([H:11])[C:3](=[C:4]=[N:5][H:12])[N:6]1[C:7]([H:13])([H:14])[H:15])([H:8])([H:9])[H:10]"
C       -2.08292617       0.03788323       0.17796674
C       -0.66828281      -0.16657669      -0.27713710
C        0.31681370       0.91272013      -0.27481070
C        0.54828982       2.34446646      -0.36779844
N        1.34762816       1.85224970      -1.24507107
N        0.41870335      -0.05304001       0.73719729
C        1.48503918      -1.03384518       0.68653389
H       -2.13564253       0.84961729       0.90211748
H       -2.72264501       0.28726061      -0.67041208
H       -2.46929659      -0.87161028       0.64175607
H       -0.51303046      -0.95789603      -1.00992817
H        1.17731336       0.66653066      -1.35717221
H        1.72198530      -1.34993080      -0.34153741
H        1.19273813      -1.90991452       1.26479710
H        2.38331255      -0.60791458       1.13349861
15
Frame=2 idx=009896 GeodesicLength=0.2216610380695243 rxn_smarts="[C:1]([C@@:2]1([H:11])[C@:3]([C:4]#[N:5])([H:12])[N:6]1[C:7]([H:13])([H:14])[H:15])([H:8])([H:9])[H:10]>>[C:1]([C@@:2]1([H:11])[C:3](=[C:4]=[N:5][H:12])[N:6]1[C:7]([H:13])([H:14])[H:15])([H:8])([H:9])[H:10]"
C       -2.08243184       0.03817456       0.17953844
C       -0.66830344      -0.17397450      -0.27386100
C        0.31994100       0.90292685      -0.28090117
C        0.53769834       2.33088810      -0.36872426
N        1.35494765       1.89431902      -1.24958280
N        0.41736660      -0.05810236       0.73800483
C        1.48314869      -1.03971605       0.69030731
H       -2.13276578       0.85298077       0.90045041
H       -2.72065776       0.28666855      -0.67022177
H       -2.47273732      -0.86741641       0.64761435
H       -0.51589679      -0.96843102      -1.00385235
H        1.18860973       0.68923510      -1.38112195
H        1.71924035      -1.36049074      -0.33631541
H        1.19004790      -1.91329119       1.27216064
H        2.38179266      -0.61377068       1.13650473
15
Frame=3 idx=009896 GeodesicLength=0.33253862396133627 rxn_smarts="[C:1]([C@@:2]1([H:11])[C@:3]([C:4]#[N:5])([H:12])[N:6]1[C:7]([H:13])([H:14])[H:15])([H:8])([H:9])[H:10]>>[C:1]([C@@:2]1([H:11])[C:3](=[C:4]=[N:5][H:12])[N:6]1[C:7]([H:13])([H:14])[H:15])([H:8])([H:9])[H:10]"
C       -2.08183619       0.03851880       0.18107792
C       -0.66830831      -0.18167944      -0.27057025
C        0.32334968       0.89252905      -0.28749217
C        0.52770017       2.31666486      -0.37014875
N        1.36109139       1.93819501      -1.25362615
N        0.41610083      -0.06332752       0.73874059
C        1.48121189      -1.04589199       0.69423144
H       -2.12958973       0.85666079       0.89842873
H       -2.71856267       0.28592250      -0.67012313
H       -2.47617910      -0.86290145       0.65376068
H       -0.51891760      -0.97953306      -0.99747961
H        1.20003361       0.71316907      -1.40538701
H        1.71642688      -1.37158340      -0.33085275
H        1.18721072      -1.91679754       1.27985121
H        2.38026844      -0.61994567       1.13958925
15
Frame=4 idx=009896 GeodesicLength=0.4434184458287152 rxn_smarts="[C:1]([C@@:2]1([H:11])[C@:3]([C:4]#[N:5])([H:12])[N:6]1[C:7]([H:13])([H:14])[H:15])([H:8])([H:9])[H:10]>>[C:1]([C@@:2]1([H:11])[C:3](=[C:4]=[N:5][H:12])[N:6]1[C:7]([H:13])([H:14])[H:15])([H:8])([H:9])[H:10]"
C       -2.08111300       0.03893070       0.18257442
C       -0.66828151      -0.18969618      -0.26728152
C        0.32707586       0.88148852      -0.29463631
C        0.51833469       2.30177456      -0.37209890
N        1.36584162       1.98397800      -1.25717302
N        0.41493088      -0.06871579       0.73937533
C        1.47922314      -1.05240457       0.69832102
H       -2.12606681       0.86067809       0.89602624
H       -2.71634067       0.28503201      -0.67012251
H       -2.47959732      -0.85803315       0.66019686
H       -0.52209892      -0.99123041      -0.99079645
H        1.21162250       0.73839560      -1.42992785
H        1.71352117      -1.38329550      -0.32511799
H        1.18419762      -1.92042659       1.28792218
H        2.37875076      -0.62647529       1.14273850
15
Frame=5 idx=009896 GeodesicLength=0.5543552148868678 rxn_smarts="[C:1]([C@@:2]1([H:11])[C@:3]([C:4]#[N:5])([H:12])[N:6]1[C:7]([H:13])([H:14])[H:15])([H:8])([H:9])[H:10]>>[C:1]([C@@:2]1([H:11])[C:3](=[C:4]=[N:5][H:12])[N:6]1[C:7]([H:13])([H:14])[H:15])([H:8])([H:9])[H:10]"
C       -2.08022875       0.03943156       0.18400994
C       -0.66820166      -0.19802810      -0.26400986
C        0.33116523       0.86976221      -0.30238286
C        0.50971782       2.28617466      -0.37456989
N        1.36883572       2.03179791      -1.26021732
N        0.41388474      -0.07427222       0.73988010
C        1.47717627      -1.05928875       0.70259416
H       -2.12214056       0.86506124       0.89320285
H       -2.71395837       0.28401047      -0.67023653
H       -2.48296634      -0.85276836       0.66691769
H       -0.52544497      -1.00355057      -0.98378260
H        1.22343964       0.76495933      -1.45470826
H        1.71049775      -1.39571764      -0.31907187
H        1.18097733      -1.92417226       1.29643052
H        2.37724615      -0.63339950       1.14594393
15
Frame=6 idx=009896 GeodesicLength=0.6652761777742754 rxn_smarts="[C:1]([C@@:2]1([H:11])[C@:3]([C:4]#[N:5])([H:12])[N:6]1[C:7]([H:13])([H:14])[H:15])([H:8])([H:9])[H:10]>>[C:1]([C@@:2]1([H:11])[C:3](=[C:4]=[N:5][H:12])[N:6]1[C:7]([H:13])([H:14])[H:15])([H:8])([H:9])[H:10]"
C       -2.07915074       0.04004177       0.18537293
C       -0.66804799      -0.20667394      -0.26077861
C        0.33566009       0.85731011      -0.31079117
C        0.50187224       2.26984689      -0.37761706
N        1.36981797       2.08173837      -1.26271257
N        0.41299453      -0.07999401       0.74021816
C        1.47506482      -1.06658165       0.70706511
H       -2.11775369       0.86983489       0.88993172
H       -2.71139585       0.28287453      -0.67046909
H       -2.48625074      -0.84706736       0.67392521
H       -0.52896091      -1.01651632      -0.97642803
H        1.23553827       0.79292479      -1.47965578
H        1.70732760      -1.40894840      -0.31268087
H        1.17751372      -1.92802469       1.30543292
H        2.37577068      -0.64076499       1.14918712
15
Frame=7 idx=009896 GeodesicLength=0.7762234375561574 rxn_smarts="[C:1]([C@@:2]1([H:11])[C@:3]([C:4]#[N:5])([H:12])[N:6]1[C:7]([H:13])([H:14])[H:15])([H:8])([H:9])[H:10]>>[C:1]([C@@:2]1([H:11])[C:3](=[C:4]=[N:5][H:12])[N:6]1[C:7]([H:13])([H:14])[H:15])([H:8])([H:9])[H:10]"
C       -2.07783819       0.04079079       0.18664336
C       -0.66779295      -0.21562944      -0.25760838
C        0.34061482       0.84408868      -0.31991294
C        0.49492485       2.25275177      -0.38126130
N        1.36833849       2.13391107      -1.26463781
N        0.41229614      -0.08588444       0.74035584
C        1.47288209      -1.07432459       0.71175318
H       -2.11283916       0.87503068       0.88617437
H       -2.70861508       0.28165160      -0.67083655
H       -2.48941654      -0.84087898       0.68120840
H       -0.53264912      -1.03014644      -0.96871605
H        1.24801026       0.82232932      -1.50470781
H        1.70398143      -1.42308783      -0.30590204
H        1.17376825      -1.93197739       1.31498863
H        2.37433470      -0.64862478       1.15245910
15
Frame=8 idx=009896 GeodesicLength=0.8871916864288458 rxn_smarts="[C:1]([C@@:2]1([H:11])[C@:3]([C:4]#[N:5])([H:12])[N:6]1[C:7]([H:13])([H:14])[H:15])([H:8])([H:9])[H:10]>>[C:1]([C@@:2]1([H:11])[C:3](=[C:4]=[N:5][H:12])[N:6]1[C:7]([H:13])([H:14])[H:15])([H:8])([H:9])[H:10]"
C       -2.07624806       0.04171058       0.18780410
C       -0.66740625      -0.22488580      -0.25452435
C        0.34608453       0.83005867      -0.32980281
C        0.48897174       2.23486446      -0.38555479
N        1.36395920       2.18840133      -1.26596093
N        0.41182805      -0.09194322       0.74025570
C        1.47062002      -1.08256274       0.71667571
H       -2.10732865       0.88068329       0.88189780
H       -2.70558005       0.28037289      -0.67135044
H       -2.49242305      -0.83415206       0.68876071
H       -0.53650884      -1.04445565      -0.96063565
H        1.26095494       0.85321447      -1.52977204
H        1.70042899      -1.43824122      -0.29869661
H        1.16969632      -1.93602673       1.32515559
H        2.37295110      -0.65703826       1.15574799
15
Frame=9 idx=009896 GeodesicLength=0.9980840003049625 rxn_smarts="[C:1]([C@@:2]1([H:11])[C@:3]([C:4]#[N:5])([H:12])[N:6]1[C:7]([H:13])([H:14])[H:15])([H:8])([H:9])[H:10]>>[C:1]([C@@:2]1([H:11])[C:3](=[C:4]=[N:5][H:12])[N:6]1[C:7]([H:13])([H:14])[H:15])([H:8])([H:9])[H:10]"
C       -2.07432809       0.04284305       0.18882895
C       -0.66685421      -0.23442351      -0.25155285
C        0.35212832       0.81517449      -0.34050317
C        0.48416270       2.21615335      -0.39055052
N        1.35610117       2.24521840      -1.26664356
N        0.41163825      -0.09817269       0.73987949
C        1.46827420      -1.09133626       0.72184975
H       -2.10113754       0.88681913       0.87706333
H       -2.70224866       0.27908888      -0.67202695
H       -2.49521981      -0.82681913       0.69655227
H       -0.54054451      -1.05943315      -0.95217503
H        1.27449649       0.88561318      -1.55473044
H        1.69663507      -1.45449373      -0.29101458
H        1.16525901      -1.94015481       1.33597720
H        2.37163761      -0.66607720       1.15904611
15
Frame=10 idx=009896 GeodesicLength=1.1088616684071213 rxn_smarts="[C:1]([C@@:2]1([H:11])[C@:3]([C:4]#[N:5])([H:12])[N:6]1[C:7]([H:13])([H:14])[H:15])([H:8])([H:9])[H:10]>>[C:1]([C@@:2]1([H:11])[C:3](=[C:4]=[N:5][H:12])[N:6]1[C:7]([H:13])([H:14])[H:15])([H:8])([H:9])[H:10]"
C       -2.07201306       0.04422184       0.18970233
C       -0.66609912      -0.24422752      -0.24872549
C        0.35880506       0.79939860      -0.35206847
C        0.48058742       2.19659459      -0.39635066
N        1.34427843       2.30437813      -1.26659989
N        0.41177045      -0.10456119       0.73917342
C        1.46581755      -1.10067875       0.72727623
H       -2.09416577       0.89348033       0.87162811
H       -2.69856723       0.27781756      -0.67286562
H       -2.49773776      -0.81881984       0.70458433
H       -0.54476041      -1.07508529      -0.94332415
H        1.28876906       0.91955190      -1.57941204
H        1.69253333      -1.47194610      -0.28282555
H        1.16038656      -1.94433298       1.34749362
H        2.37039550      -0.67579130       1.16231381
15
Frame=11 idx=009896 GeodesicLength=1.219756031791651 rxn_smarts="[C:1]([C@@:2]1([H:11])[C@:3]([C:4]#[N:5])([H:12])[N:6]1[C:7]([H:13])([H:14])[H:15])([H:8])([H:9])[H:10]>>[C:1]([C@@:2]1([H:11])[C:3](=[C:4]=[N:5][H:12])[N:6]1[C:7]([H:13])([H:14])[H:15])([H:8])([H:9])[H:10]"
C       -2.06933516       0.04591863       0.19040025
C       -0.66512533      -0.25426106      -0.24608477
C        0.36622043       0.78269944      -0.36454026
C        0.47858682       2.17617084      -0.40301472
N        1.32752893       2.36588225      -1.26580863
N        0.41230220      -0.11113475       0.73814457
C        1.46331236      -1.11067181       0.73300890
H       -2.08640815       0.90071813       0.86559499
H       -2.69459342       0.27666294      -0.67393021
H       -2.50004810      -0.81006719       0.71285090
H       -0.54918160      -1.09137146      -0.93413465
H        1.30414522       0.95507269      -1.60380900
H        1.68816615      -1.49070777      -0.27409747
H        1.15508175      -1.94859903       1.35981067
H        2.36934791      -0.68631185       1.16560943
15
Frame=12 idx=009896 GeodesicLength=1.330183074913974 rxn_smarts="[C:1]([C@@:2]1([H:11])[C@:3]([C:4]#[N:5])([H:12])[N:6]1[C:7]([H:13])([H:14])[H:15])([H:8])([H:9])[H:10]>>[C:1]([C@@:2]1([H:11])[C:3](=[C:4]=[N:5][H:12])[N:6]1[C:7]([H:13])([H:14])[H:15])([H:8])([H:9])[H:10]"
C       -2.06615656       0.04792854       0.19093606
C       -0.66389856      -0.26452448      -0.24368825
C        0.37429371       0.76502225      -0.37809692
C        0.47759212       2.15484636      -0.41101843
N        1.30644457       2.42953850      -1.26362810
N        0.41323755      -0.11780603       0.73659252
C        1.46065975      -1.12126932       0.73893444
H       -2.07771642       0.90862701       0.85878446
H       -2.69026758       0.27545288      -0.67511568
H       -2.50186779      -0.80047347       0.72151916
H       -0.55379946      -1.10834421      -0.92452860
H        1.32045366       0.99222549      -1.62740112
H        1.68331667      -1.51089811      -0.26484299
H        1.14927819      -1.95276093       1.37293253
H        2.36843016      -0.69756447       1.16862093
15
Frame=13 idx=009896 GeodesicLength=1.441056366772215 rxn_smarts="[C:1]([C@@:2]1([H:11])[C@:3]([C:4]#[N:5])([H:12])[N:6]1[C:7]([H:13])([H:14])[H:15])([H:8])([H:9])[H:10]>>[C:1]([C@@:2]1([H:11])[C:3](=[C:4]=[N:5][H:12])[N:6]1[C:7]([H:13])([H:14])[H:15])([H:8])([H:9])[H:10]"
C       -2.06220999       0.05051000       0.19114125
C       -0.66220553      -0.27490760      -0.24146879
C        0.38347059       0.74636898      -0.39237572
C        0.47961246       2.13265652      -0.41944831
N        1.27625113       2.49531675      -1.26159340
N        0.41473653      -0.12477255       0.73474787
C        1.45782477      -1.13275347       0.74527563
H       -2.06769336       0.91725544       0.85127626
H       -2.68505960       0.27481828      -0.67667055
H       -2.50325077      -0.78987494       0.73004059
H       -0.55854003      -1.12580694      -0.91452880
H        1.33878795       1.03103116      -1.65027937
H        1.67803644      -1.53259613      -0.25482937
H        1.14272212      -1.95721806       1.38681876
H        2.36751730      -0.71002745       1.17189394
15
Frame=14 idx=009896 GeodesicLength=1.5514191700102145 rxn_smarts="[C:1]([C@@:2]1([H:11])[C@:3]([C:4]#[N:5])([H:12])[N:6]1[C:7]([H:13])([H:14])[H:15])([H:8])([H:9])[H:10]>>[C:1]([C@@:2]1([H:11])[C:3](=[C:4]=[N:5][H:12])[N:6]1[C:7]([H:13])([H:14])[H:15])([H:8])([H:9])[H:10]"
C       -2.05764826       0.05356072       0.19116051
C       -0.66018485      -0.28539420      -0.23957613
C        0.39334911       0.72670031      -0.40783598
C        0.48294363       2.10953715      -0.42983342
N        1.24029737       2.56233790      -1.25730342
N        0.41673157      -0.13173766       0.73224859
C        1.45484496      -1.14480271       0.75177503
H       -2.05659896       0.92662778       0.84299651
H       -2.67943044       0.27433741      -0.67830342
H       -2.50397492      -0.77824680       0.73886721
H       -0.56344439      -1.14382867      -0.90411290
H        1.35848272       1.07129488      -1.67211898
H        1.67227341      -1.55570600      -0.24426277
H        1.13562800      -1.96141335       1.40144779
H        2.36673107      -0.72326675       1.17485136
15
Frame=15 idx=009896 GeodesicLength=1.6617366696775335 rxn_smarts="[C:1]([C@@:2]1([H:11])[C@:3]([C:4]#[N:5])([H:12])[N:6]1[C:7]([H:13])([H:14])[H:15])([H:8])([H:9])[H:10]>>[C:1]([C@@:2]1([H:11])[C:3](=[C:4]=[N:5][H:12])[N:6]1[C:7]([H:13])([H:14])[H:15])([H:8])([H:9])[H:10]"
C       -2.05253926       0.05714548       0.19096880
C       -0.65785534      -0.29592972      -0.23805240
C        0.40412394       0.70605346      -0.42452140
C        0.48834918       2.08562811      -0.44231770
N        1.19712884       2.63010405      -1.25058507
N        0.41936620      -0.13873178       0.72915007
C        1.45179563      -1.15748390       0.75853690
H       -2.04435376       0.93673855       0.83401349
H       -2.67348052       0.27419015      -0.68012785
H       -2.50424318      -0.76557546       0.74797846
H       -0.56867817      -1.16231033      -0.89337118
H        1.38012530       1.11324806      -1.69320723
H        1.66603550      -1.58023156      -0.23309856
H        1.12795404      -1.96543541       1.41697171
H        2.36627160      -0.73740971       1.17766196
15
Frame=16 idx=009896 GeodesicLength=1.7716068854019025 rxn_smarts="[C:1]([C@@:2]1([H:11])[C@:3]([C:4]#[N:5])([H:12])[N:6]1[C:7]([H:13])([H:14])[H:15])([H:8])([H:9])[H:10]>>[C:1]([C@@:2]1([H:11])[C:3](=[C:4]=[N:5][H:12])[N:6]1[C:7]([H:13])([H:14])[H:15])([H:8])([H:9])[H:10]"
C       -2.04640337       0.06136148       0.19048841
C       -0.65507660      -0.30652367      -0.23693801
C        0.41541259       0.68422241      -0.44274024
C        0.49471926       2.06071055      -0.45785820
N        1.14770688       2.69719532      -1.23846452
N        0.42251176      -0.14546052       0.72495729
C        1.44842692      -1.17044626       0.76522664
H       -2.03062570       0.94803427       0.82356271
H       -2.66674993       0.27388133      -0.68194538
H       -2.50313572      -0.75135636       0.75764239
H       -0.57400827      -1.18143633      -0.88189499
H        1.40288600       1.15657795      -1.71350145
H        1.65892316      -1.60624659      -0.22124538
H        1.11975912      -1.96850490       1.43319502
H        2.36565390      -0.75200866       1.17951570
