12
Frame=0 idx=000045 GeodesicLength=0.0 rxn_smarts="[C:1](/[N:2]=[C:3](/[N:4]([C:5](=[O:6])[H:12])[H:11])[H:10])([H:7])([H:8])[H:9]>>[C:1]([N:2]1[C@:3]2([H:10])[N:4]([H:11])[C@:5]2([H:12])[O:6]1)([H:7])([H:8])[H:9]"
C       -1.68904036      -0.19211864       0.04881973
N       -0.36729930      -0.72370895      -0.09561994
C        0.51816834       0.07136866      -0.77748927
N        1.85969702      -0.30484018      -0.49217963
C        1.30055596       0.50479718       0.57464700
O        0.47625231       0.06827712       1.50729648
H       -2.12774111      -0.58954874       0.96149143
H       -1.73188685       0.90066223       0.04680345
H       -2.26740980      -0.58253233      -0.79744217
H        0.22891734       0.75627363      -1.56387156
H        1.88711119      -1.28560392      -0.21854427
H        1.91267526       1.37697393       0.80608875
12
Frame=1 idx=000045 GeodesicLength=0.0699464401304455 rxn_smarts="[C:1](/[N:2]=[C:3](/[N:4]([C:5](=[O:6])[H:12])[H:11])[H:10])([H:7])([H:8])[H:9]>>[C:1]([N:2]1[C@:3]2([H:10])[N:4]([H:11])[C@:5]2([H:12])[O:6]1)([H:7])([H:8])[H:9]"
C       -1.69764014      -0.19486309       0.04216050
N       -0.37224294      -0.72330536      -0.08828601
C        0.51303104       0.06915760      -0.77195076
N        1.85392616      -0.30964165      -0.49049624
C        1.31858965       0.50439068       0.58078344
O        0.51005475       0.06191485       1.52329951
H       -2.14493036      -0.59004748       0.95188057
H       -1.74186066       0.89819662       0.03772458
H       -2.26963407      -0.58616970      -0.80787549
H        0.22695091       0.76891461      -1.54719048
H        1.88625783      -1.29027482      -0.21761921
H        1.91749782       1.39172774       0.78756959
12
Frame=2 idx=000045 GeodesicLength=0.13996189547640525 rxn_smarts="[C:1](/[N:2]=[C:3](/[N:4]([C:5](=[O:6])[H:12])[H:11])[H:10])([H:7])([H:8])[H:9]>>[C:1]([N:2]1[C@:3]2([H:10])[N:4]([H:11])[C@:5]2([H:12])[O:6]1)([H:7])([H:8])[H:9]"
C       -1.70660323      -0.19769637       0.03526467
N       -0.37731679      -0.72230764      -0.08000384
C        0.50761771       0.06735187      -0.76587354
N        1.84792329      -0.31438561      -0.48890605
C        1.33746095       0.50416551       0.58677498
O        0.54535345       0.05581645       1.53938374
H       -2.16286265      -0.59043951       0.94183632
H       -1.75272628       0.89564661       0.02788872
H       -2.27153582      -0.59063495      -0.81867317
H        0.22477868       0.78164630      -1.52985022
H        1.88510092      -1.29492947      -0.21698917
H        1.92280976       1.40576682       0.76914756
12
Frame=3 idx=000045 GeodesicLength=0.2100618863132464 rxn_smarts="[C:1](/[N:2]=[C:3](/[N:4]([C:5](=[O:6])[H:12])[H:11])[H:10])([H:7])([H:8])[H:9]>>[C:1]([N:2]1[C@:3]2([H:10])[N:4]([H:11])[C@:5]2([H:12])[O:6]1)([H:7])([H:8])[H:9]"
C       -1.71595347      -0.20063321       0.02811632
N       -0.38254707      -0.72064544      -0.07069123
C        0.50190615       0.06598574      -0.75920537
N        1.84165902      -0.31908222      -0.48740499
C        1.35722771       0.50409900       0.59259837
O        0.58224978       0.05000267       1.55553063
H       -2.18159490      -0.59074536       0.93130793
H       -1.76454983       0.89298632       0.01722943
H       -2.27306627      -0.59598996      -0.82984666
H        0.22238831       0.79451561      -1.51179593
H        1.88358502      -1.29958441      -0.21666587
H        1.92869554       1.41909127       0.75082737
12
Frame=4 idx=000045 GeodesicLength=0.28026282713951195 rxn_smarts="[C:1](/[N:2]=[C:3](/[N:4]([C:5](=[O:6])[H:12])[H:11])[H:10])([H:7])([H:8])[H:9]>>[C:1]([N:2]1[C@:3]2([H:10])[N:4]([H:11])[C@:5]2([H:12])[O:6]1)([H:7])([H:8])[H:9]"
C       -1.72571549      -0.20369206       0.02069289
N       -0.38796279      -0.71822178      -0.06024715
C        0.49587489       0.06511007      -0.75187892
N        1.83508089      -0.32373636      -0.48598870
C        1.37795582       0.50416766       0.59822674
O        0.62087279       0.04448520       1.57171845
H       -2.20119342      -0.59097736       0.92023353
H       -1.77740678       0.89017410       0.00564565
H       -2.27415250      -0.60232513      -0.84139159
H        0.21977003       0.80759118      -1.49295345
H        1.88162801      -1.30424727      -0.21665819
H        1.93524854       1.43167175       0.73260074
12
Frame=5 idx=000045 GeodesicLength=0.35056536833244056 rxn_smarts="[C:1](/[N:2]=[C:3](/[N:4]([C:5](=[O:6])[H:12])[H:11])[H:10])([H:7])([H:8])[H:9]>>[C:1]([N:2]1[C@:3]2([H:10])[N:4]([H:11])[C@:5]2([H:12])[O:6]1)([H:7])([H:8])[H:9]"
C       -1.73591357      -0.20688919       0.01298144
N       -0.39359844      -0.71495640      -0.04856081
C        0.48949342       0.06476672      -0.74381959
N        1.82816381      -0.32837001      -0.48465151
C        1.39970469       0.50436411       0.60362621
O        0.66132801       0.03926159       1.58792310
H       -2.22170902      -0.59116891       0.90856440
H       -1.79137263       0.88718860      -0.00693477
H       -2.27475213      -0.60970727      -0.85336268
H        0.21689240       0.82092198      -1.47326084
H        1.87916880      -1.30895212      -0.21697698
H        1.94259465       1.44354091       0.71447202
12
Frame=6 idx=000045 GeodesicLength=0.4210103534454577 rxn_smarts="[C:1](/[N:2]=[C:3](/[N:4]([C:5](=[O:6])[H:12])[H:11])[H:10])([H:7])([H:8])[H:9]>>[C:1]([N:2]1[C@:3]2([H:10])[N:4]([H:11])[C@:5]2([H:12])[O:6]1)([H:7])([H:8])[H:9]"
C       -1.74657985      -0.21024726       0.00494561
N       -0.39949376      -0.71070526      -0.03550546
C        0.48273407       0.06503115      -0.73494181
N        1.82083080      -0.33298257      -0.48338634
C        1.42256736       0.50464470       0.60875903
O        0.70378640       0.03433632       1.60410755
H       -2.24322111      -0.59132772       0.89621544
H       -1.80654144       0.88396375      -0.02066626
H       -2.27475298      -0.61826431      -0.86571608
H        0.21375742       0.83460796      -1.45260368
H        1.87608551      -1.31369771      -0.21762854
H        1.95082758       1.45464097       0.69642052
12
Frame=7 idx=000045 GeodesicLength=0.4916430701593484 rxn_smarts="[C:1](/[N:2]=[C:3](/[N:4]([C:5](=[O:6])[H:12])[H:11])[H:10])([H:7])([H:8])[H:9]>>[C:1]([N:2]1[C@:3]2([H:10])[N:4]([H:11])[C@:5]2([H:12])[O:6]1)([H:7])([H:8])[H:9]"
C       -1.75773759      -0.21379309      -0.00343955
N       -0.40569020      -0.70535997      -0.02096311
C        0.47556736       0.06596027      -0.72515979
N        1.81303786      -0.33757942      -0.48217692
C        1.44662144       0.50497316       0.61358390
O        0.74839456       0.02970754       1.62023027
H       -2.26579535      -0.59146840       0.88312129
H       -1.82299840       0.88046776      -0.03565489
H       -2.27408998      -0.62809090      -0.87846681
H        0.21034588       0.84871946      -1.43089551
H        1.87229944      -1.31850541      -0.21862268
H        1.96004498       1.46496901       0.67844382
12
Frame=8 idx=000045 GeodesicLength=0.5624746850605631 rxn_smarts="[C:1](/[N:2]=[C:3](/[N:4]([C:5](=[O:6])[H:12])[H:11])[H:10])([H:7])([H:8])[H:9]>>[C:1]([N:2]1[C@:3]2([H:10])[N:4]([H:11])[C@:5]2([H:12])[O:6]1)([H:7])([H:8])[H:9]"
C       -1.76940872      -0.21755918      -0.01221045
N       -0.41224492      -0.69868568      -0.00476079
C        0.46795782       0.06768776      -0.71435529
N        1.80467181      -0.34216625      -0.48100884
C        1.47197862       0.50529250       0.61804497
O        0.79535047       0.02535034       1.63624035
H       -2.28951366      -0.59160360       0.86917503
H       -1.84086313       0.87660075      -0.05213731
H       -2.27258349      -0.63940300      -0.89154691
H        0.20665244       0.86342254      -1.40798305
H        1.86759730      -1.32338276      -0.21996383
H        1.97040545       1.47444657       0.66050612
12
Frame=9 idx=000045 GeodesicLength=0.6330528992541544 rxn_smarts="[C:1](/[N:2]=[C:3](/[N:4]([C:5](=[O:6])[H:12])[H:11])[H:10])([H:7])([H:8])[H:9]>>[C:1]([N:2]1[C@:3]2([H:10])[N:4]([H:11])[C@:5]2([H:12])[O:6]1)([H:7])([H:8])[H:9]"
C       -1.78159687      -0.22167808      -0.02149864
N       -0.41938043      -0.68985128       0.01386436
C        0.45975083       0.07071657      -0.70200635
N        1.79535288      -0.34683689      -0.47992438
C        1.49890471       0.50548521       0.62193755
O        0.84508691       0.02109026       1.65202305
H       -2.31454293      -0.59178094       0.85411656
H       -1.86044580       0.87191838      -0.07105955
H       -2.26943013      -0.65289988      -0.90484659
H        0.20249943       0.87935707      -1.38323082
H        1.86114631      -1.32846718      -0.22174776
H        1.98265510       1.48294677       0.64237258
12
Frame=10 idx=000045 GeodesicLength=0.7037354705581477 rxn_smarts="[C:1](/[N:2]=[C:3](/[N:4]([C:5](=[O:6])[H:12])[H:11])[H:10])([H:7])([H:8])[H:9]>>[C:1]([N:2]1[C@:3]2([H:10])[N:4]([H:11])[C@:5]2([H:12])[O:6]1)([H:7])([H:8])[H:9]"
C       -1.79429733      -0.22614731      -0.03128642
N       -0.42707929      -0.67891591       0.03467759
C        0.45098407       0.07498806      -0.68827042
N        1.78509544      -0.35152782      -0.47885202
C        1.52737568       0.50548242       0.62528506
O        0.89761031       0.01701600       1.66749563
H       -2.34083305      -0.59198626       0.83796447
H       -1.88170960       0.86649365      -0.09226828
H       -2.26481455      -0.66855222      -0.91824152
H        0.19803054       0.89646353      -1.35675828
H        1.85305819      -1.33367860      -0.22391311
H        1.99657959       1.49036447       0.62416730
12
Frame=11 idx=000045 GeodesicLength=0.7745404422445284 rxn_smarts="[C:1](/[N:2]=[C:3](/[N:4]([C:5](=[O:6])[H:12])[H:11])[H:10])([H:7])([H:8])[H:9]>>[C:1]([N:2]1[C@:3]2([H:10])[N:4]([H:11])[C@:5]2([H:12])[O:6]1)([H:7])([H:8])[H:9]"
C       -1.80750048      -0.23103544      -0.04162422
N       -0.43545349      -0.66549721       0.05796872
C        0.44157977       0.08071964      -0.67294869
N        1.77372773      -0.35624549      -0.47779400
C        1.55752805       0.50519392       0.62799736
O        0.95311853       0.01304805       1.68254435
H       -2.36844139      -0.59221013       0.82062256
H       -1.90481529       0.86015782      -0.11616834
H       -2.25841198      -0.68671013      -0.93166076
H        0.19321202       0.91502295      -1.32828096
H        1.84299723      -1.33905343      -0.22649946
H        2.01245931       1.49660945       0.60584344
12
Frame=12 idx=000045 GeodesicLength=0.8454479882796754 rxn_smarts="[C:1](/[N:2]=[C:3](/[N:4]([C:5](=[O:6])[H:12])[H:11])[H:10])([H:7])([H:8])[H:9]>>[C:1]([N:2]1[C@:3]2([H:10])[N:4]([H:11])[C@:5]2([H:12])[O:6]1)([H:7])([H:8])[H:9]"
C       -1.82117562      -0.23642264      -0.05257527
N       -0.44464613      -0.64900053       0.08410106
C        0.43145622       0.08825926      -0.65579204
N        1.76096022      -0.36097484      -0.47674978
C        1.58950737       0.50446145       0.62994951
O        1.01185685       0.00907997       1.69702307
H       -2.39741294      -0.59246077       0.80193269
H       -1.92991908       0.85260718      -0.14338820
H       -2.24973293      -0.70789892      -0.94486204
H        0.18803435       0.93548288      -1.29740930
H        1.83040501      -1.34460336      -0.22955314
H        2.03066668       1.50147032       0.58732343
12
Frame=13 idx=000045 GeodesicLength=0.916443982132957 rxn_smarts="[C:1](/[N:2]=[C:3](/[N:4]([C:5](=[O:6])[H:12])[H:11])[H:10])([H:7])([H:8])[H:9]>>[C:1]([N:2]1[C@:3]2([H:10])[N:4]([H:11])[C@:5]2([H:12])[O:6]1)([H:7])([H:8])[H:9]"
C       -1.83524194      -0.24243643      -0.06419831
N       -0.45482849      -0.62875407       0.11347118
C        0.42051504       0.09799407      -0.63652154
N        1.74649093      -0.36570517      -0.47572330
C        1.62345713       0.50310746       0.63099677
O        1.07402848       0.00494920       1.71076039
H       -2.42773509      -0.59274870       0.78178048
H       -1.95719324       0.84351801      -0.17459206
H       -2.23825812      -0.73265961      -0.95765230
H        0.18248144       0.95831502      -1.26372159
H        1.81466519      -1.35033811      -0.23311402
H        2.05161868       1.50475832       0.56851430
12
Frame=14 idx=000045 GeodesicLength=0.9874922127583035 rxn_smarts="[C:1](/[N:2]=[C:3](/[N:4]([C:5](=[O:6])[H:12])[H:11])[H:10])([H:7])([H:8])[H:9]>>[C:1]([N:2]1[C@:3]2([H:10])[N:4]([H:11])[C@:5]2([H:12])[O:6]1)([H:7])([H:8])[H:9]"
C       -1.84956605      -0.24921705      -0.07656847
N       -0.46624135      -0.60380490       0.14655974
C        0.40863585       0.11049603      -0.61478414
N        1.72986593      -0.37036558      -0.47470484
C        1.65950723       0.50087238       0.63093282
O        1.13987825       0.00030639       1.72346313
H       -2.45940882      -0.59297711       0.75999314
H       -1.98670237       0.83234176      -0.21082016
H       -2.22317765      -0.76183509      -0.96951904
H        0.17654300       0.98423527      -1.22659427
H        1.79487129      -1.35621919      -0.23726009
H        2.07579469       1.50616708       0.54930218
12
Frame=15 idx=000045 GeodesicLength=1.0585653672298643 rxn_smarts="[C:1](/[N:2]=[C:3](/[N:4]([C:5](=[O:6])[H:12])[H:11])[H:10])([H:7])([H:8])[H:9]>>[C:1]([N:2]1[C@:3]2([H:10])[N:4]([H:11])[C@:5]2([H:12])[O:6]1)([H:7])([H:8])[H:9]"
C       -1.86391338      -0.25691902      -0.08971387
N       -0.47917263      -0.57302896       0.18381751
C        0.39569010       0.12642564      -0.59022778
N        1.71057769      -0.37487304      -0.47366915
C        1.69772285       0.49744416       0.62951415
O        1.20951245      -0.00528240       1.73473804
H       -2.49230496      -0.59310985       0.73641559
H       -2.01840895       0.81842849      -0.25318896
H       -2.20359734      -0.79629113      -0.97983985
H        0.17022843       1.01402145      -1.18537742
H        1.76997854      -1.36218506      -0.24204652
H        2.10368718       1.50536973       0.52957823
12
Frame=16 idx=000045 GeodesicLength=1.129798853498024 rxn_smarts="[C:1](/[N:2]=[C:3](/[N:4]([C:5](=[O:6])[H:12])[H:11])[H:10])([H:7])([H:8])[H:9]>>[C:1]([N:2]1[C@:3]2([H:10])[N:4]([H:11])[C@:5]2([H:12])[O:6]1)([H:7])([H:8])[H:9]"
C       -1.87791724      -0.26574253      -0.10362825
N       -0.49399680      -0.53493801       0.22559920
C        0.38154588       0.14667089      -0.56256434
N        1.68795258      -0.37910804      -0.47259623
C        1.73807928       0.49242739       0.62649828
O        1.28290515      -0.01245603       1.74406893
H       -2.52619417      -0.59303045       0.71090918
H       -2.05205219       0.80077409      -0.30313332
H       -2.17832372      -0.83713129      -0.98749605
H        0.16357969       1.04879692      -1.13943527
H        1.73861514      -1.36818579      -0.24757504
H        2.13580639       1.50192284       0.50935289
