18
Frame=0 idx=007876 GeodesicLength=0.0 rxn_smarts="[C:1]([C:2]([C:3]([H:12])([H:13])[H:14])([C@@:4]([C:5]([H:16])([H:17])[H:18])([C:6]#[N:7])[H:15])[H:11])([H:8])([H:9])[H:10]>>[C:1]1([H:9])([H:10])[C@:2]([C:3]([H:12])([H:13])[H:14])([H:11])[C@@:4]1([C:5]([H:16])([H:17])[H:18])[H:15].[C:6](#[N:7])[H:8]"
C        1.73431906      -0.36302104       0.69343179
C        0.60849440       0.47665370       0.44666512
C        0.75543980       1.60821297      -0.55232871
C       -0.44651708      -0.68866786       0.05443735
C       -1.71436826      -0.61706057       0.88563408
C       -0.56756187      -0.66705992      -1.52917907
N       -1.65382847      -0.59957198      -2.03338311
H        0.46155991      -0.79038343      -1.95488591
H        1.80993290      -0.92497803       1.61498109
H        2.50477077      -0.51018870      -0.05540727
H        0.18364794       0.85100547       1.38169456
H        1.29484347       2.43363676      -0.08668921
H       -0.21707692       1.97384358      -0.88323053
H        1.31371047       1.29762109      -1.43684064
H        0.02186485      -1.67739150       0.16063169
H       -2.40549905      -1.41039410       0.60846698
H       -1.46562787      -0.73163886       1.94257568
H       -2.21810397       0.33938238       0.74342608
18
Frame=1 idx=007876 GeodesicLength=0.13700834086695132 rxn_smarts="[C:1]([C:2]([C:3]([H:12])([H:13])[H:14])([C@@:4]([C:5]([H:16])([H:17])[H:18])([C:6]#[N:7])[H:15])[H:11])([H:8])([H:9])[H:10]>>[C:1]1([H:9])([H:10])[C@:2]([C:3]([H:12])([H:13])[H:14])([H:11])[C@@:4]1([C:5]([H:16])([H:17])[H:18])[H:15].[C:6](#[N:7])[H:8]"
C        1.72505319      -0.38171189       0.66205840
C        0.60282737       0.47747401       0.44749319
C        0.74900523       1.61407608      -0.54473839
C       -0.44397061      -0.68946722       0.06895826
C       -1.71857078      -0.61039553       0.88931622
C       -0.57335793      -0.68466902      -1.54099286
N       -1.64200362      -0.60521659      -2.07180271
H        0.50011092      -0.82543034      -1.91111101
H        1.83297921      -0.91330160       1.59840751
H        2.50460179      -0.49270152      -0.08327991
H        0.19791463       0.85041553       1.39165751
H        1.29544817       2.43391602      -0.07723143
H       -0.22418514       1.98353517      -0.86956752
H        1.30279202       1.31100570      -1.43471262
H        0.00287997      -1.68764013       0.17718603
H       -2.41719047      -1.39175750       0.59644692
H       -1.48242807      -0.74052464       1.94732738
H       -2.21190587       0.35239347       0.75458501
18
Frame=2 idx=007876 GeodesicLength=0.2738720664329475 rxn_smarts="[C:1]([C:2]([C:3]([H:12])([H:13])[H:14])([C@@:4]([C:5]([H:16])([H:17])[H:18])([C:6]#[N:7])[H:15])[H:11])([H:8])([H:9])[H:10]>>[C:1]1([H:9])([H:10])[C@:2]([C:3]([H:12])([H:13])[H:14])([H:11])[C@@:4]1([C:5]([H:16])([H:17])[H:18])[H:15].[C:6](#[N:7])[H:8]"
C        1.71519070      -0.39966587       0.63193070
C        0.59718630       0.47828055       0.44825644
C        0.74325070       1.61954889      -0.53751826
C       -0.44126589      -0.69037565       0.08353205
C       -1.72235207      -0.60439405       0.89325474
C       -0.57977562      -0.70224727      -1.55343822
N       -1.62983626      -0.61079520      -2.11088679
H        0.53516093      -0.85862817      -1.86751481
H        1.85554411      -0.90024900       1.58122494
H        2.50360246      -0.47520075      -0.10835401
H        0.21209392       0.85023082       1.40089232
H        1.29710536       2.43366805      -0.06852194
H       -0.23036785       1.99335114      -0.85626661
H        1.29242571       1.32327232      -1.43268278
H       -0.01552461      -1.69737906       0.19298728
H       -2.42806357      -1.37339252       0.58423260
H       -1.49888922      -0.75059645       1.95191242
H       -2.20548509       0.36457221       0.76695993
18
Frame=3 idx=007876 GeodesicLength=0.41076862056067065 rxn_smarts="[C:1]([C:2]([C:3]([H:12])([H:13])[H:14])([C@@:4]([C:5]([H:16])([H:17])[H:18])([C:6]#[N:7])[H:15])[H:11])([H:8])([H:9])[H:10]>>[C:1]1([H:9])([H:10])[C@:2]([C:3]([H:12])([H:13])[H:14])([H:11])[C@@:4]1([C:5]([H:16])([H:17])[H:18])[H:15].[C:6](#[N:7])[H:8]"
C        1.70486123      -0.41673745       0.60312887
C        0.59155697       0.47915961       0.44898708
C        0.73810954       1.62471376      -0.53063296
C       -0.43835971      -0.69135199       0.09825005
C       -1.72571670      -0.59901918       0.89749816
C       -0.58683392      -0.71975065      -1.56644633
N       -1.61719591      -0.61638481      -2.15071150
H        0.56711999      -0.89019796      -1.82428224
H        1.87749639      -0.88603406       1.56336797
H        2.50149985      -0.45807628      -0.13099491
H        0.22617445       0.85052966       1.40943733
H        1.29968552       2.43300662      -0.06052150
H       -0.23569143       2.00331814      -0.84329584
H        1.28258236       1.33455345      -1.43071424
H       -0.03327059      -1.70659879       0.20812009
H       -2.43809482      -1.35525602       0.57188483
H       -1.51504740      -0.76179782       1.95636542
H       -2.19887582       0.37592377       0.78055973
18
Frame=4 idx=007876 GeodesicLength=0.5477879744364189 rxn_smarts="[C:1]([C:2]([C:3]([H:12])([H:13])[H:14])([C@@:4]([C:5]([H:16])([H:17])[H:18])([C:6]#[N:7])[H:15])[H:11])([H:8])([H:9])[H:10]>>[C:1]1([H:9])([H:10])[C@:2]([C:3]([H:12])([H:13])[H:14])([H:11])[C@@:4]1([C:5]([H:16])([H:17])[H:18])[H:15].[C:6](#[N:7])[H:8]"
C        1.69417537      -0.43282022       0.57573307
C        0.58591665       0.48019059       0.44971741
C        0.73352771       1.62965079      -0.52406131
C       -0.43521916      -0.69235413       0.11319085
C       -1.72866523      -0.59424269       0.90208171
C       -0.59458118      -0.73711830      -1.57994672
N       -1.60397444      -0.62208842      -2.19134124
H        0.59634403      -0.92031561      -1.78155023
H        1.89869390      -0.87088250       1.54486407
H        2.49813598      -0.44165409      -0.15158051
H        0.24012304       0.85138826       1.41734116
H        1.30308912       2.43203183      -0.05320282
H       -0.24021511       2.01348430      -0.83063924
H        1.27323950       1.34496745      -1.42879384
H       -0.05030133      -1.71528353       0.22263670
H       -2.44725801      -1.33731246       0.55945282
H       -1.53092374      -0.77408290       1.96070173
H       -2.19210711       0.38644163       0.79539638
18
Frame=5 idx=007876 GeodesicLength=0.6848689311552414 rxn_smarts="[C:1]([C:2]([C:3]([H:12])([H:13])[H:14])([C@@:4]([C:5]([H:16])([H:17])[H:18])([C:6]#[N:7])[H:15])[H:11])([H:8])([H:9])[H:10]>>[C:1]1([H:9])([H:10])[C@:2]([C:3]([H:12])([H:13])[H:14])([H:11])[C@@:4]1([C:5]([H:16])([H:17])[H:18])[H:15].[C:6](#[N:7])[H:8]"
C        1.68323956      -0.44788654       0.54976958
C        0.58024319       0.48141679       0.45047816
C        0.72943901       1.63442396      -0.51776487
C       -0.43182190      -0.69336459       0.12844089
C       -1.73121966      -0.59001356       0.90702366
C       -0.60303809      -0.75434102      -1.59390024
N       -1.59002559      -0.62800262      -2.23285363
H        0.62310695      -0.94915785      -1.73935198
H        1.91908694      -0.85495770       1.52575747
H        2.49348074      -0.42611749      -0.17054604
H        0.25392965       0.85283095       1.42467007
H        1.30721185       2.43081630      -0.04650900
H       -0.24401966       2.02388347      -0.81825251
H        1.26435303       1.35463896      -1.42690793
H       -0.06661785      -1.72346039       0.23662012
H       -2.45557687      -1.31947221       0.54695928
H       -1.54658458      -0.78738982       1.96491093
H       -2.18518671       0.39615338       0.81145603
18
Frame=6 idx=007876 GeodesicLength=0.8220839352803555 rxn_smarts="[C:1]([C:2]([C:3]([H:12])([H:13])[H:14])([C@@:4]([C:5]([H:16])([H:17])[H:18])([C:6]#[N:7])[H:15])[H:11])([H:8])([H:9])[H:10]>>[C:1]1([H:9])([H:10])[C@:2]([C:3]([H:12])([H:13])[H:14])([H:11])[C@@:4]1([C:5]([H:16])([H:17])[H:18])[H:15].[C:6](#[N:7])[H:8]"
C        1.67211880      -0.46189389       0.52527008
C        0.57451419       0.48289563       0.45128923
C        0.72580513       1.63909092      -0.51173130
C       -0.42815324      -0.69434356       0.14405125
C       -1.73338920      -0.58630784       0.91235112
C       -0.61230472      -0.77131169      -1.60826198
N       -1.57527105      -0.63426760      -2.27531634
H        0.64769869      -0.97685970      -1.69775546
H        1.93857366      -0.83845369       1.50616832
H        2.48751922      -0.41163287      -0.18819557
H        0.26757679       0.85491765       1.43146256
H        1.31199776       2.42942033      -0.04042398
H       -0.24714026       2.03456393      -0.80611745
H        1.25589010       1.36365012      -1.42505974
H       -0.08221030      -1.73112112       0.25006801
H       -2.46304123      -1.30169806       0.53445429
H       -1.56204431      -0.80169843       1.96897992
H       -2.17814003       0.40504987       0.82876704
18
Frame=7 idx=007876 GeodesicLength=0.959360095056897 rxn_smarts="[C:1]([C:2]([C:3]([H:12])([H:13])[H:14])([C@@:4]([C:5]([H:16])([H:17])[H:18])([C:6]#[N:7])[H:15])[H:11])([H:8])([H:9])[H:10]>>[C:1]1([H:9])([H:10])[C@:2]([C:3]([H:12])([H:13])[H:14])([H:11])[C@@:4]1([C:5]([H:16])([H:17])[H:18])[H:15].[C:6](#[N:7])[H:8]"
C        1.66086440      -0.47485838       0.50222966
C        0.56871133       0.48464936       0.45216035
C        0.72258608       1.64368421      -0.50594135
C       -0.42420522      -0.69527540       0.16007490
C       -1.73518605      -0.58309476       0.91808174
C       -0.62247906      -0.78796601      -1.62301269
N       -1.55959979      -0.64099610      -2.31881389
H        0.67030855      -1.00353199      -1.65678346
H        1.95711939      -0.82147834       1.48620558
H        2.48031258      -0.39823998      -0.20479227
H        0.28106382       0.85765501       1.43775394
H        1.31739597       2.42787023      -0.03491886
H       -0.24961520       2.04555224      -0.79420028
H        1.24780427       1.37206644      -1.42325026
H       -0.09710211      -1.73828486       0.26299133
H       -2.46966391      -1.28391510       0.52196917
H       -1.57734176      -0.81698008       1.97289649
H       -2.17097331       0.41314351       0.84734991
18
Frame=8 idx=007876 GeodesicLength=1.0966889827927235 rxn_smarts="[C:1]([C:2]([C:3]([H:12])([H:13])[H:14])([C@@:4]([C:5]([H:16])([H:17])[H:18])([C:6]#[N:7])[H:15])[H:11])([H:8])([H:9])[H:10]>>[C:1]1([H:9])([H:10])[C@:2]([C:3]([H:12])([H:13])[H:14])([H:11])[C@@:4]1([C:5]([H:16])([H:17])[H:18])[H:15].[C:6](#[N:7])[H:8]"
C        1.64951826      -0.48682896       0.48060466
C        0.56281958       0.48668672       0.45310142
C        0.71973972       1.64823110      -0.50037025
C       -0.41998331      -0.69614564       0.17655664
C       -1.73663587      -0.58033315       0.92423338
C       -0.63366954      -0.80421762      -1.63814121
N       -1.54287834      -0.64834607      -2.36343454
H        0.69113880      -1.02929728      -1.61642690
H        1.97473197      -0.80411742       1.46594811
H        2.47194564      -0.38591385      -0.22056678
H        0.29441014       0.86103792       1.44358134
H        1.32335740       2.42617786      -0.02995496
H       -0.25148499       2.05687393      -0.78245350
H        1.24004053       1.37995448      -1.42148186
H       -0.11135073      -1.74498415       0.27539032
H       -2.47548497      -1.26602958       0.50954563
H       -1.59252866      -0.83321369       1.97663495
H       -2.16368563       0.42046539       0.86723356
18
Frame=9 idx=007876 GeodesicLength=1.23379722801019 rxn_smarts="[C:1]([C:2]([C:3]([H:12])([H:13])[H:14])([C@@:4]([C:5]([H:16])([H:17])[H:18])([C:6]#[N:7])[H:15])[H:11])([H:8])([H:9])[H:10]>>[C:1]1([H:9])([H:10])[C@:2]([C:3]([H:12])([H:13])[H:14])([H:11])[C@@:4]1([C:5]([H:16])([H:17])[H:18])[H:15].[C:6](#[N:7])[H:8]"
C        1.63808081      -0.49774697       0.46038865
C        0.55681597       0.48904549       0.45408769
C        0.71730105       1.65277008      -0.49504492
C       -0.41546012      -0.69691405       0.19349670
C       -1.73770097      -0.57806383       0.93086026
C       -0.64608664      -0.81989777      -1.65376797
N       -1.52497789      -0.65661393      -2.40927840
H        0.71003381      -1.05406877      -1.57675956
H        1.99133065      -0.78643542       1.44572800
H        2.46240326      -0.37476943      -0.23554429
H        0.30755466       0.86511552       1.44893522
H        1.32992572       2.42436246      -0.02554993
H       -0.25268636       2.06859989      -0.77093132
H        1.23265864       1.38734631      -1.41977339
H       -0.12493438      -1.75113165       0.28714892
H       -2.48049562      -1.24799012       0.49724177
H       -1.60754252      -0.85052820       1.98019786
H       -2.15622007       0.42692038       0.88856470
18
Frame=10 idx=007876 GeodesicLength=1.3709984605550516 rxn_smarts="[C:1]([C:2]([C:3]([H:12])([H:13])[H:14])([C@@:4]([C:5]([H:16])([H:17])[H:18])([C:6]#[N:7])[H:15])[H:11])([H:8])([H:9])[H:10]>>[C:1]1([H:9])([H:10])[C@:2]([C:3]([H:12])([H:13])[H:14])([H:11])[C@@:4]1([C:5]([H:16])([H:17])[H:18])[H:15].[C:6](#[N:7])[H:8]"
C        1.62659411      -0.50780040       0.44147974
C        0.55069048       0.49167872       0.45514616
C        0.71516841       1.65729926      -0.48988721
C       -0.41067833      -0.69760557       0.21096990
C       -1.73846938      -0.57616778       0.93794898
C       -0.65980040      -0.83496871      -1.66983382
N       -1.50569563      -0.66590073      -2.45638627
H        0.72744082      -1.07813194      -1.53767454
H        2.00707652      -0.76843900       1.42535419
H        2.45188735      -0.36457565      -0.25005004
H        0.32059900       0.86978951       1.45388200
H        1.33699618       2.42240264      -0.02161069
H       -0.25333675       2.08071364      -0.75946723
H        1.22549660       1.39431981      -1.41810674
H       -0.13801509      -1.75686367       0.29834263
H       -2.48478442      -1.22963071       0.48507826
H       -1.62254111      -0.86876874       1.98352554
H       -2.14862835       0.43264932       0.91128912
18
Frame=11 idx=007876 GeodesicLength=1.508299129170555 rxn_smarts="[C:1]([C:2]([C:3]([H:12])([H:13])[H:14])([C@@:4]([C:5]([H:16])([H:17])[H:18])([C:6]#[N:7])[H:15])[H:11])([H:8])([H:9])[H:10]>>[C:1]1([H:9])([H:10])[C@:2]([C:3]([H:12])([H:13])[H:14])([H:11])[C@@:4]1([C:5]([H:16])([H:17])[H:18])[H:15].[C:6](#[N:7])[H:8]"
C        1.61506767      -0.51705738       0.42381623
C        0.54442575       0.49457826       0.45627837
C        0.71331369       1.66183784      -0.48487316
C       -0.40564615      -0.69821143       0.22900515
C       -1.73895949      -0.57460730       0.94551449
C       -0.67495861      -0.84931366      -1.68637532
N       -1.48489831      -0.67643077      -2.50479261
H        0.74351320      -1.10157490      -1.49912885
H        2.02199777      -0.75016654       1.40486344
H        2.44047948      -0.35525897      -0.26420423
H        0.33356077       0.87503197       1.45844584
H        1.34454794       2.42029623      -0.01810395
H       -0.25345704       2.09324871      -0.74800782
H        1.21851024       1.40092669      -1.41648240
H       -0.15067339      -1.76219063       0.30893140
H       -2.48837729      -1.21084886       0.47308745
H       -1.63755014      -0.88792462       1.98657970
H       -2.14089609       0.43766535       0.93544628
18
Frame=12 idx=007876 GeodesicLength=1.6456968864625112 rxn_smarts="[C:1]([C:2]([C:3]([H:12])([H:13])[H:14])([C@@:4]([C:5]([H:16])([H:17])[H:18])([C:6]#[N:7])[H:15])[H:11])([H:8])([H:9])[H:10]>>[C:1]1([H:9])([H:10])[C@:2]([C:3]([H:12])([H:13])[H:14])([H:11])[C@@:4]1([C:5]([H:16])([H:17])[H:18])[H:15].[C:6](#[N:7])[H:8]"
C        1.60350724      -0.52557955       0.40732214
C        0.53800576       0.49773517       0.45748498
C        0.71170855       1.66640296      -0.47997871
C       -0.40037292      -0.69872350       0.24763006
C       -1.73918523      -0.57334635       0.95357503
C       -0.69172749      -0.86278577      -1.70344325
N       -1.46239806      -0.68847621      -2.55452969
H        0.75837480      -1.12446904      -1.46107734
H        2.03613137      -0.73165011       1.38427540
H        2.42824439      -0.34675045      -0.27809751
H        0.34646491       0.88081170       1.46264777
H        1.35256065       2.41803564      -0.01499711
H       -0.25306544       2.10623715      -0.73649439
H        1.21164924       1.40721772      -1.41490098
H       -0.16299052      -1.76711915       0.31886508
H       -2.49130684      -1.19152459       0.46131388
H       -1.65259691      -0.90799513       1.98930752
H       -2.13300350       0.44197952       0.96109712
18
Frame=13 idx=007876 GeodesicLength=1.7830770192359535 rxn_smarts="[C:1]([C:2]([C:3]([H:12])([H:13])[H:14])([C@@:4]([C:5]([H:16])([H:17])[H:18])([C:6]#[N:7])[H:15])[H:11])([H:8])([H:9])[H:10]>>[C:1]1([H:9])([H:10])[C@:2]([C:3]([H:12])([H:13])[H:14])([H:11])[C@@:4]1([C:5]([H:16])([H:17])[H:18])[H:15].[C:6](#[N:7])[H:8]"
C        1.59191761      -0.53342946       0.39193495
C        0.53141332       0.50113715       0.45876599
C        0.71032519       1.67099811      -0.47518964
C       -0.39486304      -0.69914138       0.26687303
C       -1.73915874      -0.57235942       0.96214072
C       -0.71025861      -0.87524755      -1.72109172
N       -1.43800305      -0.70223426      -2.60557287
H        0.77211204      -1.14687369      -1.42347207
H        2.04952499      -0.71289351       1.36360555
H        2.41524103      -0.33897576      -0.29180370
H        0.35932845       0.88709674       1.46650438
H        1.36100690       2.41560325      -0.01226974
H       -0.25217628       2.11969131      -0.72489005
H        1.20487141       1.41322269      -1.41336627
H       -0.17505028      -1.77165200       0.32808816
H       -2.49359099      -1.17155118       0.44979833
H       -1.66770482      -0.92898137       1.99165062
H       -2.12493512       0.44559032       0.98829433
18
Frame=14 idx=007876 GeodesicLength=1.9204858387042052 rxn_smarts="[C:1]([C:2]([C:3]([H:12])([H:13])[H:14])([C@@:4]([C:5]([H:16])([H:17])[H:18])([C:6]#[N:7])[H:15])[H:11])([H:8])([H:9])[H:10]>>[C:1]1([H:9])([H:10])[C@:2]([C:3]([H:12])([H:13])[H:14])([H:11])[C@@:4]1([C:5]([H:16])([H:17])[H:18])[H:15].[C:6](#[N:7])[H:8]"
C        1.58029293      -0.54066064       0.37755396
C        0.52463299       0.50477421       0.46012230
C        0.70914708       1.67565976      -0.47045779
C       -0.38912650      -0.69944680       0.28673907
C       -1.73888862      -0.57160135       0.97121671
C       -0.73077395      -0.88643787      -1.73940614
N       -1.41148454      -0.71826785      -2.65785540
H        0.78483662      -1.16881911      -1.38627834
H        2.06220522      -0.69395981       1.34282475
H        2.40151882      -0.33185602      -0.30539901
H        0.37218033       0.89383538       1.47004055
H        1.36988784       2.41299285      -0.00985787
H       -0.25078734       2.13367889      -0.71309956
H        1.19813679       1.41902665      -1.41185878
H       -0.18696038      -1.77576356       0.33649626
H       -2.49525860      -1.15077823       0.43858265
H       -1.68291467      -0.95088166       1.99352599
H       -2.11664401       0.44850516       1.01711062
18
Frame=15 idx=007876 GeodesicLength=2.0579007495699115 rxn_smarts="[C:1]([C:2]([C:3]([H:12])([H:13])[H:14])([C@@:4]([C:5]([H:16])([H:17])[H:18])([C:6]#[N:7])[H:15])[H:11])([H:8])([H:9])[H:10]>>[C:1]1([H:9])([H:10])[C@:2]([C:3]([H:12])([H:13])[H:14])([H:11])[C@@:4]1([C:5]([H:16])([H:17])[H:18])[H:15].[C:6](#[N:7])[H:8]"
C        1.56861900      -0.54732118       0.36408084
C        0.51764938       0.50863691       0.46155398
C        0.70816129       1.68041910      -0.46573130
C       -0.38317083      -0.69962563       0.30723443
C       -1.73838577      -0.57102875       0.98080885
C       -0.75348834      -0.89607773      -1.75850449
N       -1.38257435      -0.73715574      -2.71124954
H        0.79662127      -1.19032075      -1.34947101
H        2.07419634      -0.67489715       1.32188365
H        2.38710095      -0.32531566      -0.31896208
H        0.38505377       0.90097079       1.47327355
H        1.37920276       2.41019543      -0.00769167
H       -0.24888842       2.14825660      -0.70102469
H        1.19140975       1.42471034      -1.41034863
H       -0.19882616      -1.77942019       0.34397550
H       -2.49632806      -1.12905693       0.42770856
H       -1.69825574      -0.97369193       1.99484938
H       -2.10809683       0.45072248       1.04761467
18
Frame=16 idx=007876 GeodesicLength=2.1953524550309713 rxn_smarts="[C:1]([C:2]([C:3]([H:12])([H:13])[H:14])([C@@:4]([C:5]([H:16])([H:17])[H:18])([C:6]#[N:7])[H:15])[H:11])([H:8])([H:9])[H:10]>>[C:1]1([H:9])([H:10])[C@:2]([C:3]([H:12])([H:13])[H:14])([H:11])[C@@:4]1([C:5]([H:16])([H:17])[H:18])[H:15].[C:6](#[N:7])[H:8]"
C        1.55687743      -0.55344851       0.35140887
C        0.51045124       0.51271355       0.46305494
C        0.70735719       1.68530514      -0.46095619
C       -0.37699850      -0.69966861       0.32835941
C       -1.73766573      -0.57060396       0.99093109
C       -0.77864059      -0.90384737      -1.77856632
N       -1.35094146      -0.75950598      -2.76555109
H        0.80753795      -1.21139368      -1.31302909
H        2.08551949      -0.65574541       1.30070907
H        2.37198971      -0.31928151      -0.33257482
H        0.39798632       0.90843959       1.47620722
H        1.38895031       2.40719865      -0.00569728
H       -0.24646501       2.16347352      -0.68856373
H        1.18465607       1.43035591      -1.40880169
H       -0.21074212      -1.78258014       0.35040052
H       -2.49681714      -1.10622818       0.41723088
H       -1.71378030      -0.99741373       1.99554650
H       -2.09927486       0.45223073       1.07989169
