12
Frame=0 idx=005355 GeodesicLength=0.0 rxn_smarts="[O:1]([C@@:2]1([H:8])[C:3]([H:9])([H:10])[C@:4]1([C:5](=[O:6])[H:12])[H:11])[H:7]>>[O:1]([C@@:2]1([H:8])[C:3]([H:9])([H:10])[O:6][C:5]([H:12])=[C:4]1[H:11])[H:7]"
O       -1.78179189       0.77692791      -0.11904803
C       -0.83624078      -0.20903564      -0.42931547
C        0.20028008       0.21256330      -1.31147453
C        0.12287062      -0.67754636       0.65185759
C        1.17839039       0.14714044       1.04569502
O        1.68426090       1.02503465       0.33634777
H       -1.90529154       0.76942252       0.83268796
H       -1.30346178      -1.13406463      -0.79106122
H        0.72886178      -0.52908212      -1.89443727
H        0.40291614       1.25715168      -1.48969300
H       -0.03801295      -1.65405440       1.09103228
H        1.54721899       0.01554265       2.07740890
12
Frame=1 idx=005355 GeodesicLength=0.0619758340496343 rxn_smarts="[O:1]([C@@:2]1([H:8])[C:3]([H:9])([H:10])[C@:4]1([C:5](=[O:6])[H:12])[H:11])[H:7]>>[O:1]([C@@:2]1([H:8])[C:3]([H:9])([H:10])[O:6][C:5]([H:12])=[C:4]1[H:11])[H:7]"
O       -1.79494133       0.74894921      -0.10382304
C       -0.84042634      -0.22157657      -0.42860561
C        0.20853663       0.21101438      -1.29785931
C        0.13408137      -0.69649201       0.63266534
C        1.16069744       0.15057740       1.05376267
O        1.71086338       0.98628891       0.32314142
H       -1.84081042       0.82675406       0.85108768
H       -1.30777259      -1.14026117      -0.80493690
H        0.71800598      -0.51980770      -1.91109632
H        0.38392196       1.25983890      -1.48196688
H       -0.00894117      -1.68060001       1.06012685
H        1.47678509       0.07531462       2.10750410
12
Frame=2 idx=005355 GeodesicLength=0.12332035857128051 rxn_smarts="[O:1]([C@@:2]1([H:8])[C:3]([H:9])([H:10])[C@:4]1([C:5](=[O:6])[H:12])[H:11])[H:7]>>[O:1]([C@@:2]1([H:8])[C:3]([H:9])([H:10])[O:6][C:5]([H:12])=[C:4]1[H:11])[H:7]"
O       -1.80739963       0.72032646      -0.08447647
C       -0.84461796      -0.23405397      -0.42673416
C        0.21629419       0.20981763      -1.28319107
C        0.14434224      -0.71395341       0.61569375
C        1.14565145       0.15133053       1.05986324
O        1.73514997       0.94828289       0.31312508
H       -1.77948974       0.88410579       0.85969756
H       -1.31186994      -1.14626152      -0.81752120
H        0.70796783      -0.50918985      -1.92470091
H        0.36506691       1.26226935      -1.47213307
H        0.01985474      -1.70550386       1.03080557
H        1.40904994       0.13282996       2.12957169
12
Frame=3 idx=005355 GeodesicLength=0.1839784255339915 rxn_smarts="[O:1]([C@@:2]1([H:8])[C:3]([H:9])([H:10])[C@:4]1([C:5](=[O:6])[H:12])[H:11])[H:7]>>[O:1]([C@@:2]1([H:8])[C:3]([H:9])([H:10])[O:6][C:5]([H:12])=[C:4]1[H:11])[H:7]"
O       -1.81857286       0.69168483      -0.06103052
C       -0.84872977      -0.24616056      -0.42377374
C        0.22381907       0.20882495      -1.26757115
C        0.15376242      -0.73023517       0.60064431
C        1.13331046       0.14946813       1.06466635
O        1.75702611       0.91171244       0.30587404
H       -1.72240990       0.94060933       0.85934820
H       -1.31616527      -1.15149299      -0.82891710
H        0.69879789      -0.49772194      -1.93543763
H        0.34653280       1.26426964      -1.46083513
H        0.04817741      -1.72906444       1.00257599
H        1.34445164       0.18810577       2.14445637
12
Frame=4 idx=005355 GeodesicLength=0.2435579842345846 rxn_smarts="[O:1]([C@@:2]1([H:8])[C:3]([H:9])([H:10])[C@:4]1([C:5](=[O:6])[H:12])[H:11])[H:7]>>[O:1]([C@@:2]1([H:8])[C:3]([H:9])([H:10])[O:6][C:5]([H:12])=[C:4]1[H:11])[H:7]"
O       -1.82739357       0.66443403      -0.03387700
C       -0.85247839      -0.25726281      -0.41979717
C        0.23156122       0.20799838      -1.25123256
C        0.16267885      -0.74544434       0.58709332
C        1.12404572       0.14507580       1.06848341
O        1.77794492       0.87574339       0.30035613
H       -1.67230777       0.99304908       0.85241393
H       -1.32106343      -1.15500415      -0.83909734
H        0.69022566      -0.48586307      -1.94386779
H        0.32916643       1.26577092      -1.44853077
H        0.07554206      -1.75113928       0.97533896
H        1.28207829       0.24264204       2.15271687
12
Frame=5 idx=005355 GeodesicLength=0.3019525729934582 rxn_smarts="[O:1]([C@@:2]1([H:8])[C:3]([H:9])([H:10])[C@:4]1([C:5](=[O:6])[H:12])[H:11])[H:7]>>[O:1]([C@@:2]1([H:8])[C:3]([H:9])([H:10])[O:6][C:5]([H:12])=[C:4]1[H:11])[H:7]"
O       -1.83433164       0.63869318      -0.00442704
C       -0.85591772      -0.26727926      -0.41496977
C        0.23970697       0.20727703      -1.23420763
C        0.17096340      -0.75935527       0.57515668
C        1.11728074       0.13910632       1.07202362
O        1.79831353       0.84034040       0.29629120
H       -1.63082323       1.04155394       0.84009029
H       -1.32650486      -1.15685930      -0.84822129
H        0.68241096      -0.47386801      -1.95011829
H        0.31308060       1.26677900      -1.43547447
H        0.10189600      -1.77161174       0.94903618
H        1.22392525       0.29522370       2.15482052
12
Frame=6 idx=005355 GeodesicLength=0.3599108681934255 rxn_smarts="[O:1]([C@@:2]1([H:8])[C:3]([H:9])([H:10])[C@:4]1([C:5](=[O:6])[H:12])[H:11])[H:7]>>[O:1]([C@@:2]1([H:8])[C:3]([H:9])([H:10])[O:6][C:5]([H:12])=[C:4]1[H:11])[H:7]"
O       -1.84041817       0.61273916       0.02716934
C       -0.85947757      -0.27673528      -0.40971798
C        0.24772402       0.20660662      -1.21665883
C        0.17818807      -0.77177410       0.56451389
C        1.10983541       0.13391369       1.07602730
O        1.81485023       0.80866919       0.29445305
H       -1.59305994       1.08906751       0.81965839
H       -1.33199867      -1.15792670      -0.85639972
H        0.67595418      -0.46170436      -1.95356561
H        0.29702209       1.26706083      -1.42277162
H        0.12679249      -1.78984109       0.92439959
H        1.17458786       0.33992453       2.15289219
12
Frame=7 idx=005355 GeodesicLength=0.41724295895122926 rxn_smarts="[O:1]([C@@:2]1([H:8])[C:3]([H:9])([H:10])[C@:4]1([C:5](=[O:6])[H:12])[H:11])[H:7]>>[O:1]([C@@:2]1([H:8])[C:3]([H:9])([H:10])[O:6][C:5]([H:12])=[C:4]1[H:11])[H:7]"
O       -1.84533244       0.58734533       0.06092097
C       -0.86293282      -0.28534243      -0.40380110
C        0.25588360       0.20609038      -1.19862333
C        0.18493902      -0.78313554       0.55511846
C        1.10380228       0.12813183       1.08025432
O        1.83073888       0.77792034       0.29376229
H       -1.56281594       1.13481581       0.79309969
H       -1.33799241      -1.15768732      -0.86377494
H        0.67014121      -0.44946810      -1.95528304
H        0.28161155       1.26694168      -1.40974123
H        0.15112027      -1.80677022       0.90024550
H        1.13083680       0.38115823       2.14782241
12
Frame=8 idx=005355 GeodesicLength=0.47443640179323937 rxn_smarts="[O:1]([C@@:2]1([H:8])[C:3]([H:9])([H:10])[C@:4]1([C:5](=[O:6])[H:12])[H:11])[H:7]>>[O:1]([C@@:2]1([H:8])[C:3]([H:9])([H:10])[O:6][C:5]([H:12])=[C:4]1[H:11])[H:7]"
O       -1.84817379       0.56304094       0.09670698
C       -0.86597912      -0.29294026      -0.39717825
C        0.26439886       0.20581082      -1.18017395
C        0.19157514      -0.79388618       0.54649947
C        1.09952951       0.12122077       1.08446946
O        1.84690763       0.74680244       0.29360643
H       -1.54015289       1.17704592       0.76253430
H       -1.34454647      -1.15567090      -0.87026823
H        0.66457894      -0.43697575      -1.95572560
H        0.26742027       1.26656588      -1.39617271
H        0.17454117      -1.82265259       0.87654015
H        1.08990075       0.42163892       2.13916195
12
Frame=9 idx=005355 GeodesicLength=0.5321275275924361 rxn_smarts="[O:1]([C@@:2]1([H:8])[C:3]([H:9])([H:10])[C@:4]1([C:5](=[O:6])[H:12])[H:11])[H:7]>>[O:1]([C@@:2]1([H:8])[C:3]([H:9])([H:10])[O:6][C:5]([H:12])=[C:4]1[H:11])[H:7]"
O       -1.84914358       0.53942416       0.13481036
C       -0.86871744      -0.29967780      -0.38974934
C        0.27320166       0.20579582      -1.16118983
C        0.19811198      -0.80422229       0.53864142
C        1.09686366       0.11319923       1.08891967
O        1.86339593       0.71517494       0.29404322
H       -1.52488195       1.21681912       0.72721708
H       -1.35172105      -1.15200019      -0.87589992
H        0.65927891      -0.42411179      -1.95491711
H        0.25430767       1.26604755      -1.38182772
H        0.19739421      -1.83785344       0.85281449
H        1.05191002       0.46140468       2.12713769
12
Frame=10 idx=005355 GeodesicLength=0.5901591807540607 rxn_smarts="[O:1]([C@@:2]1([H:8])[C:3]([H:9])([H:10])[C@:4]1([C:5](=[O:6])[H:12])[H:11])[H:7]>>[O:1]([C@@:2]1([H:8])[C:3]([H:9])([H:10])[O:6][C:5]([H:12])=[C:4]1[H:11])[H:7]"
O       -1.84790167       0.51742287       0.17343986
C       -0.87087788      -0.30530798      -0.38171301
C        0.28256664       0.20614230      -1.14178387
C        0.20456937      -0.81394917       0.53148090
C        1.09593712       0.10423435       1.09332950
O        1.88102306       0.68190745       0.29446691
H       -1.51874745       1.25180750       0.69010012
H       -1.35927262      -1.14639425      -0.88067733
H        0.65429676      -0.41084815      -1.95295511
H        0.24287697       1.26556330      -1.36667412
H        0.21877924      -1.85190869       0.82995464
H        1.01675046       0.50133047       2.11103150
12
Frame=11 idx=005355 GeodesicLength=0.6488388082467667 rxn_smarts="[O:1]([C@@:2]1([H:8])[C:3]([H:9])([H:10])[C@:4]1([C:5](=[O:6])[H:12])[H:11])[H:7]>>[O:1]([C@@:2]1([H:8])[C:3]([H:9])([H:10])[O:6][C:5]([H:12])=[C:4]1[H:11])[H:7]"
O       -1.84488811       0.49645712       0.21371135
C       -0.87293522      -0.31011731      -0.37290525
C        0.29197602       0.20670019      -1.12191300
C        0.21082595      -0.82301868       0.52510100
C        1.09557692       0.09519771       1.09820792
O        1.89789625       0.64929176       0.29566770
H       -1.51974059       1.28464566       0.64666230
H       -1.36748129      -1.13924873      -0.88436337
H        0.64961103      -0.39740140      -1.94957304
H        0.23210310       1.26486249      -1.35129386
H        0.23986556      -1.86503139       0.80716125
H        0.98719038       0.53766259       2.09353699
12
Frame=12 idx=005355 GeodesicLength=0.7079382687426513 rxn_smarts="[O:1]([C@@:2]1([H:8])[C:3]([H:9])([H:10])[C@:4]1([C:5](=[O:6])[H:12])[H:11])[H:7]>>[O:1]([C@@:2]1([H:8])[C:3]([H:9])([H:10])[O:6][C:5]([H:12])=[C:4]1[H:11])[H:7]"
O       -1.83981907       0.47761767       0.25424127
C       -0.87473379      -0.31398667      -0.36355656
C        0.30171705       0.20750116      -1.10179832
C        0.21694802      -0.83145575       0.51927106
C        1.09610174       0.08600484       1.10327183
O        1.91494741       0.61630633       0.29713800
H       -1.52844373       1.31281954       0.60032888
H       -1.37638658      -1.13039276      -0.88714175
H        0.64536275      -0.38381780      -1.94514393
H        0.22259829       1.26410620      -1.33563254
H        0.25981441      -1.87705148       0.78502728
H        0.96189350       0.57234873       2.07399478
12
Frame=13 idx=005355 GeodesicLength=0.7680193999569732 rxn_smarts="[O:1]([C@@:2]1([H:8])[C:3]([H:9])([H:10])[C@:4]1([C:5](=[O:6])[H:12])[H:11])[H:7]>>[O:1]([C@@:2]1([H:8])[C:3]([H:9])([H:10])[O:6][C:5]([H:12])=[C:4]1[H:11])[H:7]"
O       -1.83262241       0.46081702       0.29504296
C       -0.87612650      -0.31691848      -0.35352762
C        0.31185788       0.20872861      -1.08122331
C        0.22304138      -0.83938118       0.51406081
C        1.09792979       0.07629081       1.10848669
O        1.93270543       0.58207692       0.29865327
H       -1.54607423       1.33651945       0.55056821
H       -1.38583200      -1.11973862      -0.88891568
H        0.64139207      -0.36976080      -1.93966651
H        0.21442199       1.26360748      -1.31913575
H        0.27856897      -1.88817995       0.76357925
H        0.94073763       0.60593873       2.05207769
12
Frame=14 idx=005355 GeodesicLength=0.829320136756415 rxn_smarts="[O:1]([C@@:2]1([H:8])[C:3]([H:9])([H:10])[C@:4]1([C:5](=[O:6])[H:12])[H:11])[H:7]>>[O:1]([C@@:2]1([H:8])[C:3]([H:9])([H:10])[O:6][C:5]([H:12])=[C:4]1[H:11])[H:7]"
O       -1.82309838       0.44669833       0.33639901
C       -0.87727517      -0.31896864      -0.34258695
C        0.32227993       0.21033711      -1.06007580
C        0.22908939      -0.84693179       0.50949816
C        1.10090562       0.06606238       1.11404122
O        1.95083326       0.54704133       0.30039304
H       -1.57204863       1.35548702       0.49610250
H       -1.39616993      -1.10723697      -0.88938061
H        0.63764862      -0.35526109      -1.93306574
H        0.20740025       1.26337958      -1.30176276
H        0.29669079      -1.89873815       0.74211550
H        0.92374427       0.63813090       2.02832242
12
Frame=15 idx=005355 GeodesicLength=0.8921100662154511 rxn_smarts="[O:1]([C@@:2]1([H:8])[C:3]([H:9])([H:10])[C@:4]1([C:5](=[O:6])[H:12])[H:11])[H:7]>>[O:1]([C@@:2]1([H:8])[C:3]([H:9])([H:10])[O:6][C:5]([H:12])=[C:4]1[H:11])[H:7]"
O       -1.81077134       0.43558845       0.37778577
C       -0.87781721      -0.31985470      -0.33080650
C        0.33311831       0.21261713      -1.03834129
C        0.23525104      -0.85381182       0.50559883
C        1.10559322       0.05517180       1.11964110
O        1.96975581       0.51049089       0.30185531
H       -1.60938186       1.36862498       0.43640749
H       -1.40694656      -1.09253764      -0.88846939
H        0.63402961      -0.33995450      -1.92536460
H        0.20175390       1.26372148      -1.28323620
H        0.31309071      -1.90817746       0.72189802
H        0.91232439       0.66812139       2.00303145
12
Frame=16 idx=005355 GeodesicLength=0.9550956819384195 rxn_smarts="[O:1]([C@@:2]1([H:8])[C:3]([H:9])([H:10])[C@:4]1([C:5](=[O:6])[H:12])[H:11])[H:7]>>[O:1]([C@@:2]1([H:8])[C:3]([H:9])([H:10])[O:6][C:5]([H:12])=[C:4]1[H:11])[H:7]"
O       -1.79604143       0.42919139       0.41752838
C       -0.87816208      -0.31984686      -0.31849529
C        0.34425184       0.21522028      -1.01638208
C        0.24118980      -0.86004432       0.50219345
C        1.11098913       0.04430437       1.12538597
O        1.98856346       0.47365125       0.30334988
H       -1.65347977       1.37403038       0.37474686
H       -1.41863772      -1.07608276      -0.88626117
H        0.63085179      -0.32444696      -1.91672045
H        0.19718251       1.26430583      -1.26433409
H        0.32825346      -1.91669998       0.70225185
H        0.90503902       0.69641737       1.97673672
