12
Frame=0 idx=004252 GeodesicLength=0.0 rxn_smarts="[C:1]1([H:7])([H:8])[C@@:2]2([H:9])[C@:3]1([H:10])[C@@:4]1([H:11])[O:5][C@@:6]21[H:12]>>[C:1]1([H:7])([H:8])[C@@:2]2([H:9])[C@:3]1([H:10])[C:4][C@:6]2([O:5][H:11])[H:12]"
C        1.24746771       0.19773375      -0.36853226
C        0.30881089      -0.90562964      -0.05973176
C        0.47763751       0.24567267       0.92353938
C       -1.00290976       0.59515545       0.78581902
O       -1.23582394       0.77536694      -1.00621902
C       -1.15459983      -0.43445649      -0.26789953
H        1.02816311       0.90213278      -1.15820362
H        2.29459049      -0.04386361      -0.23569953
H        0.60475495      -1.94028233       0.03619051
H        0.98623814       0.30743296       1.87499721
H       -1.58050922       1.43245686      -0.10924350
H       -1.97382004      -1.13171938      -0.41501690
12
Frame=1 idx=004252 GeodesicLength=0.04567791608222212 rxn_smarts="[C:1]1([H:7])([H:8])[C@@:2]2([H:9])[C@:3]1([H:10])[C@@:4]1([H:11])[O:5][C@@:6]21[H:12]>>[C:1]1([H:7])([H:8])[C@@:2]2([H:9])[C@:3]1([H:10])[C:4][C@:6]2([O:5][H:11])[H:12]"
C        1.24914328       0.19711852      -0.36885616
C        0.30712228      -0.90439128      -0.05941894
C        0.48143967       0.25116894       0.92342414
C       -0.99902743       0.58400805       0.78527393
O       -1.23539743       0.77963740      -1.00471275
C       -1.15286906      -0.43573087      -0.27670294
H        1.02970999       0.89831494      -1.16136454
H        2.29593957      -0.04669435      -0.23709282
H        0.60160007      -1.93838404       0.04690630
H        0.98925779       0.30967189       1.87556993
H       -1.59309767       1.43616193      -0.10080931
H       -1.97382105      -1.13088112      -0.42221683
12
Frame=2 idx=004252 GeodesicLength=0.09135989432995864 rxn_smarts="[C:1]1([H:7])([H:8])[C@@:2]2([H:9])[C@:3]1([H:10])[C@@:4]1([H:11])[O:5][C@@:6]21[H:12]>>[C:1]1([H:7])([H:8])[C@@:2]2([H:9])[C@:3]1([H:10])[C:4][C@:6]2([O:5][H:11])[H:12]"
C        1.25084875       0.19648990      -0.36916096
C        0.30544800      -0.90316352      -0.05915600
C        0.48520825       0.25667692       0.92327085
C       -0.99504544       0.57293742       0.78460886
O       -1.23497321       0.78386767      -1.00317598
C       -1.15109674      -0.43694934      -0.28548705
H        1.03130470       0.89444374      -1.16452607
H        2.29730312      -0.04954328      -0.23839938
H        0.59838016      -1.93641734       0.05752129
H        0.99220958       0.31191655       1.87611434
H       -1.60580391       1.43973359      -0.09229211
H       -1.97378325      -1.12999233      -0.42931779
12
Frame=3 idx=004252 GeodesicLength=0.13704544278724767 rxn_smarts="[C:1]1([H:7])([H:8])[C@@:2]2([H:9])[C@:3]1([H:10])[C@@:4]1([H:11])[O:5][C@@:6]21[H:12]>>[C:1]1([H:7])([H:8])[C@@:2]2([H:9])[C@:3]1([H:10])[C:4][C@:6]2([O:5][H:11])[H:12]"
C        1.25258467       0.19584591      -0.36944846
C        0.30378875      -0.90194947      -0.05894740
C        0.48894218       0.26219362       0.92307902
C       -0.99096303       0.56194293       0.78382850
O       -1.23455069       0.78805990      -1.00160528
C       -1.14928293      -0.43811057      -0.29425071
H        1.03294915       0.89051864      -1.16768944
H        2.29868198      -0.05241017      -0.23961862
H        0.59509214      -1.93438670       0.06804416
H        0.99509789       0.31417647       1.87662687
H       -1.61863395       1.44316866      -0.08368703
H       -1.97370617      -1.12904921      -0.43633162
12
Frame=4 idx=004252 GeodesicLength=0.18274804173271614 rxn_smarts="[C:1]1([H:7])([H:8])[C@@:2]2([H:9])[C@:3]1([H:10])[C@@:4]1([H:11])[O:5][C@@:6]21[H:12]>>[C:1]1([H:7])([H:8])[C@@:2]2([H:9])[C@:3]1([H:10])[C:4][C@:6]2([O:5][H:11])[H:12]"
C        1.25435233       0.19518336      -0.36971788
C        0.30214480      -0.90075004      -0.05879519
C        0.49264250       0.26771501       0.92284567
C       -0.98678167       0.55102442       0.78293816
O       -1.23412666       0.79221805      -0.99999893
C       -1.14742801      -0.43921482      -0.30299301
H        1.03464447       0.88653458      -1.17085180
H        2.30007807      -0.05529925      -0.24075011
H        0.59173371      -1.93229083       0.07848174
H        0.99792923       0.31646328       1.87709973
H       -1.63160049       1.44646789      -0.07498584
H       -1.97358829      -1.12805166      -0.44327254
12
Frame=5 idx=004252 GeodesicLength=0.22845546234618475 rxn_smarts="[C:1]1([H:7])([H:8])[C@@:2]2([H:9])[C@:3]1([H:10])[C@@:4]1([H:11])[O:5][C@@:6]21[H:12]>>[C:1]1([H:7])([H:8])[C@@:2]2([H:9])[C@:3]1([H:10])[C:4][C@:6]2([O:5][H:11])[H:12]"
C        1.25615209       0.19450253      -0.36997017
C        0.30051657      -0.89956746      -0.05870218
C        0.49630975       0.27324146       0.92257130
C       -0.98249968       0.54018691       0.78194214
O       -1.23370277       0.79634664      -0.99835271
C       -1.14552917      -0.44025768      -0.31171042
H        1.03639338       0.88248970      -1.17401772
H        2.30149045      -0.05821059      -0.24179474
H        0.58830184      -1.93013431       0.08883919
H        1.00070505       0.31877390       1.87753365
H       -1.64471453       1.44962473      -0.06619329
H       -1.97342297      -1.12699583      -0.45014506
12
Frame=6 idx=004252 GeodesicLength=0.2741717463949043 rxn_smarts="[C:1]1([H:7])([H:8])[C@@:2]2([H:9])[C@:3]1([H:10])[C@@:4]1([H:11])[O:5][C@@:6]21[H:12]>>[C:1]1([H:7])([H:8])[C@@:2]2([H:9])[C@:3]1([H:10])[C:4][C@:6]2([O:5][H:11])[H:12]"
C        1.25798479       0.19381114      -0.37020348
C        0.29890717      -0.89839884      -0.05867777
C        0.49994067       0.27876824       0.92225844
C       -0.97811501       0.52944877       0.78083005
O       -1.23327423       0.80042578      -0.99668441
C       -1.14359156      -0.44124195      -0.32039359
H        1.03819597       0.87840325      -1.17717593
H        2.30291998      -0.06114527      -0.24275584
H        0.58480851      -1.92791221       0.09910102
H        1.00341241       0.32107818       1.87793755
H       -1.65796629       1.45264719      -0.05733094
H       -1.97322242      -1.12588428      -0.45690511
12
Frame=7 idx=004252 GeodesicLength=0.3199012562908188 rxn_smarts="[C:1]1([H:7])([H:8])[C@@:2]2([H:9])[C@:3]1([H:10])[C@@:4]1([H:11])[O:5][C@@:6]21[H:12]>>[C:1]1([H:7])([H:8])[C@@:2]2([H:9])[C@:3]1([H:10])[C:4][C@:6]2([O:5][H:11])[H:12]"
C        1.25985192       0.19310542      -0.37041797
C        0.29731675      -0.89724711      -0.05872249
C        0.50353739       0.28429307       0.92190595
C       -0.97362819       0.51880847       0.77961162
O       -1.23284193       0.80446535      -0.99498755
C       -1.14161299      -0.44216558      -0.32904206
H        1.04005470       0.87426609      -1.18032998
H        2.30436790      -0.06410576      -0.24363172
H        0.58124926      -1.92562770       0.10927393
H        1.00606003       0.32338980       1.87830647
H       -1.67137344       1.45553192      -0.04839417
H       -1.97298140      -1.12471397      -0.46357202
12
Frame=8 idx=004252 GeodesicLength=0.3656569764006225 rxn_smarts="[C:1]1([H:7])([H:8])[C@@:2]2([H:9])[C@:3]1([H:10])[C@@:4]1([H:11])[O:5][C@@:6]21[H:12]>>[C:1]1([H:7])([H:8])[C@@:2]2([H:9])[C@:3]1([H:10])[C:4][C@:6]2([O:5][H:11])[H:12]"
C        1.26175411       0.19238337      -0.37061328
C        0.29574697      -0.89611472      -0.05883588
C        0.50710031       0.28981421       0.92151146
C       -0.96904016       0.50826383       0.77828999
O       -1.23240241       0.80847048      -0.99326044
C       -1.13959237      -0.44302801      -0.33765775
H        1.04197020       0.87007002      -1.18348154
H        2.30583504      -0.06709341      -0.24442326
H        0.57762168      -1.92328179       0.11936702
H        1.00865328       0.32571953       1.87863533
H       -1.68494802       1.45827694      -0.03937024
H       -1.97269862      -1.12348046      -0.47016141
12
Frame=9 idx=004252 GeodesicLength=0.411442565559413 rxn_smarts="[C:1]1([H:7])([H:8])[C@@:2]2([H:9])[C@:3]1([H:10])[C@@:4]1([H:11])[O:5][C@@:6]21[H:12]>>[C:1]1([H:7])([H:8])[C@@:2]2([H:9])[C@:3]1([H:10])[C:4][C@:6]2([O:5][H:11])[H:12]"
C        1.26369213       0.19164395      -0.37079058
C        0.29419897      -0.89500342      -0.05902287
C        0.51063045       0.29532946       0.92107825
C       -0.96434965       0.49781509       0.77687263
O       -1.23195291       0.81244394      -0.99149611
C       -1.13752803      -0.44382513      -0.34623724
H        1.04394401       0.86581769      -1.18663214
H        2.30732155      -0.07011575      -0.24513572
H        0.57392418      -1.92087490       0.12939072
H        1.01119738       0.32807098       1.87892325
H       -1.69870626       1.46087756      -0.03026529
H       -1.97237183      -1.12217947      -0.47668491
12
Frame=10 idx=004252 GeodesicLength=0.4572130524927836 rxn_smarts="[C:1]1([H:7])([H:8])[C@@:2]2([H:9])[C@:3]1([H:10])[C@@:4]1([H:11])[O:5][C@@:6]21[H:12]>>[C:1]1([H:7])([H:8])[C@@:2]2([H:9])[C@:3]1([H:10])[C:4][C@:6]2([O:5][H:11])[H:12]"
C        1.26566571       0.19088649      -0.37095098
C        0.29267070      -0.89391217      -0.05928144
C        0.51412842       0.30084250       0.92060271
C       -0.95956474       0.48746264       0.77536221
O       -1.23149418       0.81639838      -0.98969371
C       -1.13542118      -0.44455478      -0.35478632
H        1.04597808       0.86149939      -1.18978803
H        2.30882536      -0.07317789      -0.24577209
H        0.57015607      -1.91840631       0.13936082
H        1.01369553       0.33045518       1.87916687
H       -1.71264343       1.46331466      -0.02105675
H       -1.97199634      -1.12080810      -0.48316329
12
Frame=11 idx=004252 GeodesicLength=0.5030112685262851 rxn_smarts="[C:1]1([H:7])([H:8])[C@@:2]2([H:9])[C@:3]1([H:10])[C@@:4]1([H:11])[O:5][C@@:6]21[H:12]>>[C:1]1([H:7])([H:8])[C@@:2]2([H:9])[C@:3]1([H:10])[C:4][C@:6]2([O:5][H:11])[H:12]"
C        1.26767589       0.19011206      -0.37109046
C        0.29116520      -0.89284386      -0.05961410
C        0.51759378       0.30634631       0.92008885
C       -0.95467833       0.47721968       0.77375742
O       -1.23102369       0.82031748      -0.98786186
C       -1.13327356      -0.44521943      -0.36329086
H        1.04807305       0.85712133      -1.19294019
H        2.31034877      -0.07627367      -0.24632605
H        0.56632311      -1.91587768       0.14924457
H        1.01614531       0.33285761       1.87937121
H       -1.72676965       1.46560838      -0.01177442
H       -1.97157988      -1.11936821      -0.48956412
12
Frame=12 idx=004252 GeodesicLength=0.5488306062018747 rxn_smarts="[C:1]1([H:7])([H:8])[C@@:2]2([H:9])[C@:3]1([H:10])[C@@:4]1([H:11])[O:5][C@@:6]21[H:12]>>[C:1]1([H:7])([H:8])[C@@:2]2([H:9])[C@:3]1([H:10])[C:4][C@:6]2([O:5][H:11])[H:12]"
C        1.26972188       0.18932282      -0.37120672
C        0.28968230      -0.89179826      -0.06002342
C        0.52102549       0.31183631       0.91953994
C       -0.94969068       0.46709977       0.77205566
O       -1.23054026       0.82418908      -0.98601176
C       -1.13108945      -0.44582217      -0.37174128
H        1.05022924       0.85269089      -1.19608177
H        2.31189195      -0.07939763      -0.24679400
H        0.56243196      -1.91329118       0.15901807
H        1.01854277       0.33526619       1.87954153
H       -1.74107610       1.46776662      -0.00243654
H       -1.97112908      -1.11786244      -0.49585970
12
Frame=13 idx=004252 GeodesicLength=0.5946650245989893 rxn_smarts="[C:1]1([H:7])([H:8])[C@@:2]2([H:9])[C@:3]1([H:10])[C@@:4]1([H:11])[O:5][C@@:6]21[H:12]>>[C:1]1([H:7])([H:8])[C@@:2]2([H:9])[C@:3]1([H:10])[C:4][C@:6]2([O:5][H:11])[H:12]"
C        1.27180268       0.18852084      -0.37129770
C        0.28822202      -0.89077543      -0.06051146
C        0.52442283       0.31730808       0.91895928
C       -0.94460220       0.45711469       0.77025573
O       -1.23004322       0.82800219      -0.98415401
C       -1.12887327      -0.44636635      -0.38012847
H        1.05244680       0.84821557      -1.19920609
H        2.31345461      -0.08254440      -0.24717335
H        0.55848982      -1.91064985       0.16865998
H        1.02088474       0.33766956       1.87968256
H       -1.75555429       1.46979873       0.00693882
H       -1.97065051      -1.11629363      -0.50202527
12
Frame=14 idx=004252 GeodesicLength=0.6405111628071752 rxn_smarts="[C:1]1([H:7])([H:8])[C@@:2]2([H:9])[C@:3]1([H:10])[C@@:4]1([H:11])[O:5][C@@:6]21[H:12]>>[C:1]1([H:7])([H:8])[C@@:2]2([H:9])[C@:3]1([H:10])[C:4][C@:6]2([O:5][H:11])[H:12]"
C        1.27391694       0.18770797      -0.37136141
C        0.28678429      -0.88977560      -0.06107977
C        0.52778551       0.32275720       0.91835018
C       -0.93941380       0.44727506       0.76835676
O       -1.22953159       0.83174609      -0.98229951
C       -1.12662945      -0.44685612      -0.38844387
H        1.05472518       0.84370288      -1.20230633
H        2.31503626      -0.08570832      -0.24746201
H        0.55450439      -1.90795693       0.17815004
H        1.02316854       0.34005639       1.87979891
H       -1.77019568       1.47171664       0.01633412
H       -1.97015059      -1.11466526      -0.50803711
12
Frame=15 idx=004252 GeodesicLength=0.6863645744877506 rxn_smarts="[C:1]1([H:7])([H:8])[C@@:2]2([H:9])[C@:3]1([H:10])[C@@:4]1([H:11])[O:5][C@@:6]21[H:12]>>[C:1]1([H:7])([H:8])[C@@:2]2([H:9])[C@:3]1([H:10])[C:4][C@:6]2([O:5][H:11])[H:12]"
C        1.27606315       0.18688595      -0.37139627
C        0.28536908      -0.88879920      -0.06172944
C        0.53111324       0.32817950       0.91771600
C       -0.93412688       0.43758980       0.76635873
O       -1.22900452       0.83541111      -0.98045837
C       -1.12436255      -0.44729578      -0.39667969
H        1.05706366       0.83916032      -1.20537619
H        2.31663640      -0.08888391      -0.24765892
H        0.55048334      -1.90521637       0.18747077
H        1.02539214       0.34241659       1.87989483
H       -1.78499167       1.47353299       0.02573323
H       -1.96963539      -1.11298100      -0.51387469
12
Frame=16 idx=004252 GeodesicLength=0.7322217931363224 rxn_smarts="[C:1]1([H:7])([H:8])[C@@:2]2([H:9])[C@:3]1([H:10])[C@@:4]1([H:11])[O:5][C@@:6]21[H:12]>>[C:1]1([H:7])([H:8])[C@@:2]2([H:9])[C@:3]1([H:10])[C:4][C@:6]2([O:5][H:11])[H:12]"
C        1.27823953       0.18605642      -0.37140085
C        0.28397629      -0.88784668      -0.06246118
C        0.53440601       0.33357088       0.91706009
C       -0.92874341       0.42806662       0.76426209
O       -1.22846100       0.83898792      -0.97864076
C       -1.12207714      -0.44769027      -0.40482874
H        1.05946091       0.83459540      -1.20840948
H        2.31825432      -0.09206546      -0.24776357
H        0.54643475      -1.90243223       0.19660614
H        1.02755386       0.34474008       1.87997439
H       -1.79993340       1.47526245       0.03512071
H       -1.96911072      -1.11124511      -0.51951886
