16
Frame=0 idx=009357 GeodesicLength=0.0 rxn_smarts="[C:1]([N:2]1[C@@:3]2([H:11])[C@@:4]3([H:12])[C:5]([H:13])([H:14])[C@:6]1([H:15])[C@@:7]23[H:16])([H:8])([H:9])[H:10]>>[C:1]([N:2]1[C@@:3]2([H:11])[C@:4]3([H:12])[C:5]([H:13])([H:14])[C@@:7]2([H:16])[C@:6]13[H:15])([H:8])([H:9])[H:10]"
C        1.97016050       0.38653423       0.07387547
N        0.96598666      -0.56612039      -0.33315143
C       -0.05024234      -1.02476064       0.65593974
C       -0.77023846       0.20843896       1.26239169
C       -1.21440049       0.81731496      -0.10103946
C       -0.07863014      -0.24413321      -1.20910435
C       -1.04269526      -0.92232045      -0.42462443
H        1.53927542       1.08177321       0.81118242
H        2.33522353       0.93554791      -0.79536611
H        2.81180887      -0.13665989       0.52874305
H        0.16386284      -1.88796736       1.27297681
H       -1.63551318      -0.12830816       1.83990402
H       -0.69010952       1.73391304      -0.39088880
H       -2.26282660       0.93703008      -0.39028125
H       -0.03912065       0.18589298      -2.19664330
H       -2.00254115      -1.37617534      -0.60391409
16
Frame=1 idx=009357 GeodesicLength=0.09805458524552074 rxn_smarts="[C:1]([N:2]1[C@@:3]2([H:11])[C@@:4]3([H:12])[C:5]([H:13])([H:14])[C@:6]1([H:15])[C@@:7]23[H:16])([H:8])([H:9])[H:10]>>[C:1]([N:2]1[C@@:3]2([H:11])[C@:4]3([H:12])[C:5]([H:13])([H:14])[C@@:7]2([H:16])[C@:6]13[H:15])([H:8])([H:9])[H:10]"
C        1.98076739       0.37659687       0.07849956
N        0.97220876      -0.56943686      -0.33450263
C       -0.04610279      -1.03072949       0.64745446
C       -0.76416358       0.21025339       1.23133268
C       -1.23990165       0.82233804      -0.11216241
C       -0.08096757      -0.21970658      -1.19461316
C       -1.04958138      -0.91891295      -0.42328252
H        1.55159596       1.08684226       0.80216810
H        2.36455522       0.91259312      -0.79088096
H        2.81051430      -0.15166112       0.54928208
H        0.16314327      -1.89133856       1.26996709
H       -1.60373362      -0.10271980       1.85665407
H       -0.73770751       1.75259742      -0.39733943
H       -2.29609257       0.92660222      -0.37645239
H       -0.03236343       0.19822988      -2.18770638
H       -1.99217080      -1.40154786      -0.61841816
16
Frame=2 idx=009357 GeodesicLength=0.19572900553692008 rxn_smarts="[C:1]([N:2]1[C@@:3]2([H:11])[C@@:4]3([H:12])[C:5]([H:13])([H:14])[C@:6]1([H:15])[C@@:7]23[H:16])([H:8])([H:9])[H:10]>>[C:1]([N:2]1[C@@:3]2([H:11])[C@:4]3([H:12])[C:5]([H:13])([H:14])[C@@:7]2([H:16])[C@:6]13[H:15])([H:8])([H:9])[H:10]"
C        1.99114602       0.36633218       0.08325768
N        0.97820109      -0.57286199      -0.33609039
C       -0.04232732      -1.03636011       0.63889982
C       -0.75870804       0.21221781       1.20002159
C       -1.26594436       0.82680865      -0.12323764
C       -0.08318328      -0.19514113      -1.17971496
C       -1.05641609      -0.91567702      -0.42234646
H        1.56437901       1.09097040       0.79375498
H        2.39310197       0.88958169      -0.78576063
H        2.80889692      -0.16701856       0.56921547
H        0.16200619      -1.89406170       1.26724871
H       -1.56949639      -0.07462035       1.87271438
H       -0.78648183       1.77035655      -0.40360113
H       -2.32923454       0.91535814      -0.36185310
H       -0.02576117       0.21098336      -2.17806123
H       -1.98017818      -1.42686792      -0.63444710
16
Frame=3 idx=009357 GeodesicLength=0.2930311358619203 rxn_smarts="[C:1]([N:2]1[C@@:3]2([H:11])[C@@:4]3([H:12])[C:5]([H:13])([H:14])[C@:6]1([H:15])[C@@:7]23[H:16])([H:8])([H:9])[H:10]>>[C:1]([N:2]1[C@@:3]2([H:11])[C@:4]3([H:12])[C:5]([H:13])([H:14])[C@@:7]2([H:16])[C@:6]13[H:15])([H:8])([H:9])[H:10]"
C        2.00123749       0.35577084       0.08815014
N        0.98391337      -0.57636253      -0.33789996
C       -0.03893105      -1.04164152       0.63031675
C       -0.75395730       0.21427266       1.16853946
C       -1.29244832       0.83066615      -0.13424842
C       -0.08532006      -0.17053051      -1.16442608
C       -1.06322014      -0.91265811      -0.42180768
H        1.57756969       1.09413717       0.78605606
H        2.42075990       0.86661572      -0.78003090
H        2.80695728      -0.18273711       0.58847041
H        0.16045558      -1.89611988       1.26485134
H       -1.53274438      -0.04391963       1.88783562
H       -0.83626579       1.78706502      -0.40962894
H       -2.36211749       0.90334167      -0.34646439
H       -0.01936547       0.22415037      -2.16771028
H       -1.96652330      -1.45205030      -0.65200313
16
Frame=4 idx=009357 GeodesicLength=0.38996575070754413 rxn_smarts="[C:1]([N:2]1[C@@:3]2([H:11])[C@@:4]3([H:12])[C:5]([H:13])([H:14])[C@:6]1([H:15])[C@@:7]23[H:16])([H:8])([H:9])[H:10]>>[C:1]([N:2]1[C@@:3]2([H:11])[C@:4]3([H:12])[C:5]([H:13])([H:14])[C@@:7]2([H:16])[C@:6]13[H:15])([H:8])([H:9])[H:10]"
C        2.01097508       0.34495618       0.09317692
N        0.98929566      -0.57990450      -0.33991131
C       -0.03592761      -1.04657844       0.62174600
C       -0.74999783       0.21633732       1.13698736
C       -1.31931195       0.83385698      -0.14517392
C       -0.08742638      -0.14598535      -1.14877359
C       -1.07001999      -0.90990497      -0.42165026
H        1.59108982       1.09633943       0.77917881
H        2.44741879       0.84381061      -0.77372434
H        2.80469371      -0.19880157       0.60698230
H        0.15849916      -1.89752007       1.26279488
H       -1.49344039      -0.01054997       1.90173707
H       -0.88684931       1.80260765      -0.41536787
H       -2.39458623       0.89062674      -0.33027611
H       -0.01322709       0.23770929      -2.15667115
H       -1.95118542      -1.47699935      -0.67105482
16
Frame=5 idx=009357 GeodesicLength=0.48656535770675735 rxn_smarts="[C:1]([N:2]1[C@@:3]2([H:11])[C@@:4]3([H:12])[C:5]([H:13])([H:14])[C@:6]1([H:15])[C@@:7]23[H:16])([H:8])([H:9])[H:10]>>[C:1]([N:2]1[C@@:3]2([H:11])[C@:4]3([H:12])[C:5]([H:13])([H:14])[C@@:7]2([H:16])[C@:6]13[H:15])([H:8])([H:9])[H:10]"
C        2.02028004       0.33394001       0.09834393
N        0.99429742      -0.58345157      -0.34209634
C       -0.03332648      -1.05118474       0.61321856
C       -0.74691399       0.21831175       1.10546571
C       -1.34642325       0.83633586      -0.15599216
C       -0.08955854      -0.12162724      -1.13279807
C       -1.07684835      -0.90746463      -0.42185252
H        1.60482752       1.09759838       0.77319865
H        2.47297696       0.82126626      -0.76686687
H        2.80208401      -0.21517200       0.62472804
H        0.15615420      -1.89828060       1.26107792
H       -1.45151486       0.02551817       1.91413709
H       -0.93799158       1.81687775      -0.42074983
H       -2.42647922       0.87731567      -0.31329288
H       -0.00739795       0.25161934      -2.14497341
H       -1.93416593      -1.50160242      -0.69154785
16
Frame=6 idx=009357 GeodesicLength=0.5828342589103478 rxn_smarts="[C:1]([N:2]1[C@@:3]2([H:11])[C@@:4]3([H:12])[C:5]([H:13])([H:14])[C@:6]1([H:15])[C@@:7]23[H:16])([H:8])([H:9])[H:10]>>[C:1]([N:2]1[C@@:3]2([H:11])[C@:4]3([H:12])[C:5]([H:13])([H:14])[C@@:7]2([H:16])[C@:6]13[H:15])([H:8])([H:9])[H:10]"
C        2.02907715       0.32278878       0.10365195
N        0.99887680      -0.58697236      -0.34442452
C       -0.03113545      -1.05550070       0.60476726
C       -0.74478564       0.22007317       1.07411265
C       -1.37364946       0.83806927      -0.16666954
C       -0.09177210      -0.09758749      -1.11654246
C       -1.08374049      -0.90538971      -0.42238522
H        1.61865888       1.09796193       0.76817931
H        2.49733902       0.79909660      -0.75950141
H        2.79911346      -0.23178587       0.64168606
H        0.15343847      -1.89846165       1.25969222
H       -1.40696442       0.06429484       1.92468421
H       -0.98941806       1.82979713      -0.42569024
H       -2.45762049       0.86353423      -0.29552305
H       -0.00192419       0.26582741      -2.13265814
H       -1.91549348      -1.52574557      -0.71337907
16
Frame=7 idx=009357 GeodesicLength=0.6787972862841471 rxn_smarts="[C:1]([N:2]1[C@@:3]2([H:11])[C@@:4]3([H:12])[C:5]([H:13])([H:14])[C@:6]1([H:15])[C@@:7]23[H:16])([H:8])([H:9])[H:10]>>[C:1]([N:2]1[C@@:3]2([H:11])[C@:4]3([H:12])[C:5]([H:13])([H:14])[C@@:7]2([H:16])[C@:6]13[H:15])([H:8])([H:9])[H:10]"
C        2.03728898       0.31157586       0.10910720
N        1.00299768      -0.59043551      -0.34685978
C       -0.02935722      -1.05957738       0.59641260
C       -0.74368291       0.22148568       1.04306695
C       -1.40085661       0.83903686      -0.17716827
C       -0.09412547      -0.07399568      -1.10005566
C       -1.09073548      -0.90372901      -0.42321506
H        1.63243948       1.09751063       0.76413810
H        2.52043645       0.77738706      -0.75166368
H        2.79574718      -0.24855404       0.65788486
H        0.15037796      -1.89813841       1.25860749
H       -1.35976685       0.10573548       1.93301238
H       -1.04084272       1.84130984      -0.43008983
H       -2.48784236       0.84942759      -0.27698920
H        0.00315019       0.28026471      -2.11977375
H       -1.89522830      -1.54930366      -0.73641434
16
Frame=8 idx=009357 GeodesicLength=0.774467263067692 rxn_smarts="[C:1]([N:2]1[C@@:3]2([H:11])[C@@:4]3([H:12])[C:5]([H:13])([H:14])[C@:6]1([H:15])[C@@:7]23[H:16])([H:8])([H:9])[H:10]>>[C:1]([N:2]1[C@@:3]2([H:11])[C@:4]3([H:12])[C:5]([H:13])([H:14])[C@@:7]2([H:16])[C@:6]13[H:15])([H:8])([H:9])[H:10]"
C        2.04484059       0.30038004       0.11471691
N        1.00663413      -0.59381752      -0.34936718
C       -0.02799107      -1.06349089       0.58817118
C       -0.74366734       0.22240119       1.01248609
C       -1.42791352       0.83923714      -0.18744269
C       -0.09667034      -0.05097242      -1.08338920
C       -1.09787014      -0.90253507      -0.42430817
H        1.64601282       1.09635507       0.76106009
H        2.54222473       0.75621112      -0.74339336
H        2.79193648      -0.26537140       0.67338733
H        0.14700073      -1.89742699       1.25778614
H       -1.30989953       0.14977376       1.93872792
H       -1.09198452       1.85140443      -0.43383484
H       -2.51699052       0.83515259      -0.25772706
H        0.00779423       0.29485997      -2.10638262
H       -1.87345672      -1.57216101      -0.76049056
16
Frame=9 idx=009357 GeodesicLength=0.8699305352716823 rxn_smarts="[C:1]([N:2]1[C@@:3]2([H:11])[C@@:4]3([H:12])[C:5]([H:13])([H:14])[C@:6]1([H:15])[C@@:7]23[H:16])([H:8])([H:9])[H:10]>>[C:1]([N:2]1[C@@:3]2([H:11])[C@:4]3([H:12])[C:5]([H:13])([H:14])[C@@:7]2([H:16])[C@:6]13[H:15])([H:8])([H:9])[H:10]"
C        2.05166713       0.28928047       0.12051708
N        1.00976376      -0.59708361      -0.35189760
C       -0.02703596      -1.06729438       0.58002900
C       -0.74479024       0.22267119       0.98249321
C       -1.45471569       0.83866650      -0.19744996
C       -0.09947783      -0.02862437      -1.06658974
C       -1.10520064      -0.90183871      -0.42563195
H        1.65923342       1.09462171       0.75889949
H        2.56269659       0.73558876      -0.73467986
H        2.78762407      -0.28210309       0.68832784
H        0.14334129      -1.89640131       1.25714373
H       -1.25720476       0.19626868       1.94141337
H       -1.14258036       1.86004982      -0.43681143
H       -2.54495718       0.82085933      -0.23779832
H        0.01195241       0.30951784      -2.09253123
H       -1.85031603      -1.59417883      -0.78543363
16
Frame=10 idx=009357 GeodesicLength=0.9651906715852097 rxn_smarts="[C:1]([N:2]1[C@@:3]2([H:11])[C@@:4]3([H:12])[C:5]([H:13])([H:14])[C@:6]1([H:15])[C@@:7]23[H:16])([H:8])([H:9])[H:10]>>[C:1]([N:2]1[C@@:3]2([H:11])[C@:4]3([H:12])[C:5]([H:13])([H:14])[C@@:7]2([H:16])[C@:6]13[H:15])([H:8])([H:9])[H:10]"
C        2.05771786       0.27835172       0.12651268
N        1.01238865      -0.60022667      -0.35440836
C       -0.02647300      -1.07108621       0.57200314
C       -0.74708086       0.22216074       0.95326423
C       -1.48114890       0.83735833      -0.20712431
C       -0.10257928      -0.00703784      -1.04968307
C       -1.11274496      -0.90168454      -0.42713956
H        1.67196604       1.09245596       0.75758192
H        2.58184735       0.71556404      -0.72556364
H        2.78276679      -0.29863627       0.70279439
H        0.13944549      -1.89521908       1.25664298
H       -1.20175291       0.24506666       1.94053962
H       -1.19239839       1.86730665      -0.43887735
H       -2.57162551       0.80670222      -0.21724783
H        0.01561373       0.32416866      -2.07826909
H       -1.82594211      -1.61524439      -0.81102574
16
Frame=11 idx=009357 GeodesicLength=1.0603350798491022 rxn_smarts="[C:1]([N:2]1[C@@:3]2([H:11])[C@@:4]3([H:12])[C:5]([H:13])([H:14])[C@:6]1([H:15])[C@@:7]23[H:16])([H:8])([H:9])[H:10]>>[C:1]([N:2]1[C@@:3]2([H:11])[C@:4]3([H:12])[C:5]([H:13])([H:14])[C@@:7]2([H:16])[C@:6]13[H:15])([H:8])([H:9])[H:10]"
C        2.06294840       0.26765586       0.13272790
N        1.01451175      -0.60322894      -0.35684546
C       -0.02627586      -1.07493118       0.56408640
C       -0.75054606       0.22075743       0.92493710
C       -1.50712911       0.83534699      -0.21639765
C       -0.10601635       0.01373082      -1.03266808
C       -1.12051995      -0.90208756      -0.42877813
H        1.68409677       1.09001131       0.75699094
H        2.59970293       0.69610766      -0.71604173
H        2.77729790      -0.31485028       0.71693210
H        0.13537092      -1.89398611       1.25620725
H       -1.14352764       0.29592838       1.93552135
H       -1.24125510       1.87322131      -0.43989612
H       -2.59692093       0.79281174      -0.19613363
H        0.01874832       0.33874296      -2.06360021
H       -1.80048600      -1.63523038      -0.83704204
16
Frame=12 idx=009357 GeodesicLength=1.1553707464591927 rxn_smarts="[C:1]([N:2]1[C@@:3]2([H:11])[C@@:4]3([H:12])[C:5]([H:13])([H:14])[C@:6]1([H:15])[C@@:7]23[H:16])([H:8])([H:9])[H:10]>>[C:1]([N:2]1[C@@:3]2([H:11])[C@:4]3([H:12])[C:5]([H:13])([H:14])[C@@:7]2([H:16])[C@:6]13[H:15])([H:8])([H:9])[H:10]"
C        2.06735096       0.25725638       0.13917372
N        1.01614893      -0.60608171      -0.35917417
C       -0.02641600      -1.07891371       0.55630217
C       -0.75516282       0.21838019       0.89769723
C       -1.53258269       0.83269866      -0.22519546
C       -0.10981178       0.03366321      -1.01554450
C       -1.12853579      -0.90307043      -0.43049328
H        1.69557558       1.08746757       0.75700776
H        2.61633500       0.67719662      -0.70615298
H        2.77116845      -0.33063967       0.73089050
H        0.13116651      -1.89285873       1.25581325
H       -1.08265789       0.34853183       1.92574385
H       -1.28899943       1.87791687      -0.43975126
H       -2.62079435       0.77930467      -0.17451272
H        0.02134584       0.35321436      -2.04856710
H       -1.77413053      -1.65406610      -0.86323701
16
Frame=13 idx=009357 GeodesicLength=1.2504774594928985 rxn_smarts="[C:1]([N:2]1[C@@:3]2([H:11])[C@@:4]3([H:12])[C:5]([H:13])([H:14])[C@:6]1([H:15])[C@@:7]23[H:16])([H:8])([H:9])[H:10]>>[C:1]([N:2]1[C@@:3]2([H:11])[C@:4]3([H:12])[C:5]([H:13])([H:14])[C@@:7]2([H:16])[C@:6]13[H:15])([H:8])([H:9])[H:10]"
C        2.07100232       0.24720446       0.14587857
N        1.01733940      -0.60873565      -0.36133817
C       -0.02687393      -1.08300396       0.54863991
C       -0.76090254       0.21500531       0.87166447
C       -1.55749842       0.82944060      -0.23343051
C       -0.11401046       0.05275187      -0.99826140
C       -1.13685680      -0.90457968      -0.43220539
H        1.70646454       1.08498128       0.75748546
H        2.63192428       0.65871409      -0.69587852
H        2.76441868      -0.34586250       0.74483829
H        0.12687684      -1.89181034       1.25537145
H       -1.01928814       0.40234670       1.91052918
H       -1.33552944       1.88138934      -0.43833473
H       -2.64330319       0.76624392      -0.15245596
H        0.02336414       0.36750611      -2.03311798
H       -1.74712729      -1.67159155      -0.88938466
16
Frame=14 idx=009357 GeodesicLength=1.3457051536059528 rxn_smarts="[C:1]([N:2]1[C@@:3]2([H:11])[C@@:4]3([H:12])[C:5]([H:13])([H:14])[C@:6]1([H:15])[C@@:7]23[H:16])([H:8])([H:9])[H:10]>>[C:1]([N:2]1[C@@:3]2([H:11])[C@:4]3([H:12])[C:5]([H:13])([H:14])[C@@:7]2([H:16])[C@:6]13[H:15])([H:8])([H:9])[H:10]"
C        2.07392915       0.23751097       0.15277225
N        1.01813701      -0.61120198      -0.36328816
C       -0.02752717      -1.08720081       0.54118317
C       -0.76759564       0.21073965       0.84698805
C       -1.58176650       0.82573220      -0.24102386
C       -0.11857723       0.07102695      -0.98075433
C       -1.14538405      -0.90655903      -0.43375984
H        1.71680317       1.08268618       0.75821494
H        2.64649217       0.64057720      -0.68534033
H        2.75705175      -0.36049319       0.75878066
H        0.12266773      -1.89090727       1.25493497
H       -0.95437259       0.45654198       1.88924546
H       -1.38075052       1.88385383      -0.43558471
H       -2.66434796       0.75380115      -0.13001414
H        0.02480882       0.38158483      -2.01722652
H       -1.71956815      -1.68769267      -0.91512759
16
Frame=15 idx=009357 GeodesicLength=1.4411088364242781 rxn_smarts="[C:1]([N:2]1[C@@:3]2([H:11])[C@@:4]3([H:12])[C:5]([H:13])([H:14])[C@:6]1([H:15])[C@@:7]23[H:16])([H:8])([H:9])[H:10]>>[C:1]([N:2]1[C@@:3]2([H:11])[C@:4]3([H:12])[C:5]([H:13])([H:14])[C@@:7]2([H:16])[C@:6]13[H:15])([H:8])([H:9])[H:10]"
C        2.07629038       0.22821173       0.15976113
N        1.01862040      -0.61345485      -0.36500412
C       -0.02828964      -1.09141081       0.53401099
C       -0.77502714       0.20577963       0.82377459
C       -1.60529810       0.82171974      -0.24791957
C       -0.12347691       0.08852139      -0.96298963
C       -1.15410306      -0.90890894      -0.43499145
H        1.72680716       1.08072156       0.75899360
H        2.66022623       0.62268635      -0.67469618
H        2.74920236      -0.37445168       0.77270656
H        0.11864183      -1.89007756       1.25455825
H       -0.88918852       0.50997304       1.86160321
H       -1.42452846       1.88546894      -0.43151960
H       -2.68390515       0.74211600      -0.10725471
H        0.02569060       0.39536805      -2.00090965
H       -1.69166198      -1.70226261      -0.94012343
16
Frame=16 idx=009357 GeodesicLength=1.536659662516812 rxn_smarts="[C:1]([N:2]1[C@@:3]2([H:11])[C@@:4]3([H:12])[C:5]([H:13])([H:14])[C@:6]1([H:15])[C@@:7]23[H:16])([H:8])([H:9])[H:10]>>[C:1]([N:2]1[C@@:3]2([H:11])[C@:4]3([H:12])[C:5]([H:13])([H:14])[C@@:7]2([H:16])[C@:6]13[H:15])([H:8])([H:9])[H:10]"
C        2.07828337       0.21934127       0.16669679
N        1.01889509      -0.61548264      -0.36649437
C       -0.02905234      -1.09550622       0.52721594
C       -0.78290420       0.20041992       0.80205331
C       -1.62797004       0.81759398      -0.25412062
C       -0.12863056       0.10525792      -0.94499164
C       -1.16297730      -0.91151265      -0.43572239
H        1.73673244       1.07918008       0.75963509
H        2.67330187       0.60499733      -0.66417216
H        2.74107905      -0.38767921       0.78649606
H        0.11491675      -1.88920359       1.25434068
H       -0.82549855       0.56127960       1.82786136
H       -1.46669227       1.88644323      -0.42625280
H       -2.70192098       0.73137538      -0.08427198
H        0.02605790       0.40871734      -1.98426577
H       -1.66362023      -1.71522175      -0.96400749
