14
Frame=0 idx=006059 GeodesicLength=0.0 rxn_smarts="[C:1]([C:2]([C:3]([H:10])([H:11])[H:12])([N:4]([H:13])[H:14])[C:5]#[N:6])([H:7])([H:8])[H:9]>>[C:1]([C:2]1([C:3]([H:10])([H:11])[H:12])[C:5]([N:4]([H:13])[H:14])=[N:6]1)([H:7])([H:8])[H:9]"
C       -0.71279488       1.22306253      -0.70181192
C        0.08536481       0.24029550       0.06373444
C        1.55727908       0.23567637      -0.08821673
N       -0.74606568      -1.67258431       0.10001923
C       -0.54505599      -0.56177093       1.10674747
N       -0.79309650      -0.39406666       2.28015103
H       -1.76787156       0.95715164      -0.72780326
H       -0.32507052       1.38852148      -1.70707956
H       -0.63286482       2.16906585      -0.15254869
H        1.86959802       0.38807781      -1.12159828
H        2.00597704      -0.66362152       0.32870764
H        1.92603452       1.08650701       0.49751886
H       -0.21394386      -2.51811642       0.26464649
H       -1.70748964      -1.87819835      -0.14246666
14
Frame=1 idx=006059 GeodesicLength=0.06298672034920026 rxn_smarts="[C:1]([C:2]([C:3]([H:10])([H:11])[H:12])([N:4]([H:13])[H:14])[C:5]#[N:6])([H:7])([H:8])[H:9]>>[C:1]([C:2]1([C:3]([H:10])([H:11])[H:12])[C:5]([N:4]([H:13])[H:14])=[N:6]1)([H:7])([H:8])[H:9]"
C       -0.71537784       1.21959787      -0.69532664
C        0.08006903       0.22916440       0.06697725
C        1.55464965       0.23334938      -0.07904420
N       -0.74647851      -1.67419597       0.07842209
C       -0.54720263      -0.57150561       1.10909621
N       -0.77688289      -0.35028798       2.27470524
H       -1.77339859       0.96453425      -0.71355608
H       -0.33428337       1.37333652      -1.70511970
H       -0.62163845       2.16877396      -0.15441386
H        1.86709356       0.37399229      -1.11417343
H        2.00871096      -0.65917074       0.34689451
H        1.91958192       1.09238267       0.49642467
H       -0.20308774      -2.51430324       0.23057483
H       -1.71175510      -1.88566780      -0.14146090
14
Frame=2 idx=006059 GeodesicLength=0.12622875931785937 rxn_smarts="[C:1]([C:2]([C:3]([H:10])([H:11])[H:12])([N:4]([H:13])[H:14])[C:5]#[N:6])([H:7])([H:8])[H:9]>>[C:1]([C:2]1([C:3]([H:10])([H:11])[H:12])[C:5]([N:4]([H:13])[H:14])=[N:6]1)([H:7])([H:8])[H:9]"
C       -0.71798753       1.21602834      -0.68866848
C        0.07471931       0.21820081       0.07079717
C        1.55190389       0.23090642      -0.06978224
N       -0.74686291      -1.67520572       0.05706358
C       -0.54937514      -0.58110959       1.11238253
N       -0.76078915      -0.30672311       2.26773937
H       -1.77882497       0.97193899      -0.69870623
H       -0.34390909       1.35753912      -1.70301281
H       -0.61036150       2.16839897      -0.15664820
H        1.86433143       0.35930216      -1.10663846
H        2.01114278      -0.65468342       0.36535116
H        1.91332038       1.09807010       0.49502019
H       -0.19211544      -2.50960801       0.19590842
H       -1.71519207      -1.89305507      -0.14080600
14
Frame=3 idx=006059 GeodesicLength=0.18967496554586835 rxn_smarts="[C:1]([C:2]([C:3]([H:10])([H:11])[H:12])([N:4]([H:13])[H:14])[C:5]#[N:6])([H:7])([H:8])[H:9]>>[C:1]([C:2]1([C:3]([H:10])([H:11])[H:12])[C:5]([N:4]([H:13])[H:14])=[N:6]1)([H:7])([H:8])[H:9]"
C       -0.72056148       1.21236457      -0.68185988
C        0.06934277       0.20744114       0.07516069
C        1.54903123       0.22840912      -0.06045287
N       -0.74722097      -1.67557616       0.03601002
C       -0.55151982      -0.59051868       1.11654023
N       -0.74509921      -0.26384353       2.25924565
H       -1.78406451       0.97946566      -0.68311336
H       -0.35400496       1.34098106      -1.70078152
H       -0.59882047       2.16797865      -0.15944089
H        1.86129909       0.34412424      -1.09895702
H        2.01323181      -0.65010667       0.38398675
H        1.90724038       1.10359750       0.49328237
H       -0.18104683      -2.50391124       0.16072360
H       -1.71780702      -1.90040566      -0.14034375
14
Frame=4 idx=006059 GeodesicLength=0.25333668404140164 rxn_smarts="[C:1]([C:2]([C:3]([H:10])([H:11])[H:12])([N:4]([H:13])[H:14])[C:5]#[N:6])([H:7])([H:8])[H:9]>>[C:1]([C:2]1([C:3]([H:10])([H:11])[H:12])[C:5]([N:4]([H:13])[H:14])=[N:6]1)([H:7])([H:8])[H:9]"
C       -0.72312056       1.20869147      -0.67501255
C        0.06389793       0.19691092       0.07996101
C        1.54602173       0.22584434      -0.05109477
N       -0.74756199      -1.67532289       0.01537563
C       -0.55380041      -0.59952588       1.12150428
N       -0.72927092      -0.22226319       2.24953031
H       -1.78910060       0.98702480      -0.66731338
H       -0.36435859       1.32407306      -1.69840565
H       -0.58731799       2.16750238      -0.16268605
H        1.85802520       0.32838930      -1.09116489
H        2.01495151      -0.64543779       0.40286018
H        1.90130698       1.10897637       0.49114712
H       -0.17003311      -2.49726045       0.12550305
H       -1.71963918      -1.90760245      -0.14020429
14
Frame=5 idx=006059 GeodesicLength=0.31716266582575914 rxn_smarts="[C:1]([C:2]([C:3]([H:10])([H:11])[H:12])([N:4]([H:13])[H:14])[C:5]#[N:6])([H:7])([H:8])[H:9]>>[C:1]([C:2]1([C:3]([H:10])([H:11])[H:12])[C:5]([N:4]([H:13])[H:14])=[N:6]1)([H:7])([H:8])[H:9]"
C       -0.72565589       1.20502848      -0.66814446
C        0.05842577       0.18662936       0.08515662
C        1.54294358       0.22325473      -0.04172889
N       -0.74788594      -1.67445822      -0.00485904
C       -0.55613395      -0.60811608       1.12720263
N       -0.71376019      -0.18218239       2.23873589
H       -1.79394612       0.99475989      -0.65111907
H       -0.37510264       1.30664978      -1.69595723
H       -0.57566493       2.16702667      -0.16653406
H        1.85458733       0.31222279      -1.08326584
H        2.01638696      -0.64066961       0.42184330
H        1.89558926       1.11420927       0.48866764
H       -0.15904082      -2.48960632       0.09023578
H       -1.72074242      -1.91474835      -0.14023327
14
Frame=6 idx=006059 GeodesicLength=0.3811648359192322 rxn_smarts="[C:1]([C:2]([C:3]([H:10])([H:11])[H:12])([N:4]([H:13])[H:14])[C:5]#[N:6])([H:7])([H:8])[H:9]>>[C:1]([C:2]1([C:3]([H:10])([H:11])[H:12])[C:5]([N:4]([H:13])[H:14])=[N:6]1)([H:7])([H:8])[H:9]"
C       -0.72816029       1.20142706      -0.66130994
C        0.05290909       0.17659769       0.09065391
C        1.53977615       0.22063692      -0.03239913
N       -0.74818231      -1.67302357      -0.02464264
C       -0.55859683      -0.61618686       1.13354099
N       -0.69828216      -0.14390923       2.22706295
H       -1.79856294       1.00258607      -0.63488211
H       -0.38607261       1.28902345      -1.69338649
H       -0.56405251       2.16652032      -0.17087115
H        1.85098599       0.29562575      -1.07527510
H        2.01750731      -0.63579842       0.44092415
H        1.89004354       1.11929258       0.48578255
H       -0.14817346      -2.48102419       0.05529274
H       -1.72113896      -1.92176757      -0.14049072
14
Frame=7 idx=006059 GeodesicLength=0.4452570396104791 rxn_smarts="[C:1]([C:2]([C:3]([H:10])([H:11])[H:12])([N:4]([H:13])[H:14])[C:5]#[N:6])([H:7])([H:8])[H:9]>>[C:1]([C:2]1([C:3]([H:10])([H:11])[H:12])[C:5]([N:4]([H:13])[H:14])=[N:6]1)([H:7])([H:8])[H:9]"
C       -0.73060064       1.19788791      -0.65451313
C        0.04737729       0.16681620       0.09640928
C        1.53654204       0.21803251      -0.02312278
N       -0.74845773      -1.67104553      -0.04400561
C       -0.56112692      -0.62376814       1.14041906
N       -0.68314896      -0.10749401       2.21463731
H       -1.80290983       1.01058738      -0.61845406
H       -0.39734622       1.27108235      -1.69071206
H       -0.55231423       2.16599284      -0.17581241
H        1.84725537       0.27873620      -1.06717466
H        2.01833007      -0.63080992       0.45998913
H        1.88468617       1.12422290       0.48253383
H       -0.13743030      -2.47148713       0.02065170
H       -1.72085611      -1.92875357      -0.14084560
14
Frame=8 idx=006059 GeodesicLength=0.5095094839988199 rxn_smarts="[C:1]([C:2]([C:3]([H:10])([H:11])[H:12])([N:4]([H:13])[H:14])[C:5]#[N:6])([H:7])([H:8])[H:9]>>[C:1]([C:2]1([C:3]([H:10])([H:11])[H:12])[C:5]([N:4]([H:13])[H:14])=[N:6]1)([H:7])([H:8])[H:9]"
C       -0.73300242       1.19445322      -0.64777766
C        0.04181743       0.15728693       0.10237489
C        1.53325744       0.21543121      -0.01390334
N       -0.74870387      -1.66856381      -0.06299214
C       -0.56377861      -0.63082233       1.14777289
N       -0.66821345      -0.07302622       2.20165568
H       -1.80702413       1.01879386      -0.60195848
H       -0.40890766       1.25294460      -1.68793343
H       -0.54052414       2.16545218      -0.18131125
H        1.84341459       0.26143813      -1.05897575
H        2.01888799      -0.62566434       0.47914496
H        1.87951399       1.12903499       0.47885688
H       -0.12681206      -2.46105794      -0.01359397
H       -1.71992509      -1.93570046      -0.14135927
14
Frame=9 idx=006059 GeodesicLength=0.5738647771208545 rxn_smarts="[C:1]([C:2]([C:3]([H:10])([H:11])[H:12])([N:4]([H:13])[H:14])[C:5]#[N:6])([H:7])([H:8])[H:9]>>[C:1]([C:2]1([C:3]([H:10])([H:11])[H:12])[C:5]([N:4]([H:13])[H:14])=[N:6]1)([H:7])([H:8])[H:9]"
C       -0.73534711       1.19113068      -0.64111712
C        0.03623576       0.14798790       0.10848758
C        1.52992010       0.21284134      -0.00477731
N       -0.74891376      -1.66562646      -0.08160716
C       -0.56653764      -0.63734921       1.15552578
N       -0.65351840      -0.04047994       2.18823646
H       -1.81087030       1.02716202      -0.58550040
H       -0.42068604       1.23474277      -1.68502007
H       -0.52872542       2.16486066      -0.18730979
H        1.83947869       0.24384913      -1.05068378
H        2.01917757      -0.62038764       0.49827074
H        1.87451152       1.13368859       0.47477876
H       -0.11636409      -2.44980239      -0.04729546
H       -1.71836089      -1.94261745      -0.14198823
14
Frame=10 idx=006059 GeodesicLength=0.6383292998336152 rxn_smarts="[C:1]([C:2]([C:3]([H:10])([H:11])[H:12])([N:4]([H:13])[H:14])[C:5]#[N:6])([H:7])([H:8])[H:9]>>[C:1]([C:2]1([C:3]([H:10])([H:11])[H:12])[C:5]([N:4]([H:13])[H:14])=[N:6]1)([H:7])([H:8])[H:9]"
C       -0.73764106       1.18792918      -0.63452741
C        0.03063703       0.13891366       0.11472999
C        1.52656274       0.21027301       0.00425673
N       -0.74910012      -1.66227240      -0.09991598
C       -0.56940509      -0.64337475       1.16363141
N       -0.63913446      -0.00977483       2.17451373
H       -1.81447162       1.03572957      -0.56903706
H       -0.43272300       1.21645198      -1.68197990
H       -0.51688372       2.16422870      -0.19381831
H        1.83548389       0.22594160      -1.04229762
H        2.01924562      -0.61494703       0.51739202
H        1.86970860       1.13821335       0.47028759
H       -0.10607477      -2.43775447      -0.08050946
H       -1.71620405      -1.94955757      -0.14272572
14
Frame=11 idx=006059 GeodesicLength=0.7029261540137851 rxn_smarts="[C:1]([C:2]([C:3]([H:10])([H:11])[H:12])([N:4]([H:13])[H:14])[C:5]#[N:6])([H:7])([H:8])[H:9]>>[C:1]([C:2]1([C:3]([H:10])([H:11])[H:12])[C:5]([N:4]([H:13])[H:14])=[N:6]1)([H:7])([H:8])[H:9]"
C       -0.73986842       1.18485059      -0.62800573
C        0.02502781       0.13005076       0.12108658
C        1.52313810       0.20771186       0.01321641
N       -0.74922148      -1.65848166      -0.11795163
C       -0.57231657      -0.64894772       1.17201610
N       -0.62514745       0.01915642       2.16049295
H       -1.81776307       1.04459071      -0.55246191
H       -0.44511295       1.19800289      -1.67878311
H       -0.50491571       2.16352941      -0.20094185
H        1.83137324       0.20774036      -1.03374884
H        2.01904493      -0.60936759       0.53649842
H        1.86502760       1.14255398       0.46539423
H       -0.09589776      -2.42487759      -0.11329351
H       -1.71336827      -1.95651241      -0.14351812
14
Frame=12 idx=006059 GeodesicLength=0.7676347180580126 rxn_smarts="[C:1]([C:2]([C:3]([H:10])([H:11])[H:12])([N:4]([H:13])[H:14])[C:5]#[N:6])([H:7])([H:8])[H:9]>>[C:1]([C:2]1([C:3]([H:10])([H:11])[H:12])[C:5]([N:4]([H:13])[H:14])=[N:6]1)([H:7])([H:8])[H:9]"
C       -0.74203824       1.18189842      -0.62155211
C        0.01940182       0.12138535       0.12752983
C        1.51970632       0.20517981       0.02207598
N       -0.74932816      -1.65433218      -0.13576390
C       -0.57533595      -0.65406306       1.18067923
N       -0.61150258       0.04641359       2.14635226
H       -1.82079874       1.05366337      -0.53589067
H       -0.45777346       1.17950966      -1.67543515
H       -0.49289743       2.16275497      -0.20855269
H        1.82722939       0.18922223      -1.02509083
H        2.01864377      -0.60359087       0.55560801
H        1.86054308       1.14677122       0.46007059
H       -0.08588661      -2.41127483      -0.14562816
H       -1.70996321      -1.96353768      -0.14440239
14
Frame=13 idx=006059 GeodesicLength=0.8325015019451512 rxn_smarts="[C:1]([C:2]([C:3]([H:10])([H:11])[H:12])([N:4]([H:13])[H:14])[C:5]#[N:6])([H:7])([H:8])[H:9]>>[C:1]([C:2]1([C:3]([H:10])([H:11])[H:12])[C:5]([N:4]([H:13])[H:14])=[N:6]1)([H:7])([H:8])[H:9]"
C       -0.74415176       1.17907092      -0.61516293
C        0.01375817       0.11289744       0.13404028
C        1.51622951       0.20264722       0.03084578
N       -0.74937726      -1.64980470      -0.15338046
C       -0.57842089      -0.65874296       1.18955499
N       -0.59820045       0.07209155       2.13208052
H       -1.82354479       1.06298423      -0.51930620
H       -0.47074822       1.16097726      -1.67188997
H       -0.48083484       2.16186593      -0.21668179
H        1.82300320       0.17039724      -1.01626191
H        2.01801466      -0.59765530       0.57469719
H        1.85619049       1.15079076       0.45433113
H       -0.07600340      -2.39693216      -0.17750758
H       -1.70591442      -1.97058745      -0.14535904
14
Frame=14 idx=006059 GeodesicLength=0.897460310005144 rxn_smarts="[C:1]([C:2]([C:3]([H:10])([H:11])[H:12])([N:4]([H:13])[H:14])[C:5]#[N:6])([H:7])([H:8])[H:9]>>[C:1]([C:2]1([C:3]([H:10])([H:11])[H:12])[C:5]([N:4]([H:13])[H:14])=[N:6]1)([H:7])([H:8])[H:9]"
C       -0.74620110       1.17636216      -0.60884607
C        0.00809806       0.10456525       0.14059128
C        1.51273408       0.20012958       0.03950226
N       -0.74939758      -1.64495756      -0.17081811
C       -0.58157397      -0.66300510       1.19864298
N       -0.58529271       0.09632885       2.11776446
H       -1.82600532       1.07250526      -0.50276774
H       -0.48398572       1.14248171      -1.66815320
H       -0.46875357       2.16084238      -0.22526723
H        1.81874381       0.15138655      -1.00729558
H        2.01719077      -0.59159322       0.59365731
H        1.85200184       1.15460242       0.44824414
H       -0.06629334      -2.38193562      -0.20888858
H       -1.70126524      -1.97771265      -0.14636593
14
Frame=15 idx=006059 GeodesicLength=0.9625029076087175 rxn_smarts="[C:1]([C:2]([C:3]([H:10])([H:11])[H:12])([N:4]([H:13])[H:14])[C:5]#[N:6])([H:7])([H:8])[H:9]>>[C:1]([C:2]1([C:3]([H:10])([H:11])[H:12])[C:5]([N:4]([H:13])[H:14])=[N:6]1)([H:7])([H:8])[H:9]"
C       -0.74818543       1.17377219      -0.60260393
C        0.00241709       0.09636649       0.14715767
C        1.50921000       0.19761296       0.04803031
N       -0.74938028      -1.63981520      -0.18808772
C       -0.58478668      -0.66685405       1.20791926
N       -0.57275252       0.11923393       2.10343038
H       -1.82817563       1.08218378      -0.48636148
H       -0.49743199       1.12412632      -1.66420147
H       -0.45672009       2.15965589      -0.23423365
H        1.81444300       0.13223743      -0.99819400
H        2.01617397      -0.58544403       0.61242826
H        1.84795774       1.15816676       0.44183429
H       -0.05676536      -2.36634700      -0.23970276
H       -1.69600380      -1.98489546      -0.14741514
14
Frame=16 idx=006059 GeodesicLength=1.0276117522362933 rxn_smarts="[C:1]([C:2]([C:3]([H:10])([H:11])[H:12])([N:4]([H:13])[H:14])[C:5]#[N:6])([H:7])([H:8])[H:9]>>[C:1]([C:2]1([C:3]([H:10])([H:11])[H:12])[C:5]([N:4]([H:13])[H:14])=[N:6]1)([H:7])([H:8])[H:9]"
C       -0.75010423       1.17129516      -0.59643818
C       -0.00328864       0.08828057       0.15372048
C        1.50565552       0.19509075       0.05641741
N       -0.74932546      -1.63440315      -0.20520295
C       -0.58805484      -0.67029675       1.21736877
N       -0.56056491       0.14091376       2.08910683
H       -1.83006004       1.09197997      -0.47014958
H       -0.51104141       1.10598394      -1.66002438
H       -0.44478124       2.15828318      -0.24351715
H        1.81010339       0.11300527      -0.98896545
H        2.01497506      -0.57923966       0.63095241
H        1.84405008       1.16145644       0.43513529
H       -0.04743106      -2.35022760      -0.26990058
H       -1.69013220      -1.99212188      -0.14850295
