11
Frame=0 idx=001362 GeodesicLength=0.0 rxn_smarts="[N:1](=[C:2](/[O:3][C:4]([C:5](=[O:6])[H:11])([H:9])[H:10])[H:8])\[H:7]>>[N:1]1([H:7])[C:2]([H:8])([H:11])[O:3][C:4]([H:9])([H:10])[C:5]1=[O:6]"
N        1.03122545       0.50614662       0.52472184
C        0.87260650       0.13459213      -0.77293664
O        0.26882784      -1.04500096      -0.89395226
C       -0.67869558      -1.02367574       0.17888146
C       -0.57948545       0.46955177       0.55992145
O       -1.20329986       1.15772466       1.33011676
H        1.33439132       1.46885276       0.61937635
H        1.48257160       0.44953565      -1.61446961
H       -0.32670918      -1.60714666       1.03037142
H       -1.63819004      -1.37344156      -0.19472039
H       -0.56324257       0.86286138      -0.76731033
11
Frame=1 idx=001362 GeodesicLength=0.07214661510995503 rxn_smarts="[N:1](=[C:2](/[O:3][C:4]([C:5](=[O:6])[H:11])([H:9])[H:10])[H:8])\[H:7]>>[N:1]1([H:7])[C:2]([H:8])([H:11])[O:3][C:4]([H:9])([H:10])[C:5]1=[O:6]"
N        1.03352645       0.51302899       0.51657647
C        0.87227264       0.14173793      -0.78104723
O        0.26743928      -1.04211638      -0.89230469
C       -0.67923786      -1.02220853       0.18114810
C       -0.59324223       0.47033064       0.56488067
O       -1.22125960       1.14022295       1.34703961
H        1.34862881       1.47112708       0.61493849
H        1.50232978       0.43392902      -1.61589372
H       -0.32579619      -1.60681401       1.03109455
H       -1.63973686      -1.37135245      -0.19106440
H       -0.56492422       0.87211475      -0.77536785
11
Frame=2 idx=001362 GeodesicLength=0.14428297540809013 rxn_smarts="[N:1](=[C:2](/[O:3][C:4]([C:5](=[O:6])[H:11])([H:9])[H:10])[H:8])\[H:7]>>[N:1]1([H:7])[C:2]([H:8])([H:11])[O:3][C:4]([H:9])([H:10])[C:5]1=[O:6]"
N        1.03570437       0.52014943       0.50826937
C        0.87190307       0.14909425      -0.78934916
O        0.26602469      -1.03900035      -0.89065780
C       -0.67976887      -1.02060111       0.18343521
C       -0.60731712       0.47115549       0.56989434
O       -1.23936889       1.12227911       1.36395807
H        1.36351512       1.47319031       0.61031019
H        1.52194207       0.41793142      -1.61668227
H       -0.32477659      -1.60633231       1.03179872
H       -1.64117002      -1.36940083      -0.18739456
H       -0.56668784       0.88153460      -0.78358212
11
Frame=3 idx=001362 GeodesicLength=0.21645855863193397 rxn_smarts="[N:1](=[C:2](/[O:3][C:4]([C:5](=[O:6])[H:11])([H:9])[H:10])[H:8])\[H:7]>>[N:1]1([H:7])[C:2]([H:8])([H:11])[O:3][C:4]([H:9])([H:10])[C:5]1=[O:6]"
N        1.03776956       0.52750370       0.49982509
C        0.87154559       0.15662602      -0.79782410
O        0.26461562      -1.03567568      -0.88899177
C       -0.68028703      -1.01885409       0.18575211
C       -0.62172336       0.47202260       0.57495832
O       -1.25764435       1.10391855       1.38082841
H        1.37910280       1.47498605       0.60551781
H        1.54127132       0.40165149      -1.61687280
H       -0.32366566      -1.60569385       1.03251793
H       -1.64248503      -1.36758900      -0.18372501
H       -0.56849946       0.89110420      -0.79198598
11
Frame=4 idx=001362 GeodesicLength=0.2885588928397993 rxn_smarts="[N:1](=[C:2](/[O:3][C:4]([C:5](=[O:6])[H:11])([H:9])[H:10])[H:8])\[H:7]>>[N:1]1([H:7])[C:2]([H:8])([H:11])[O:3][C:4]([H:9])([H:10])[C:5]1=[O:6]"
N        1.03970961       0.53510550       0.49123625
C        0.87120474       0.16432209      -0.80644537
O        0.26319660      -1.03214479      -0.88727680
C       -0.68078959      -1.01697014       0.18810395
C       -0.63645417       0.47292250       0.58005943
O       -1.27607656       1.08514389       1.39757133
H        1.39544683       1.47646320       0.60055066
H        1.56022255       0.38517218      -1.61642472
H       -0.32247145      -1.60489303       1.03324177
H       -1.64366637      -1.36593474      -0.18004096
H       -0.57032220       0.90081334      -0.80057556
11
Frame=5 idx=001362 GeodesicLength=0.3606221323142189 rxn_smarts="[N:1](=[C:2](/[O:3][C:4]([C:5](=[O:6])[H:11])([H:9])[H:10])[H:8])\[H:7]>>[N:1]1([H:7])[C:2]([H:8])([H:11])[O:3][C:4]([H:9])([H:10])[C:5]1=[O:6]"
N        1.04152469       0.54295301       0.48253618
C        0.87092221       0.17213884      -0.81519766
O        0.26180789      -1.02842659      -0.88550621
C       -0.68126439      -1.01493609       0.19049772
C       -0.65152936       0.47385268       0.58520278
O       -1.29469468       1.06598819       1.41416497
H        1.41258056       1.47754135       0.59546127
H        1.57866688       0.36857911      -1.61541708
H       -0.32119483      -1.60389417       1.03400772
H       -1.64468999      -1.36442729      -0.17636557
H       -0.57212897       0.91063097      -0.80938412
11
Frame=6 idx=001362 GeodesicLength=0.4327019205502567 rxn_smarts="[N:1](=[C:2](/[O:3][C:4]([C:5](=[O:6])[H:11])([H:9])[H:10])[H:8])\[H:7]>>[N:1]1([H:7])[C:2]([H:8])([H:11])[O:3][C:4]([H:9])([H:10])[C:5]1=[O:6]"
N        1.04322960       0.55105358       0.47373849
C        0.87073747       0.18005512      -0.82405365
O        0.26046454      -1.02454092      -0.88364351
C       -0.68172025      -1.01276445       0.19295347
C       -0.66696520       0.47480478       0.59037940
O       -1.31353145       1.04646979       1.43054482
H        1.43058469       1.47815282       0.59026339
H        1.59651436       0.35201401      -1.61391003
H       -0.31985715      -1.60270891       1.03485259
H       -1.64556801      -1.36308947      -0.17268898
H       -0.57388859       0.92055365      -0.81843598
11
Frame=7 idx=001362 GeodesicLength=0.5047724298639945 rxn_smarts="[N:1](=[C:2](/[O:3][C:4]([C:5](=[O:6])[H:11])([H:9])[H:10])[H:8])\[H:7]>>[N:1]1([H:7])[C:2]([H:8])([H:11])[O:3][C:4]([H:9])([H:10])[C:5]1=[O:6]"
N        1.04481567       0.55942105       0.46485279
C        0.87066525       0.18804998      -0.83299419
O        0.25917800      -1.02049617      -0.88166915
C       -0.68215083      -1.01045059       0.19548233
C       -0.68277684       0.47577252       0.59558690
O       -1.33261094       1.02660919       1.44666714
H        1.44950818       1.47821128       0.58498509
H        1.61369203       0.33556568      -1.61195501
H       -0.31845898      -1.60131608       1.03579661
H       -1.64628152      -1.36193024      -0.16900673
H       -0.57558002       0.93056338      -0.82774579
11
Frame=8 idx=001362 GeodesicLength=0.5768307801711179 rxn_smarts="[N:1](=[C:2](/[O:3][C:4]([C:5](=[O:6])[H:11])([H:9])[H:10])[H:8])\[H:7]>>[N:1]1([H:7])[C:2]([H:8])([H:11])[O:3][C:4]([H:9])([H:10])[C:5]1=[O:6]"
N        1.04627644       0.56807587       0.45588503
C        0.87071679       0.19611097      -0.84200406
O        0.25795796      -1.01629714      -0.87956372
C       -0.68255216      -1.00799173       0.19809826
C       -0.69898455       0.47674896       0.60082309
O       -1.35196458       1.00642484       1.46249139
H        1.46940773       1.47762294       0.57965512
H        1.63014970       0.31932017      -1.60960962
H       -0.31699739      -1.59969796       1.03686435
H       -1.64681761      -1.36096409      -0.16530933
H       -0.57719232       0.94064718      -0.83733051
11
Frame=9 idx=001362 GeodesicLength=0.648876142438116 rxn_smarts="[N:1](=[C:2](/[O:3][C:4]([C:5](=[O:6])[H:11])([H:9])[H:10])[H:8])\[H:7]>>[N:1]1([H:7])[C:2]([H:8])([H:11])[O:3][C:4]([H:9])([H:10])[C:5]1=[O:6]"
N        1.04760289       0.57704530       0.44683622
C        0.87089693       0.20423255      -0.85107241
O        0.25681262      -1.01194442      -0.87730930
C       -0.68291953      -1.00538391       0.20081626
C       -0.71561210       0.47772728       0.60608599
O       -1.37162743       0.98593429       1.47798091
H        1.49034101       1.47628145       0.57430509
H        1.64585492       0.30335574      -1.60693290
H       -0.31546412      -1.59783416       1.03808096
H       -1.64716211      -1.36020802      -0.16158318
H       -0.57872307       0.95079389      -0.84720764
11
Frame=10 idx=001362 GeodesicLength=0.7209101224426809 rxn_smarts="[N:1](=[C:2](/[O:3][C:4]([C:5](=[O:6])[H:11])([H:9])[H:10])[H:8])\[H:7]>>[N:1]1([H:7])[C:2]([H:8])([H:11])[O:3][C:4]([H:9])([H:10])[C:5]1=[O:6]"
N        1.04878232       0.58636568       0.43769993
C        0.87120247       0.21241886      -0.86019546
O        0.25574768      -1.00743206      -0.87489149
C       -0.68324653      -1.00262152       0.20365206
C       -0.73268641       0.47870058       0.61137439
O       -1.39163928       0.96515394       1.49310304
H        1.51236773       1.47406487       0.56896890
H        1.66079454       0.28773753      -1.60397776
H       -0.31384249      -1.59570125       1.03947103
H       -1.64729882      -1.35968198      -0.15780951
H       -0.58018121       0.96099536      -0.85739513
11
Frame=11 idx=001362 GeodesicLength=0.7929321361349763 rxn_smarts="[N:1](=[C:2](/[O:3][C:4]([C:5](=[O:6])[H:11])([H:9])[H:10])[H:8])\[H:7]>>[N:1]1([H:7])[C:2]([H:8])([H:11])[O:3][C:4]([H:9])([H:10])[C:5]1=[O:6]"
N        1.04979882       0.59608170       0.42846567
C        0.87162612       0.22067910      -0.86937211
O        0.25477022      -1.00275092      -0.87229502
C       -0.68352482      -0.99969647       0.20662245
C       -0.75023777       0.47966260       0.61668520
O       -1.41204142       0.94409929       1.50782727
H        1.53554720       1.47083072       0.56368598
H        1.67496175       0.27252805      -1.60079943
H       -0.31211136      -1.59326958       1.04106104
H       -1.64720735      -1.35940763      -0.15396703
H       -0.58158138       0.97124314      -0.86791402
11
Frame=12 idx=001362 GeodesicLength=0.8649427330512525 rxn_smarts="[N:1](=[C:2](/[O:3][C:4]([C:5](=[O:6])[H:11])([H:9])[H:10])[H:8])\[H:7]>>[N:1]1([H:7])[C:2]([H:8])([H:11])[O:3][C:4]([H:9])([H:10])[C:5]1=[O:6]"
N        1.05063194       0.60625042       0.41911418
C        0.87215345       0.22903216      -0.87860875
O        0.25388589      -0.99788538      -0.86950731
C       -0.68374318      -0.99659801       0.20974519
C       -0.76829967       0.48060811       0.62201392
O       -1.43287871       0.92278502       1.52212462
H        1.55994122       1.46641032       0.55850368
H        1.68836132       0.25778065      -1.59744604
H       -0.31023954      -1.59050301       1.04287845
H       -1.64686325      -1.35941061      -0.15002870
H       -0.58294947       0.98153034      -0.87878925
11
Frame=13 idx=001362 GeodesicLength=0.9369405980483733 rxn_smarts="[N:1](=[C:2](/[O:3][C:4]([C:5](=[O:6])[H:11])([H:9])[H:10])[H:8])\[H:7]>>[N:1]1([H:7])[C:2]([H:8])([H:11])[O:3][C:4]([H:9])([H:10])[C:5]1=[O:6]"
N        1.05125728       0.61694070       0.40961939
C        0.87276612       0.23750294      -0.88791615
O        0.25310268      -0.99281567      -0.86651455
C       -0.68388679      -0.99331180       0.21304010
C       -0.78690845       0.48153299       0.62735307
O       -1.45419929       0.90122588       1.53596493
H        1.58561107       1.46059995       0.55347923
H        1.70099964       0.24355099      -1.59396640
H       -0.30818856      -1.58735624       1.04495458
H       -1.64623559      -1.35971880      -0.14596253
H       -0.58431812       0.99184905      -0.89005167
11
Frame=14 idx=001362 GeodesicLength=1.0089256300560754 rxn_smarts="[N:1](=[C:2](/[O:3][C:4]([C:5](=[O:6])[H:11])([H:9])[H:10])[H:8])\[H:7]>>[N:1]1([H:7])[C:2]([H:8])([H:11])[O:3][C:4]([H:9])([H:10])[C:5]1=[O:6]"
N        1.05164468       0.62823866       0.39994647
C        0.87344111       0.24612493      -0.89731113
O        0.25243129      -0.98751630      -0.86330255
C       -0.68393640      -0.98981914       0.21652911
C       -0.80610539       0.48243543       0.63269082
O       -1.47605408       0.87943655       1.54931817
H        1.61261831       1.45315161       0.54868398
H        1.71288538       0.22989473      -1.59040872
H       -0.30590937      -1.58377220       1.04732507
H       -1.64528573      -1.36036452      -0.14173074
H       -0.58572980       1.00219027      -0.90174048
11
Frame=15 idx=001362 GeodesicLength=1.0808977030886548 rxn_smarts="[N:1](=[C:2](/[O:3][C:4]([C:5](=[O:6])[H:11])([H:9])[H:10])[H:8])\[H:7]>>[N:1]1([H:7])[C:2]([H:8])([H:11])[O:3][C:4]([H:9])([H:10])[C:5]1=[O:6]"
N        1.05175656       0.64025229       0.39004881
C        0.87414953       0.25494169      -0.90681806
O        0.25188589      -0.98195534      -0.85985575
C       -0.68386628      -0.98609592       0.22023767
C       -0.82593675       0.48331689       0.63800922
O       -1.49849882       0.85743353       1.56214986
H        1.64102605       1.44375429       0.54421109
H        1.72402568       0.21687440      -1.58682239
H       -0.30333861      -1.57967822       1.05003267
H       -1.64396423      -1.36138636      -0.13728643
H       -0.58723900       1.01254275      -0.91390670
11
Frame=16 idx=001362 GeodesicLength=1.1528552474756253 rxn_smarts="[N:1](=[C:2](/[O:3][C:4]([C:5](=[O:6])[H:11])([H:9])[H:10])[H:8])\[H:7]>>[N:1]1([H:7])[C:2]([H:8])([H:11])[O:3][C:4]([H:9])([H:10])[C:5]1=[O:6]"
N        1.05154412       0.65311919       0.37986202
C        0.87485525       0.26401031      -0.91647211
O        0.25148608      -0.97609012      -0.85615708
C       -0.68364122      -0.98210949       0.22419621
C       -0.84645547       0.48418230       0.64328220
O       -1.52159520       0.83523554       1.57441908
H        1.67089531       1.43200777       0.54018585
H        1.73442540       0.20456220      -1.58325984
H       -0.30039298      -1.57497775       1.05312901
H       -1.64220555      -1.36282965      -0.13256871
H       -0.58891574       1.02288971      -0.92661663
