17
Frame=0 idx=008611 GeodesicLength=0.0 rxn_smarts="[C:1]([C@@:2]1([H:11])[C:3]([H:12])([H:13])[C@@:4]2([O:5][H:14])[C:6]([H:15])([H:16])[C@@:7]12[H:17])([H:8])([H:9])[H:10]>>[C:1]([C:2][C@@:7]1([H:17])[C@:4]([C:3]([H:11])([H:12])[H:13])([O:5][H:14])[C:6]1([H:15])[H:16])([H:8])([H:9])[H:10]"
C        2.04457678       0.59137014      -0.33345373
C        1.08792518      -0.50525406      -0.64825288
C       -0.10378420      -0.90238576       1.14007992
C       -1.11785125      -0.40909868       0.13395345
O       -2.32953077      -1.08447464       0.03376890
C       -1.00949740       1.01489934      -0.30503816
C       -0.29878378      -0.08969911      -1.06415204
H        2.91801361       0.24563912       0.21972603
H        1.64302141       1.50055236       0.13212390
H        2.39931758       0.88678774      -1.33064736
H        0.87405385      -1.23914941       0.48391831
H        0.14460281      -0.23555405       1.96333962
H       -0.33479975      -1.90805706       1.49344481
H       -2.95108957      -0.68660995       0.64702921
H       -1.89630664       1.41359612      -0.78123665
H       -0.44747371       1.72803053       0.28662579
H       -0.62239421      -0.32059271      -2.07122911
17
Frame=1 idx=008611 GeodesicLength=0.0620284585593867 rxn_smarts="[C:1]([C@@:2]1([H:11])[C:3]([H:12])([H:13])[C@@:4]2([O:5][H:14])[C:6]([H:15])([H:16])[C@@:7]12[H:17])([H:8])([H:9])[H:10]>>[C:1]([C:2][C@@:7]1([H:17])[C@:4]([C:3]([H:11])([H:12])[H:13])([O:5][H:14])[C:6]1([H:15])[H:16])([H:8])([H:9])[H:10]"
C        2.04474271       0.59143114      -0.32931697
C        1.08384333      -0.49942889      -0.65108248
C       -0.10104795      -0.89701791       1.13368212
C       -1.11980283      -0.40383119       0.13230869
O       -2.33076893      -1.07757426       0.02287429
C       -1.01283734       1.01815613      -0.30827761
C       -0.29939066      -0.08381921      -1.06981195
H        2.91257480       0.23750217       0.22788664
H        1.64368987       1.49741417       0.14268133
H        2.40994282       0.89196492      -1.32084747
H        0.87290485      -1.27376340       0.47013155
H        0.16372625      -0.22272298       1.94593365
H       -0.34804953      -1.88906693       1.51306001
H       -2.94181595      -0.71913627       0.66967691
H       -1.89922720       1.41610236      -0.78583959
H       -0.45052949       1.73288550       0.28111163
H       -0.62795473      -0.31909536      -2.07417074
17
Frame=2 idx=008611 GeodesicLength=0.12401472153487714 rxn_smarts="[C:1]([C@@:2]1([H:11])[C:3]([H:12])([H:13])[C@@:4]2([O:5][H:14])[C:6]([H:15])([H:16])[C@@:7]12[H:17])([H:8])([H:9])[H:10]>>[C:1]([C:2][C@@:7]1([H:17])[C@:4]([C:3]([H:11])([H:12])[H:13])([O:5][H:14])[C:6]1([H:15])[H:16])([H:8])([H:9])[H:10]"
C        2.04492253       0.59132789      -0.32543495
C        1.07959960      -0.49378184      -0.65345427
C       -0.09842422      -0.89161720       1.12751978
C       -1.12190148      -0.39827203       0.13102811
O       -2.33220783      -1.07024790       0.01250337
C       -1.01609489       1.02166140      -0.31122890
C       -0.30008135      -0.07780951      -1.07517129
H        2.90704705       0.22929226       0.23581180
H        1.64452908       1.49430662       0.15264575
H        2.42056232       0.89631687      -1.31134478
H        0.87093292      -1.30735608       0.45664768
H        0.18226658      -0.21033925       1.92878776
H       -0.36035383      -1.86946081       1.53225159
H       -2.93185927      -0.75333900       0.69049581
H       -1.90197322       1.41899637      -0.79019791
H       -0.45333023       1.73785709       0.27587424
H       -0.63363376      -0.31753489      -2.07673378
17
Frame=3 idx=008611 GeodesicLength=0.1859770532650918 rxn_smarts="[C:1]([C@@:2]1([H:11])[C:3]([H:12])([H:13])[C@@:4]2([O:5][H:14])[C:6]([H:15])([H:16])[C@@:7]12[H:17])([H:8])([H:9])[H:10]>>[C:1]([C:2][C@@:7]1([H:17])[C@:4]([C:3]([H:11])([H:12])[H:13])([O:5][H:14])[C:6]1([H:15])[H:16])([H:8])([H:9])[H:10]"
C        2.04511022       0.59106430      -0.32179945
C        1.07519680      -0.48830730      -0.65541626
C       -0.09592564      -0.88615769       1.12161245
C       -1.12414447      -0.39242921       0.13010745
O       -2.33384184      -1.06249159       0.00267202
C       -1.01926818       1.02540598      -0.31390941
C       -0.30086140      -0.07169100      -1.08023996
H        2.90144049       0.22100646       0.24348212
H        1.64553268       1.49121442       0.16207845
H        2.43115056       0.89991343      -1.30212852
H        0.86819567      -1.34003355       0.44347541
H        0.20024416      -0.19833017       1.91191120
H       -0.37176452      -1.84927540       1.55105999
H       -2.92118681      -0.78917917       0.70945864
H       -1.90454613       1.42226556      -0.79432758
H       -0.45588406       1.74294975       0.27088909
H       -0.63944752      -0.31592482      -2.07892565
17
Frame=4 idx=008611 GeodesicLength=0.24792690135489592 rxn_smarts="[C:1]([C@@:2]1([H:11])[C:3]([H:12])([H:13])[C@@:4]2([O:5][H:14])[C:6]([H:15])([H:16])[C@@:7]12[H:17])([H:8])([H:9])[H:10]>>[C:1]([C:2][C@@:7]1([H:17])[C@:4]([C:3]([H:11])([H:12])[H:13])([O:5][H:14])[C:6]1([H:15])[H:16])([H:8])([H:9])[H:10]"
C        2.04529940       0.59064456      -0.31840281
C        1.07063691      -0.48299841      -0.65701023
C       -0.09355896      -0.88061727       1.11597701
C       -1.12652834      -0.38631030       0.12955016
O       -2.33566044      -1.05431037      -0.00658325
C       -1.02235740       1.02938011      -0.31633132
C       -0.30173943      -0.06548480      -1.08502428
H        2.89576363       0.21264449       0.25088078
H        1.64669404       1.48812445       0.17103184
H        2.44168376       0.90281560      -1.29318997
H        0.86474207      -1.37189509       0.43062282
H        0.21768029      -0.18663474       1.89531335
H       -0.38231602      -1.82854159       1.56952021
H       -2.90977126      -0.82659358       0.72649367
H       -1.90695110       1.42589492      -0.79823698
H       -0.45819929       1.74816678       0.26613654
H       -0.64541788      -0.31428477      -2.08074755
17
Frame=5 idx=008611 GeodesicLength=0.30987605916704675 rxn_smarts="[C:1]([C@@:2]1([H:11])[C:3]([H:12])([H:13])[C@@:4]2([O:5][H:14])[C:6]([H:15])([H:16])[C@@:7]12[H:17])([H:8])([H:9])[H:10]>>[C:1]([C:2][C@@:7]1([H:17])[C@:4]([C:3]([H:11])([H:12])[H:13])([O:5][H:14])[C:6]1([H:15])[H:16])([H:8])([H:9])[H:10]"
C        2.04548518       0.59006793      -0.31524053
C        1.06591395      -0.47784993      -0.65827121
C       -0.09132901      -0.87496505       1.11063078
C       -1.12904992      -0.37991209       0.12937005
O       -2.33765686      -1.04571070      -0.01520272
C       -1.02536147       1.03357958      -0.31849841
C       -0.30273146      -0.05920736      -1.08952316
H        2.89002703       0.20420044       0.25798537
H        1.64801395       1.48502087       0.17955112
H        2.45213895       0.90507172      -1.28452506
H        0.86061115      -1.40302764       0.41810109
H        0.23460352      -0.17518640       1.87899942
H       -0.39204523      -1.80727726       1.58767697
H       -2.89756825      -0.86555927       0.74145431
H       -1.90919378       1.42987586      -0.80192232
H       -0.46027549       1.75351372       0.26160196
H       -0.65158226      -0.31263441      -2.08218766
17
Frame=6 idx=008611 GeodesicLength=0.37181706250424873 rxn_smarts="[C:1]([C@@:2]1([H:11])[C:3]([H:12])([H:13])[C@@:4]2([O:5][H:14])[C:6]([H:15])([H:16])[C@@:7]12[H:17])([H:8])([H:9])[H:10]>>[C:1]([C:2][C@@:7]1([H:17])[C@:4]([C:3]([H:11])([H:12])[H:13])([O:5][H:14])[C:6]1([H:15])[H:16])([H:8])([H:9])[H:10]"
C        2.04565905       0.58933664      -0.31230612
C        1.06102808      -0.47285422      -0.65922870
C       -0.08923078      -0.86918428       1.10558360
C       -1.13170572      -0.37324002       0.12956507
O       -2.33983154      -1.03666891      -0.02314735
C       -1.02828245       1.03800086      -0.32042369
C       -0.30384256      -0.05287195      -1.09374599
H        2.88422438       0.19567130       0.26480111
H        1.64948262       1.48189908       0.18766403
H        2.46250558       0.90671668      -1.27612569
H        0.85581802      -1.43351761       0.40591885
H        0.25103693      -0.16394224       1.86297288
H       -0.40098220      -1.78549452       1.60556573
H       -2.88452353      -0.90606212       0.75428542
H       -1.91128178       1.43419928      -0.80538933
H       -0.46212188       1.75899695       0.25726185
H       -0.65795223      -0.31098493      -2.08325166
17
Frame=7 idx=008611 GeodesicLength=0.43372557940996537 rxn_smarts="[C:1]([C@@:2]1([H:11])[C:3]([H:12])([H:13])[C@@:4]2([O:5][H:14])[C:6]([H:15])([H:16])[C@@:7]12[H:17])([H:8])([H:9])[H:10]>>[C:1]([C:2][C@@:7]1([H:17])[C@:4]([C:3]([H:11])([H:12])[H:13])([O:5][H:14])[C:6]1([H:15])[H:16])([H:8])([H:9])[H:10]"
C        2.04581308       0.58844433      -0.30959775
C        1.05597286      -0.46800331      -0.65990365
C       -0.08725523      -0.86324696       1.10084954
C       -1.13448951      -0.36628681       0.13014915
O       -2.34219355      -1.02717694      -0.03033949
C       -1.03111935       1.04264198      -0.32210874
C       -0.30508698      -0.04648935      -1.09768862
H        2.87835744       0.18705028       0.27131702
H        1.65109872       1.47874287       0.19539224
H        2.47276136       0.90777260      -1.26798701
H        0.85037976      -1.46342737       0.39410267
H        0.26701505      -0.15284790       1.84723584
H       -0.40914077      -1.76319548       1.62321663
H       -2.87059394      -0.94810686       0.76481286
H       -1.91322141       1.43885997      -0.80862944
H       -0.46373643       1.76462020       0.25310103
H       -0.66456110      -0.30935126      -2.08392227
17
Frame=8 idx=008611 GeodesicLength=0.495577490488186 rxn_smarts="[C:1]([C@@:2]1([H:11])[C:3]([H:12])([H:13])[C@@:4]2([O:5][H:14])[C:6]([H:15])([H:16])[C@@:7]12[H:17])([H:8])([H:9])[H:10]>>[C:1]([C:2][C@@:7]1([H:17])[C@:4]([C:3]([H:11])([H:12])[H:13])([O:5][H:14])[C:6]1([H:15])[H:16])([H:8])([H:9])[H:10]"
C        2.04593585       0.58737736      -0.30711585
C        1.05074026      -0.46328956      -0.66030573
C       -0.08537893      -0.85711450       1.09645267
C       -1.13738812      -0.35902710       0.13114847
O       -2.34477626      -1.01721262      -0.03670317
C       -1.03387043       1.04751413      -0.32355209
C       -0.30648051      -0.04006203      -1.10133931
H        2.87242430       0.17831825       0.27752447
H        1.65285949       1.47553229       0.20274041
H        2.48288022       0.90823711      -1.26011104
H        0.84430343      -1.49281170       0.38269058
H        0.28259122      -0.14184409       1.83179876
H       -0.41652362      -1.74036448       1.64066258
H       -2.85573226      -0.99177132       0.77280839
H       -1.91502178       1.44386645      -0.81162655
H       -0.46511324       1.77039505       0.24909806
H       -0.67144962      -0.30774325      -2.08417065
17
Frame=9 idx=008611 GeodesicLength=0.557359847830141 rxn_smarts="[C:1]([C@@:2]1([H:11])[C:3]([H:12])([H:13])[C@@:4]2([O:5][H:14])[C:6]([H:15])([H:16])[C@@:7]12[H:17])([H:8])([H:9])[H:10]>>[C:1]([C:2][C@@:7]1([H:17])[C@:4]([C:3]([H:11])([H:12])[H:13])([O:5][H:14])[C:6]1([H:15])[H:16])([H:8])([H:9])[H:10]"
C        2.04604585       0.58615609      -0.30486664
C        1.04529272      -0.45871670      -0.66046464
C       -0.08370178      -0.85081713       1.09240074
C       -1.14045016      -0.35147081       0.13256966
O       -2.34754582      -1.00690544      -0.04250009
C       -1.03655580       1.05261103      -0.32475181
C       -0.30805283      -0.03361060      -1.10470952
H        2.86644426       0.16950015       0.28339434
H        1.65480172       1.47229700       0.20974347
H        2.49289129       0.90816039      -1.25251339
H        0.83757522      -1.52170903       0.37168514
H        0.29767645      -0.13092360       1.81666657
H       -0.42336976      -1.71704735       1.65799893
H       -2.83944031      -1.03686163       0.77846892
H       -1.91670580       1.44918829      -0.81438554
H       -0.46625445       1.77633997       0.24527057
H       -0.67865079      -0.30619063      -2.08400671
17
Frame=10 idx=008611 GeodesicLength=0.6190984305654418 rxn_smarts="[C:1]([C@@:2]1([H:11])[C:3]([H:12])([H:13])[C@@:4]2([O:5][H:14])[C:6]([H:15])([H:16])[C@@:7]12[H:17])([H:8])([H:9])[H:10]>>[C:1]([C:2][C@@:7]1([H:17])[C@:4]([C:3]([H:11])([H:12])[H:13])([O:5][H:14])[C:6]1([H:15])[H:16])([H:8])([H:9])[H:10]"
C        2.04610872       0.58474300      -0.30286060
C        1.03964054      -0.45428466      -0.66037264
C       -0.08211802      -0.84427403       1.08875730
C       -1.14362554      -0.34357512       0.13446517
O       -2.35059116      -0.99603588      -0.04735948
C       -1.03916227       1.05796833      -0.32570115
C       -0.30980875      -0.02712822      -1.10777302
H        2.86038179       0.16054418       0.28894680
H        1.65688928       1.46901218       0.21635709
H        2.50274929       0.90748870      -1.24521440
H        0.83018279      -1.55020967       0.36113698
H        0.31242025      -0.11999676       1.80187363
H       -0.42952888      -1.69317926       1.67525682
H       -2.82190932      -1.08373879       0.78117281
H       -1.91827370       1.45487487      -0.81687145
H       -0.46715193       1.78248774       0.24156741
H       -0.68620306      -0.30469660      -2.08338127
17
Frame=11 idx=008611 GeodesicLength=0.6808151625023778 rxn_smarts="[C:1]([C@@:2]1([H:11])[C:3]([H:12])([H:13])[C@@:4]2([O:5][H:14])[C:6]([H:15])([H:16])[C@@:7]12[H:17])([H:8])([H:9])[H:10]>>[C:1]([C:2][C@@:7]1([H:17])[C@:4]([C:3]([H:11])([H:12])[H:13])([O:5][H:14])[C:6]1([H:15])[H:16])([H:8])([H:9])[H:10]"
C        2.04612619       0.58313460      -0.30109568
C        1.03375714      -0.44999076      -0.66004323
C       -0.08065656      -0.83746236       1.08552842
C       -1.14693430      -0.33533643       0.13684735
O       -2.35388274      -0.98460970      -0.05119379
C       -1.04169742       1.06358189      -0.32639408
C       -0.31177700      -0.02062847      -1.11052635
H        2.85423619       0.15145305       0.29417973
H        1.65914206       1.46567628       0.22259498
H        2.51245885       0.90622418      -1.23821531
H        0.82209540      -1.57837099       0.35105040
H        0.32681939      -0.10901614       1.78740604
H       -0.43507804      -1.66873238       1.69248918
H       -2.80291652      -1.13239381       0.78073368
H       -1.91974171       1.46091020      -0.81907050
H       -0.46779882       1.78884460       0.23798564
H       -0.69415212      -0.30328375      -2.08227647
17
Frame=12 idx=008611 GeodesicLength=0.7424640369147436 rxn_smarts="[C:1]([C@@:2]1([H:11])[C:3]([H:12])([H:13])[C@@:4]2([O:5][H:14])[C:6]([H:15])([H:16])[C@@:7]12[H:17])([H:8])([H:9])[H:10]>>[C:1]([C:2][C@@:7]1([H:17])[C@:4]([C:3]([H:11])([H:12])[H:13])([O:5][H:14])[C:6]1([H:15])[H:16])([H:8])([H:9])[H:10]"
C        2.04607704       0.58131750      -0.29955479
C        1.02764214      -0.44582475      -0.65947247
C       -0.07929258      -0.83036185       1.08270775
C       -1.15036304      -0.32675044       0.13971627
O       -2.35744395      -0.97265010      -0.05390967
C       -1.04417514       1.06943939      -0.32684059
C       -0.31396613      -0.01412024      -1.11296425
H        2.84798935       0.14221990       0.29911611
H        1.66152999       1.46226725       0.22846105
H        2.52199618       0.90435972      -1.23148715
H        0.81330959      -1.60624311       0.34145272
H        0.34090454      -0.09795970       1.77324169
H       -0.44001081      -1.64368304       1.70967335
H       -2.78232118      -1.18270770       0.77700607
H       -1.92113577       1.46727193      -0.82097908
H       -0.46822172       1.79539136       0.23449860
H       -0.70251852      -0.30196614      -2.08066560
17
Frame=13 idx=008611 GeodesicLength=0.8041396826893669 rxn_smarts="[C:1]([C@@:2]1([H:11])[C:3]([H:12])([H:13])[C@@:4]2([O:5][H:14])[C:6]([H:15])([H:16])[C@@:7]12[H:17])([H:8])([H:9])[H:10]>>[C:1]([C:2][C@@:7]1([H:17])[C@:4]([C:3]([H:11])([H:12])[H:13])([O:5][H:14])[C:6]1([H:15])[H:16])([H:8])([H:9])[H:10]"
C        2.04596338       0.57926186      -0.29829488
C        1.02122463      -0.44182390      -0.65866092
C       -0.07807478      -0.82291880       1.08041748
C       -1.15395213      -0.31775434       0.14317933
O       -2.36128995      -0.96003459      -0.05538136
C       -1.04658965       1.07561773      -0.32699235
C       -0.31643693      -0.00760237      -1.11505622
H        2.84163942       0.13279585       0.30369798
H        1.66411683       1.45881583       0.23390670
H        2.53135803       0.90182850      -1.22514907
H        0.80371395      -1.63388605       0.33242438
H        0.35469704      -0.08672807       1.75946436
H       -0.44446195      -1.61794534       1.72703494
H       -2.75968219      -1.23513095       0.76933397
H       -1.92245669       1.47404396      -0.82254041
H       -0.46835896       1.80223638       0.23112022
H       -0.71141004      -0.30077570      -2.07850413
17
Frame=14 idx=008611 GeodesicLength=0.8657056265883595 rxn_smarts="[C:1]([C@@:2]1([H:11])[C:3]([H:12])([H:13])[C@@:4]2([O:5][H:14])[C:6]([H:15])([H:16])[C@@:7]12[H:17])([H:8])([H:9])[H:10]>>[C:1]([C:2][C@@:7]1([H:17])[C@:4]([C:3]([H:11])([H:12])[H:13])([O:5][H:14])[C:6]1([H:15])[H:16])([H:8])([H:9])[H:10]"
C        2.04575748       0.57694857      -0.29728510
C        1.01449481      -0.43795371      -0.65757778
C       -0.07693937      -0.81508766       1.07861780
C       -1.15766068      -0.30832376       0.14725463
O       -2.36541640      -0.94691291      -0.05541381
C       -1.04895369       1.08206308      -0.32684540
C       -0.31921907      -0.00109444      -1.11675340
H        2.83517896       0.12319405       0.30793516
H        1.66687709       1.45525298       0.23894113
H        2.54048229       0.89861001      -1.21912994
H        0.79332425      -1.66129315       0.32400751
H        0.36827504      -0.07530395       1.74600168
H       -0.44841026      -1.59144680       1.74447192
H       -2.73489944      -1.28931164       0.75733279
H       -1.92375359       1.48113057      -0.82370843
H       -0.46822633       1.80929652       0.22781748
H       -0.72091109      -0.29976775      -2.07566624
17
Frame=15 idx=008611 GeodesicLength=0.9271665066039478 rxn_smarts="[C:1]([C@@:2]1([H:11])[C:3]([H:12])([H:13])[C@@:4]2([O:5][H:14])[C:6]([H:15])([H:16])[C@@:7]12[H:17])([H:8])([H:9])[H:10]>>[C:1]([C:2][C@@:7]1([H:17])[C@:4]([C:3]([H:11])([H:12])[H:13])([O:5][H:14])[C:6]1([H:15])[H:16])([H:8])([H:9])[H:10]"
C        2.04544257       0.57433510      -0.29656365
C        1.00738613      -0.43423154      -0.65618466
C       -0.07587938      -0.80679016       1.07740512
C       -1.16148977      -0.29838087       0.15206552
O       -2.36986525      -0.93322227      -0.05376699
C       -1.05126827       1.08880444      -0.32634864
C       -0.32238393       0.00538883      -1.11797754
H        2.82859897       0.11338263       0.31177746
H        1.66984802       1.45156353       0.24350195
H        2.54932764       0.89461391      -1.21349500
H        0.78205722      -1.68847248       0.31630781
H        0.38170880      -0.06360066       1.73288614
H       -0.45192624      -1.56406879       1.76210112
H       -2.70754973      -1.34544274       0.74011352
H       -1.92505583       1.48852958      -0.82439671
H       -0.46777653       1.81660873       0.22457365
H       -0.73117442      -0.29901722      -2.07199909
17
Frame=16 idx=008611 GeodesicLength=0.9886179636908404 rxn_smarts="[C:1]([C@@:2]1([H:11])[C:3]([H:12])([H:13])[C@@:4]2([O:5][H:14])[C:6]([H:15])([H:16])[C@@:7]12[H:17])([H:8])([H:9])[H:10]>>[C:1]([C:2][C@@:7]1([H:17])[C@:4]([C:3]([H:11])([H:12])[H:13])([O:5][H:14])[C:6]1([H:15])[H:16])([H:8])([H:9])[H:10]"
C        2.04500430       0.57135995      -0.29621859
C        0.99981476      -0.43071174      -0.65443719
C       -0.07490060      -0.79793311       1.07697299
C       -1.16545333      -0.28780296       0.15782042
O       -2.37474505      -0.91877716      -0.05004251
C       -1.05354176       1.09593868      -0.32542962
C       -0.32602301       0.01183113      -1.11863554
H        2.82188426       0.10329649       0.31514930
H        1.67307954       1.44777006       0.24746605
H        2.55786703       0.88968902      -1.20840861
H        0.76979389      -1.71546142       0.30950669
H        0.39505945      -0.05150150       1.72024523
H       -0.45511429      -1.53568844       1.78015744
H       -2.67696902      -1.40397993       0.71630907
H       -1.92640662       1.49631257      -0.82449347
H       -0.46695319       1.82430167       0.22136172
H       -0.74239637      -0.29864331      -2.06732340
