14
Frame=0 idx=002145 GeodesicLength=0.0 rxn_smarts="[C:1]([C@@:2]1([H:10])[C:3]([H:11])([H:12])[C@@:4]2([H:13])[O:5][C@@:6]12[H:14])([H:7])([H:8])[H:9]>>[C:1]([C:2][C@@:6]1([H:14])[C@:4]([C:3]([H:10])([H:11])[H:12])([H:13])[O:5]1)([H:7])([H:8])[H:9]"
C        1.64986188       0.59057137       0.55045160
C        0.46632216       0.83190464      -0.31865034
C       -0.41215617      -1.07748436      -0.91501677
C       -1.47650931      -0.43655274      -0.06948138
O       -1.08566367      -0.28779859       1.28075807
C       -0.85644556       0.80412280       0.36417643
H        1.50620441      -0.13685977       1.35589332
H        1.81083187       1.56710778       1.02818154
H        2.55363854       0.36499363      -0.01555544
H        0.34623820      -0.14319154      -1.23121975
H        0.10997253      -1.91314161      -0.45674797
H       -0.71629581      -1.29608927      -1.93962938
H       -2.53292685      -0.59487538      -0.25314435
H       -1.36307217       1.72729298       0.61998444
14
Frame=1 idx=002145 GeodesicLength=0.05884671494072286 rxn_smarts="[C:1]([C@@:2]1([H:10])[C:3]([H:11])([H:12])[C@@:4]2([H:13])[O:5][C@@:6]12[H:14])([H:7])([H:8])[H:9]>>[C:1]([C:2][C@@:6]1([H:14])[C@:4]([C:3]([H:10])([H:11])[H:12])([H:13])[O:5]1)([H:7])([H:8])[H:9]"
C        1.64994895       0.58632848       0.55299949
C        0.46534081       0.82944667      -0.31337102
C       -0.40732754      -1.07293433      -0.91378016
C       -1.47523235      -0.43633590      -0.06841260
O       -1.08871212      -0.28687772       1.28250216
C       -0.85718981       0.80608235       0.36846238
H        1.50477095      -0.14503221       1.35449031
H        1.81325454       1.56074705       1.03429775
H        2.55343315       0.36180391      -0.01398032
H        0.33931126      -0.12653988      -1.26554290
H        0.12854513      -1.89723335      -0.45039640
H       -0.72510130      -1.31830561      -1.92794294
H       -2.53166476      -0.58909360      -0.25680232
H       -1.36937689       1.72794412       0.61747657
14
Frame=2 idx=002145 GeodesicLength=0.11766706893543735 rxn_smarts="[C:1]([C@@:2]1([H:10])[C:3]([H:11])([H:12])[C@@:4]2([H:13])[O:5][C@@:6]12[H:14])([H:7])([H:8])[H:9]>>[C:1]([C:2][C@@:6]1([H:14])[C@:4]([C:3]([H:10])([H:11])[H:12])([H:13])[O:5]1)([H:7])([H:8])[H:9]"
C        1.65003951       0.58219766       0.55554618
C        0.46439599       0.82658728      -0.30832837
C       -0.40265194      -1.06833631      -0.91281284
C       -1.47400133      -0.43622173      -0.06732237
O       -1.09168925      -0.28617129       1.28423077
C       -0.85781754       0.80787435       0.37280471
H        1.50337662      -0.15268306       1.35342886
H        1.81565748       1.55475710       1.03985200
H        2.55323009       0.35842621      -0.01229075
H        0.33195810      -0.11027560      -1.29896854
H        0.14640073      -1.88145726      -0.44467656
H       -0.73305116      -1.33984867      -1.91602200
H       -2.53041982      -0.58327855      -0.26043333
H       -1.37542746       1.72842986       0.61499224
14
Frame=3 idx=002145 GeodesicLength=0.1764723412464448 rxn_smarts="[C:1]([C@@:2]1([H:10])[C:3]([H:11])([H:12])[C@@:4]2([H:13])[O:5][C@@:6]12[H:14])([H:7])([H:8])[H:9]>>[C:1]([C:2][C@@:6]1([H:14])[C@:4]([C:3]([H:10])([H:11])[H:12])([H:13])[O:5]1)([H:7])([H:8])[H:9]"
C        1.65013215       0.57817057       0.55809261
C        0.46348643       0.82338469      -0.30350472
C       -0.39812863      -1.06371591      -0.91208337
C       -1.47281156      -0.43619737      -0.06621501
O       -1.09459339      -0.28564992       1.28594001
C       -0.85833622       0.80951823       0.37718614
H        1.50202184      -0.15989144       1.35265455
H        1.81802876       1.54909424       1.04493140
H        2.55303581       0.35491002      -0.01049736
H        0.32422452      -0.09436839      -1.33159862
H        0.16357978      -1.86582573      -0.43951226
H       -0.74021097      -1.36076318      -1.90388006
H       -2.52918431      -0.57742938      -0.26403175
H       -1.38124422       1.72876357       0.61251843
14
Frame=4 idx=002145 GeodesicLength=0.23527344832940103 rxn_smarts="[C:1]([C@@:2]1([H:10])[C:3]([H:11])([H:12])[C@@:4]2([H:13])[O:5][C@@:6]12[H:14])([H:7])([H:8])[H:9]>>[C:1]([C:2][C@@:6]1([H:14])[C@:4]([C:3]([H:10])([H:11])[H:12])([H:13])[O:5]1)([H:7])([H:8])[H:9]"
C        1.65022501       0.57423773       0.56063887
C        0.46260998       0.81989112      -0.29888157
C       -0.39375151      -1.05909145      -0.91156231
C       -1.47165778      -0.43625096      -0.06509435
O       -1.09742566      -0.28528655       1.28762750
C       -0.85875368       0.81103244       0.38159334
H        1.50070510      -0.16672673       1.35211877
H        1.82036134       1.54371710       1.04961147
H        2.55285304       0.35129290      -0.00861118
H        0.31614363      -0.07878453      -1.36352896
H        0.18012305      -1.85034643      -0.43483632
H       -0.74663497      -1.38109633      -1.89152602
H       -2.52795095      -0.57154706      -0.26759477
H       -1.38684662       1.72895875       0.61004553
14
Frame=5 idx=002145 GeodesicLength=0.29407990278251606 rxn_smarts="[C:1]([C@@:2]1([H:10])[C:3]([H:11])([H:12])[C@@:4]2([H:13])[O:5][C@@:6]12[H:14])([H:7])([H:8])[H:9]>>[C:1]([C:2][C@@:6]1([H:14])[C@:4]([C:3]([H:10])([H:11])[H:12])([H:13])[O:5]1)([H:7])([H:8])[H:9]"
C        1.65031702       0.57039095       0.56318427
C        0.46176393       0.81615182      -0.29444218
C       -0.38951574      -1.05447853      -0.91122380
C       -1.47053579      -0.43637263      -0.06396312
O       -1.10018744      -0.28505709       1.28929186
C       -0.85907834       0.81243338       0.38601394
H        1.49942498      -0.17324997       1.35177788
H        1.82265047       1.53858889       1.05395851
H        2.55268415       0.34760750      -0.00664339
H        0.30774682      -0.06349892      -1.39484598
H        0.19606412      -1.83502556      -0.43058898
H       -0.75236760      -1.40088117      -1.87896386
H       -2.52671298      -0.56563541      -0.27111929
H       -1.39225359       1.72902673       0.60756413
14
Frame=6 idx=002145 GeodesicLength=0.35289284939515436 rxn_smarts="[C:1]([C@@:2]1([H:10])[C:3]([H:11])([H:12])[C@@:4]2([H:13])[O:5][C@@:6]12[H:14])([H:7])([H:8])[H:9]>>[C:1]([C:2][C@@:6]1([H:14])[C@:4]([C:3]([H:10])([H:11])[H:12])([H:13])[O:5]1)([H:7])([H:8])[H:9]"
C        1.65040680       0.56662134       0.56572936
C        0.46094617       0.81220581      -0.29016915
C       -0.38541252      -1.04988647      -0.91104519
C       -1.46944116      -0.43655268      -0.06282437
O       -1.10288214      -0.28494083       1.29093196
C       -0.85931766       0.81373606       0.39043976
H        1.49817826      -0.17951141       1.35159696
H        1.82489366       1.53367592       1.05802620
H        2.55252964       0.34387644      -0.00460287
H        0.29905140      -0.04848372      -1.42562938
H        0.21143860      -1.81986423      -0.42672161
H       -0.75744696      -1.42015737      -1.86619534
H       -2.52546402      -0.55969774      -0.27460528
H       -1.39748008       1.72897886       0.60506895
14
Frame=7 idx=002145 GeodesicLength=0.4117085208606811 rxn_smarts="[C:1]([C@@:2]1([H:10])[C:3]([H:11])([H:12])[C@@:4]2([H:13])[O:5][C@@:6]12[H:14])([H:7])([H:8])[H:9]>>[C:1]([C:2][C@@:6]1([H:14])[C@:4]([C:3]([H:10])([H:11])[H:12])([H:13])[O:5]1)([H:7])([H:8])[H:9]"
C        1.65049349       0.56292072       0.56827375
C        0.46015403       0.80808846      -0.28604624
C       -0.38143111      -1.04532113      -0.91100680
C       -1.46836972      -0.43678237      -0.06168081
O       -1.10551311      -0.28491911       1.29254744
C       -0.85947920       0.81495443       0.39486392
H        1.49696202      -0.18555622       1.35154325
H        1.82709042       1.52894792       1.06186305
H        2.55238901       0.34011830      -0.00249946
H        0.29006955      -0.03371714      -1.45595191
H        0.22627609      -1.80486413      -0.42318930
H       -0.76190182      -1.43895709      -1.85321902
H       -2.52419832      -0.55373855      -0.27805412
H       -1.40254134       1.72882591       0.60255625
14
Frame=8 idx=002145 GeodesicLength=0.47051955269143025 rxn_smarts="[C:1]([C@@:2]1([H:10])[C:3]([H:11])([H:12])[C@@:4]2([H:13])[O:5][C@@:6]12[H:14])([H:7])([H:8])[H:9]>>[C:1]([C:2][C@@:6]1([H:14])[C@:4]([C:3]([H:10])([H:11])[H:12])([H:13])[O:5]1)([H:7])([H:8])[H:9]"
C        1.65057634       0.55928217       0.57081821
C        0.45938535       0.80383080      -0.28205748
C       -0.37756273      -1.04078514      -0.91109304
C       -1.46731812      -0.43705356      -0.06053521
O       -1.10808438      -0.28497655       1.29413703
C       -0.85957052       0.81610073       0.39928105
H        1.49577373      -0.19142275       1.35159017
H        1.82924122       1.52437811       1.06551124
H        2.55226199       0.33634786      -0.00034147
H        0.28080944      -0.01918556      -1.48588036
H        0.24060506      -1.79002177      -0.41995643
H       -0.76575709      -1.45730977      -1.84003042
H       -2.52291028      -0.54776120      -0.28146641
H       -1.40745000       1.72857665       0.60002313
14
Frame=9 idx=002145 GeodesicLength=0.5292843636485374 rxn_smarts="[C:1]([C@@:2]1([H:10])[C:3]([H:11])([H:12])[C@@:4]2([H:13])[O:5][C@@:6]12[H:14])([H:7])([H:8])[H:9]>>[C:1]([C:2][C@@:6]1([H:14])[C@:4]([C:3]([H:10])([H:11])[H:12])([H:13])[O:5]1)([H:7])([H:8])[H:9]"
C        1.65065666       0.55570464       0.57336796
C        0.45864101       0.79945902      -0.27818361
C       -0.37379119      -1.03627583      -0.91129589
C       -1.46627922      -0.43736051      -0.05939356
O       -1.11059643      -0.28510448       1.29569868
C       -0.85959548       0.81718368       0.40368852
H        1.49460944      -0.19712997       1.35172368
H        1.83134834       1.51994945       1.06900213
H        2.55215059       0.33257946       0.00187295
H        0.27128437      -0.00491011      -1.51546598
H        0.25446017      -1.77532790      -0.41699990
H       -0.76907562      -1.47523583      -1.82663926
H       -2.52159745      -0.54177031      -0.28484878
H       -1.41221520       1.72823870       0.59747305
14
Frame=10 idx=002145 GeodesicLength=0.5880513040192634 rxn_smarts="[C:1]([C@@:2]1([H:10])[C:3]([H:11])([H:12])[C@@:4]2([H:13])[O:5][C@@:6]12[H:14])([H:7])([H:8])[H:9]>>[C:1]([C:2][C@@:6]1([H:14])[C@:4]([C:3]([H:10])([H:11])[H:12])([H:13])[O:5]1)([H:7])([H:8])[H:9]"
C        1.65073248       0.55217527       0.57591991
C        0.45791712       0.79499664      -0.27441412
C       -0.37011170      -1.03180353      -0.91159137
C       -1.46525237      -0.43769732      -0.05825429
O       -1.11305724      -0.28528476       1.29723444
C       -0.85956268       0.81821475       0.40808039
H        1.49346600      -0.20271829       1.35191833
H        1.83341481       1.51563371       1.07237021
H        2.55205052       0.32881499       0.00413029
H        0.26148537       0.00916894      -1.54478492
H        0.26786368      -1.76079073      -0.41427173
H       -0.77184424      -1.49275814      -1.81303598
H       -2.52025137      -0.53577163      -0.28819933
H       -1.41685038       1.72782010       0.59489818
14
Frame=11 idx=002145 GeodesicLength=0.6468188727160277 rxn_smarts="[C:1]([C@@:2]1([H:10])[C:3]([H:11])([H:12])[C@@:4]2([H:13])[O:5][C@@:6]12[H:14])([H:7])([H:8])[H:9]>>[C:1]([C:2][C@@:6]1([H:14])[C@:4]([C:3]([H:10])([H:11])[H:12])([H:13])[O:5]1)([H:7])([H:8])[H:9]"
C        1.65080394       0.54868852       0.57847622
C        0.45721249       0.79046530      -0.27073435
C       -0.36651209      -1.02736808      -0.91196748
C       -1.46423336      -0.43805891      -0.05712036
O       -1.11547071      -0.28550734       1.29874412
C       -0.85947753       0.81920251       0.41245451
H        1.49233913      -0.20820983       1.35216005
H        1.83544566       1.51141273       1.07564240
H        2.55195985       0.32505876       0.00642625
H        0.25140851       0.02306348      -1.57389465
H        0.28084175      -1.74640888      -0.41174333
H       -0.77408587      -1.50989652      -1.79921998
H       -2.51886699      -0.52976958      -0.29152249
H       -1.42136477       1.72732784       0.59229908
14
Frame=12 idx=002145 GeodesicLength=0.7055927755899651 rxn_smarts="[C:1]([C@@:2]1([H:10])[C:3]([H:11])([H:12])[C@@:4]2([H:13])[O:5][C@@:6]12[H:14])([H:7])([H:8])[H:9]>>[C:1]([C:2][C@@:6]1([H:14])[C@:4]([C:3]([H:10])([H:11])[H:12])([H:13])[O:5]1)([H:7])([H:8])[H:9]"
C        1.65087130       0.54523874       0.58103947
C        0.45652627       0.78588179      -0.26713094
C       -0.36298266      -1.02297151      -0.91241201
C       -1.46321883      -0.43844128      -0.05599345
O       -1.11784114      -0.28576303       1.30022802
C       -0.85934499       0.82015402       0.41680879
H        1.49122546      -0.21362297       1.35243942
H        1.83744594       1.50727057       1.07883996
H        2.55187683       0.32131106       0.00875742
H        0.24104723       0.03678993      -1.60285098
H        0.29341780      -1.73218066      -0.40938917
H       -0.77581643      -1.52666500      -1.78519005
H       -2.51744029      -0.52376913      -0.29482141
H       -1.42576649       1.72676748       0.58967492
14
Frame=13 idx=002145 GeodesicLength=0.7643747480956207 rxn_smarts="[C:1]([C@@:2]1([H:10])[C:3]([H:11])([H:12])[C@@:4]2([H:13])[O:5][C@@:6]12[H:14])([H:7])([H:8])[H:9]>>[C:1]([C:2][C@@:6]1([H:14])[C@:4]([C:3]([H:10])([H:11])[H:12])([H:13])[O:5]1)([H:7])([H:8])[H:9]"
C        1.65093522       0.54182093       0.58361254
C        0.45585827       0.78126231      -0.26359065
C       -0.35951295      -1.01861278      -0.91291540
C       -1.46220516      -0.43884040      -0.05487583
O       -1.12017256      -0.28604443       1.30168602
C       -0.85916975       0.82107592       0.42114209
H        1.49012165      -0.21897393       1.35274809
H        1.83942117       1.50319255       1.08198327
H        2.55180000       0.31757214       0.01112136
H        0.23038993       0.05035786      -1.63170797
H        0.30561492      -1.71810423      -0.40718355
H       -0.77705100      -1.54307611      -1.77094634
H       -2.51596687      -0.51777462      -0.29810000
H       -1.43006287       1.72614480       0.58702637
14
Frame=14 idx=002145 GeodesicLength=0.8231583409528661 rxn_smarts="[C:1]([C@@:2]1([H:10])[C:3]([H:11])([H:12])[C@@:4]2([H:13])[O:5][C@@:6]12[H:14])([H:7])([H:8])[H:9]>>[C:1]([C:2][C@@:6]1([H:14])[C@:4]([C:3]([H:10])([H:11])[H:12])([H:13])[O:5]1)([H:7])([H:8])[H:9]"
C        1.65099666       0.53843107       0.58619949
C        0.45520860       0.77661991      -0.26010081
C       -0.35609415      -1.01429020      -0.91347029
C       -1.46118940      -0.43925252      -0.05376925
O       -1.12246821      -0.28634537       1.30311810
C       -0.85895563       0.82197387       0.42545387
H        1.48902493      -0.22427477       1.35308173
H        1.84137633       1.49916730       1.08508956
H        2.55172847       0.31384155       0.01351780
H        0.21942382       0.06376787      -1.66051525
H        0.31745348      -1.70417529      -0.40510970
H       -0.77780210      -1.55913846      -1.75648883
H       -2.51444344      -0.51178942      -0.30136117
H       -1.43425936       1.72546446       0.58435475
14
Frame=15 idx=002145 GeodesicLength=0.8819404541004027 rxn_smarts="[C:1]([C@@:2]1([H:10])[C:3]([H:11])([H:12])[C@@:4]2([H:13])[O:5][C@@:6]12[H:14])([H:7])([H:8])[H:9]>>[C:1]([C:2][C@@:6]1([H:14])[C@:4]([C:3]([H:10])([H:11])[H:12])([H:13])[O:5]1)([H:7])([H:8])[H:9]"
C        1.65105692       0.53506487       0.58880456
C        0.45457817       0.77196568      -0.25664960
C       -0.35271713      -1.01000266      -0.91406904
C       -1.46016825      -0.43967441      -0.05267564
O       -1.12473161      -0.28666033       1.30452418
C       -0.85870596       0.82285290       0.42974374
H        1.48793253      -0.22953628       1.35343744
H        1.84331681       1.49518416       1.08817430
H        2.55166171       0.31011710       0.01594703
H        0.20813047       0.07702498      -1.68932150
H        0.32895367      -1.69039106      -0.40314934
H       -0.77808002      -1.57485900      -1.74181802
H       -2.51286643      -0.50581721      -0.30460865
H       -1.43836086       1.72473126       0.58166055
14
Frame=16 idx=002145 GeodesicLength=0.9407121911836012 rxn_smarts="[C:1]([C@@:2]1([H:10])[C:3]([H:11])([H:12])[C@@:4]2([H:13])[O:5][C@@:6]12[H:14])([H:7])([H:8])[H:9]>>[C:1]([C:2][C@@:6]1([H:14])[C@:4]([C:3]([H:10])([H:11])[H:12])([H:13])[O:5]1)([H:7])([H:8])[H:9]"
C        1.65111749       0.53171890       0.59143266
C        0.45396786       0.76730998      -0.25322523
C       -0.34937353      -1.00574730      -0.91470632
C       -1.45913878      -0.44010267      -0.05159678
O       -1.12696565      -0.28698471       1.30590411
C       -0.85842369       0.82371771       0.43401193
H        1.48684212      -0.23476749       1.35381395
H        1.84524786       1.49123392       1.09125228
H        2.55159936       0.30639738       0.01841049
H        0.19648902       0.09012321      -1.71817397
H        0.34013372      -1.67674769      -0.40128814
H       -0.77789160      -1.59024031      -1.72693516
H       -2.51123285      -0.49986053      -0.30784544
H       -1.44237133       1.72394961       0.57894563
