17
Frame=0 idx=009657 GeodesicLength=0.0 rxn_smarts="[C:1]([C@@:2]12[C:3]([H:11])([H:12])[C@@:4]([H:13])([C:5]([H:14])([H:15])[C:6]1([H:16])[H:17])[O:7]2)([H:8])([H:9])[H:10]>>[C:1]([H:8])([H:9])([H:10])[H:12].[C:2]12=[C:3]([H:11])[C@@:4]([H:13])([C:5]([H:14])([H:15])[C:6]1([H:16])[H:17])[O:7]2"
C        2.17907165       0.19609406       0.19819328
C        0.35949641      -0.19210352      -0.01873876
C       -0.25797235      -1.47612901       0.43628968
C       -1.11728176      -0.98008811      -0.74104532
C       -1.76519476       0.36738132      -0.28189187
C       -0.48873548       1.03034511       0.32731566
O        0.11700102      -0.43583313      -1.37015655
H        2.19525625       0.78939325      -0.70876478
H        2.96917843      -0.56143903       0.13281551
H        2.25202931       0.77553584       1.11119985
H       -0.72060305      -1.39652729       1.42590530
H        1.42273218      -0.79737910       0.35347651
H       -1.69268269      -1.62630741      -1.40147375
H       -2.55165009       0.20573368       0.45459945
H       -2.16335045       0.94748938      -1.11565032
H       -0.18953495       1.93686259      -0.19987118
H       -0.54775970       1.21697137       1.39779728
17
Frame=1 idx=009657 GeodesicLength=0.13707900647683438 rxn_smarts="[C:1]([C@@:2]12[C:3]([H:11])([H:12])[C@@:4]([H:13])([C:5]([H:14])([H:15])[C:6]1([H:16])[H:17])[O:7]2)([H:8])([H:9])[H:10]>>[C:1]([H:8])([H:9])([H:10])[H:12].[C:2]12=[C:3]([H:11])[C@@:4]([H:13])([C:5]([H:14])([H:15])[C:6]1([H:16])[H:17])[O:7]2"
C        2.20165020       0.17964313       0.20198564
C        0.35254219      -0.16987276      -0.01716779
C       -0.25692646      -1.45097848       0.44740145
C       -1.11544576      -0.97800888      -0.73922645
C       -1.78023426       0.36321721      -0.28728375
C       -0.51030244       1.04378841       0.31974645
O        0.11020535      -0.42299129      -1.36928216
H        2.22207748       0.82275227      -0.67091788
H        2.98934641      -0.57394651       0.08702045
H        2.30085127       0.71565022       1.13959618
H       -0.71836584      -1.37737762       1.43746267
H        1.43050647      -0.82732667       0.34174703
H       -1.67947159      -1.64169209      -1.39210534
H       -2.56488890       0.19769716       0.45046899
H       -2.18709992       0.93153582      -1.12491111
H       -0.22046815       1.94987227      -0.21316157
H       -0.57397604       1.23803782       1.38862719
17
Frame=2 idx=009657 GeodesicLength=0.27401959736040754 rxn_smarts="[C:1]([C@@:2]12[C:3]([H:11])([H:12])[C@@:4]([H:13])([C:5]([H:14])([H:15])[C:6]1([H:16])[H:17])[O:7]2)([H:8])([H:9])[H:10]>>[C:1]([H:8])([H:9])([H:10])[H:12].[C:2]12=[C:3]([H:11])[C@@:4]([H:13])([C:5]([H:14])([H:15])[C:6]1([H:16])[H:17])[O:7]2"
C        2.22444136       0.16226638       0.20557434
C        0.34555376      -0.14615169      -0.01547178
C       -0.25530826      -1.42442508       0.45902042
C       -1.11299368      -0.97573713      -0.73687473
C       -1.79556226       0.35869477      -0.29276768
C       -0.53286412       1.05805558       0.31152370
O        0.10347961      -0.40943437      -1.36816341
H        2.25021449       0.85642546      -0.62786878
H        3.00858483      -0.58479190       0.03877564
H        2.35084381       0.64993863       1.16687804
H       -0.71536696      -1.35670834       1.44957310
H        1.43778287      -0.85813940       0.32857453
H       -1.66480514      -1.65729436      -1.38173454
H       -2.57821626       0.18914333       0.44639295
H       -2.21143304       0.91430766      -1.13445209
H       -0.25299700       1.96346009      -0.22760939
H       -0.60135400       1.26039038       1.37862967
17
Frame=3 idx=009657 GeodesicLength=0.41076816354306844 rxn_smarts="[C:1]([C@@:2]12[C:3]([H:11])([H:12])[C@@:4]([H:13])([C:5]([H:14])([H:15])[C:6]1([H:16])[H:17])[O:7]2)([H:8])([H:9])[H:10]>>[C:1]([H:8])([H:9])([H:10])[H:12].[C:2]12=[C:3]([H:11])[C@@:4]([H:13])([C:5]([H:14])([H:15])[C:6]1([H:16])[H:17])[O:7]2"
C        2.24738313       0.14394670       0.20894830
C        0.33852369      -0.12080616      -0.01371342
C       -0.25300484      -1.39634601       0.47109743
C       -1.10985996      -0.97321600      -0.73395934
C       -1.81115349       0.35377927      -0.29830420
C       -0.55646136       1.07316752       0.30260512
O        0.09681536      -0.39508151      -1.36682445
H        2.27979884       0.88977805      -0.57910867
H        3.02677354      -0.59355017      -0.01169129
H        2.40183308       0.57821084       1.19237698
H       -0.71148059      -1.33442714       1.46218929
H        1.44447527      -0.88979354       0.31395595
H       -1.64857438      -1.67303145      -1.37028685
H       -2.59156078       0.18001027       0.44243952
H       -2.23635081       0.89571028      -1.14419950
H       -0.28720012       1.97761114      -0.24326754
H       -0.62995656       1.28403789       1.36774268
17
Frame=4 idx=009657 GeodesicLength=0.5472973953810102 rxn_smarts="[C:1]([C@@:2]12[C:3]([H:11])([H:12])[C@@:4]([H:13])([C:5]([H:14])([H:15])[C:6]1([H:16])[H:17])[O:7]2)([H:8])([H:9])[H:10]>>[C:1]([H:8])([H:9])([H:10])[H:12].[C:2]12=[C:3]([H:11])[C@@:4]([H:13])([C:5]([H:14])([H:15])[C:6]1([H:16])[H:17])[O:7]2"
C        2.27040775       0.12468018       0.21211081
C        0.33144152      -0.09369271      -0.01196791
C       -0.24989436      -1.36662378       0.48357408
C       -1.10597194      -0.97038873      -0.73045767
C       -1.82697521       0.34844015      -0.30384612
C       -0.58113589       1.08915258       0.29295719
O        0.09020995      -0.37985215      -1.36530946
H        2.31094115       0.92202181      -0.52420002
H        3.04382536      -0.59976650      -0.06407874
H        2.45358563       0.50036787       1.21538296
H       -0.70657644      -1.31045199       1.47526500
H        1.45050062      -0.92227669       0.29790716
H       -1.63065931      -1.68882090      -1.35770261
H       -2.60484381       0.17023653       0.43869464
H       -2.26184262       0.87565512      -1.15407349
H       -0.32315999       1.99232723      -0.26017980
H       -0.65985241       1.30899198       1.35592397
17
Frame=5 idx=009657 GeodesicLength=0.6836266318447013 rxn_smarts="[C:1]([C@@:2]12[C:3]([H:11])([H:12])[C@@:4]([H:13])([C:5]([H:14])([H:15])[C:6]1([H:16])[H:17])[O:7]2)([H:8])([H:9])[H:10]>>[C:1]([H:8])([H:9])([H:10])[H:12].[C:2]12=[C:3]([H:11])[C@@:4]([H:13])([C:5]([H:14])([H:15])[C:6]1([H:16])[H:17])[O:7]2"
C        2.29341206       0.10445860       0.21505937
C        0.32430056      -0.06464319      -0.01032315
C       -0.24585041      -1.33515143       0.49638864
C       -1.10124021      -0.96721140      -0.72635955
C       -1.84297577       0.34263877      -0.30934710
C       -0.60692483       1.10605780       0.28255343
O        0.08368562      -0.36365684      -1.36369034
H        2.34376914       0.95238812      -0.46273459
H        3.05956685      -0.60306440      -0.11808065
H        2.50589865       0.41644271       1.23515075
H       -0.70053296      -1.28472530       1.48876209
H        1.45571925      -0.95562252       0.28052644
H       -1.61092504      -1.70461799      -1.34392070
H       -2.61797252       0.15973548       0.43525357
H       -2.28786182       0.85404857      -1.16400425
H       -0.36095574       2.00764701      -0.27838763
H       -0.69111280       1.33527601       1.34315368
17
Frame=6 idx=009657 GeodesicLength=0.8197275737321028 rxn_smarts="[C:1]([C@@:2]12[C:3]([H:11])([H:12])[C@@:4]([H:13])([C:5]([H:14])([H:15])[C:6]1([H:16])[H:17])[O:7]2)([H:8])([H:9])[H:10]>>[C:1]([H:8])([H:9])([H:10])[H:12].[C:2]12=[C:3]([H:11])[C@@:4]([H:13])([C:5]([H:14])([H:15])[C:6]1([H:16])[H:17])[O:7]2"
C        2.31631397       0.08328679       0.21783806
C        0.31708347      -0.03348751      -0.00887640
C       -0.24071538      -1.30178339       0.50944847
C       -1.09556237      -0.96359135      -0.72165013
C       -1.85910216       0.33634922      -0.31474031
C       -0.63388063       1.12390178       0.27137054
O        0.07725451      -0.34639641      -1.36201550
H        2.37829706       0.97972009      -0.39451123
H        3.07400917      -0.60294638      -0.17319637
H        2.55836886       0.32653341       1.25089964
H       -0.69318123      -1.25714956       1.50259756
H        1.46006663      -0.98983383       0.26189329
H       -1.58920805      -1.72028016      -1.32889527
H       -2.63083218       0.14844591       0.43222577
H       -2.31438161       0.83079815      -1.17387378
H       -0.40071401       2.02355827      -0.29791174
H       -0.72381607       1.36287496       1.32939740
17
Frame=7 idx=009657 GeodesicLength=0.9555175634555014 rxn_smarts="[C:1]([C@@:2]12[C:3]([H:11])([H:12])[C@@:4]([H:13])([C:5]([H:14])([H:15])[C:6]1([H:16])[H:17])[O:7]2)([H:8])([H:9])[H:10]>>[C:1]([H:8])([H:9])([H:10])[H:12].[C:2]12=[C:3]([H:11])[C@@:4]([H:13])([C:5]([H:14])([H:15])[C:6]1([H:16])[H:17])[O:7]2"
C        2.33900753       0.06115764       0.22048076
C        0.30977160      -0.00004355      -0.00772229
C       -0.23432359      -1.26635259       0.52263555
C       -1.08882823      -0.95940647      -0.71632465
C       -1.87527914       0.32953174      -0.31996206
C       -0.66204391       1.14266934       0.25939873
O        0.07092990      -0.32794559      -1.36031346
H        2.41446393       1.00278771      -0.31946769
H        3.08711001      -0.59900665      -0.22874712
H        2.61065475       0.23096374       1.26176022
H       -0.68433819      -1.22762778       1.51664079
H        1.46342394      -1.02491599       0.24217755
H       -1.56534263      -1.73561597      -1.31258812
H       -2.64327775       0.13627983       0.42969592
H       -2.34134473       0.80580149      -1.18355001
H       -0.44256405       2.04001074      -0.31873670
H       -0.75801944       1.39171236       1.31462258
17
Frame=8 idx=009657 GeodesicLength=1.0909681069802597 rxn_smarts="[C:1]([C@@:2]12[C:3]([H:11])([H:12])[C@@:4]([H:13])([C:5]([H:14])([H:15])[C:6]1([H:16])[H:17])[O:7]2)([H:8])([H:9])[H:10]>>[C:1]([H:8])([H:9])([H:10])[H:12].[C:2]12=[C:3]([H:11])[C@@:4]([H:13])([C:5]([H:14])([H:15])[C:6]1([H:16])[H:17])[O:7]2"
C        2.36139056       0.03803846       0.22304529
C        0.30233704       0.03588431      -0.00694202
C       -0.22649272      -1.22868052       0.53582939
C       -1.08088820      -0.95450677      -0.71038520
C       -1.89142245       0.32216197      -0.32494598
C       -0.69149033       1.16234298       0.24665287
O        0.06475825      -0.30815560      -1.35859854
H        2.45213352       1.02023340      -0.23784334
H        3.09889729      -0.59094093      -0.28399705
H        2.66236425       0.13021087       1.26692374
H       -0.67381896      -1.19606413       1.53075586
H        1.46569245      -1.06090866       0.22163348
H       -1.53909030      -1.75039220      -1.29498337
H       -2.65515741       0.12315720       0.42774128
H       -2.36867506       0.77897309      -1.19289965
H       -0.48670214       2.05695494      -0.34081156
H       -0.79383579       1.42169159       1.29882482
17
Frame=9 idx=009657 GeodesicLength=1.2260573142386515 rxn_smarts="[C:1]([C@@:2]12[C:3]([H:11])([H:12])[C@@:4]([H:13])([C:5]([H:14])([H:15])[C:6]1([H:16])[H:17])[O:7]2)([H:8])([H:9])[H:10]>>[C:1]([H:8])([H:9])([H:10])[H:12].[C:2]12=[C:3]([H:11])[C@@:4]([H:13])([C:5]([H:14])([H:15])[C:6]1([H:16])[H:17])[O:7]2"
C        2.38333840       0.01391977       0.22554876
C        0.29476302       0.07450825      -0.00659461
C       -0.21713466      -1.18863753       0.54889237
C       -1.07161898      -0.94879021      -0.70389044
C       -1.90740275       0.31417464      -0.32962697
C       -0.72222468       1.18291490       0.23321624
O        0.05883484      -0.28687169      -1.35691919
H        2.49121781       1.03082117      -0.15018214
H        3.10930254      -0.57863264      -0.33812979
H        2.71316350       0.02515619       1.26564034
H       -0.66156955      -1.16243715       1.54480950
H        1.46661965      -1.09790676       0.20064575
H       -1.51027892      -1.76445492      -1.27616776
H       -2.66631724       0.10891908       0.42644193
H       -2.39618041       0.75020695      -1.20180069
H       -0.53318428       2.07439516      -0.36399634
H       -0.83132828       1.45271480       1.28211305
17
Frame=10 idx=009657 GeodesicLength=1.3608399328403147 rxn_smarts="[C:1]([C@@:2]12[C:3]([H:11])([H:12])[C@@:4]([H:13])([C:5]([H:14])([H:15])[C:6]1([H:16])[H:17])[O:7]2)([H:8])([H:9])[H:10]>>[C:1]([H:8])([H:9])([H:10])[H:12].[C:2]12=[C:3]([H:11])[C@@:4]([H:13])([C:5]([H:14])([H:15])[C:6]1([H:16])[H:17])[O:7]2"
C        2.40475991      -0.01129604       0.22803962
C        0.28699914       0.11603953      -0.00671872
C       -0.20604781      -1.14604702       0.56169923
C       -1.06080089      -0.94204828      -0.69687712
C       -1.92310865       0.30557416      -0.33393993
C       -0.75437785       1.20435357       0.21916802
O        0.05326419      -0.26387921      -1.35526940
H        2.53136454       1.03316556      -0.05747876
H        3.11852335      -0.56216520      -0.39020670
H        2.76258724      -0.08334947       1.25731977
H       -0.64739945      -1.12669003       1.55866458
H        1.46611006      -1.13604989       0.17967263
H       -1.47854780      -1.77747200      -1.25621493
H       -2.67657527       0.09348657       0.42585863
H       -2.42373384       0.71947388      -1.21013069
H       -0.58232089       2.09228344      -0.38815507
H       -0.87069600       1.48462045       1.26456883
17
Frame=11 idx=009657 GeodesicLength=1.4953536064329978 rxn_smarts="[C:1]([C@@:2]12[C:3]([H:11])([H:12])[C@@:4]([H:13])([C:5]([H:14])([H:15])[C:6]1([H:16])[H:17])[O:7]2)([H:8])([H:9])[H:10]>>[C:1]([H:8])([H:9])([H:10])[H:12].[C:2]12=[C:3]([H:11])[C@@:4]([H:13])([C:5]([H:14])([H:15])[C:6]1([H:16])[H:17])[O:7]2"
C        2.42553429      -0.03769346       0.23049181
C        0.27900596       0.16069495      -0.00731125
C       -0.19314450      -1.10077463       0.57411887
C       -1.04824315      -0.93411957      -0.68943042
C       -1.93837675       0.29631611      -0.33783257
C       -0.78800050       1.22662072       0.20464576
O        0.04821167      -0.23896293      -1.35365182
H        2.57231037       1.02622310       0.03904547
H        3.12661889      -0.54185281      -0.43938815
H        2.81024898      -0.19414040       1.24153109
H       -0.63127518      -1.08882572       1.57218542
H        1.46387604      -1.17553641       0.15934868
H       -1.44361184      -1.78918755      -1.23528690
H       -2.68574873       0.07670204       0.42603175
H       -2.45107130       0.68671011      -1.21779175
H       -0.63424807       2.11059064      -0.41307264
H       -0.91208619       1.51723582       1.24636665
17
Frame=12 idx=009657 GeodesicLength=1.6296211092252169 rxn_smarts="[C:1]([C@@:2]12[C:3]([H:11])([H:12])[C@@:4]([H:13])([C:5]([H:14])([H:15])[C:6]1([H:16])[H:17])[O:7]2)([H:8])([H:9])[H:10]>>[C:1]([H:8])([H:9])([H:10])[H:12].[C:2]12=[C:3]([H:11])[C@@:4]([H:13])([C:5]([H:14])([H:15])[C:6]1([H:16])[H:17])[O:7]2"
C        2.44555974      -0.06539459       0.23285910
C        0.27071263       0.20866052      -0.00834065
C       -0.17831084      -1.05266401       0.58601572
C       -1.03372838      -0.92477508      -0.68162855
C       -1.95302453       0.28638331      -0.34126119
C       -0.82316928       1.24962271       0.18978888
O        0.04382796      -0.21188233      -1.35201073
H        2.61357195       1.00910352       0.13785584
H        3.13378455      -0.51821213      -0.48481133
H        2.85572264      -0.30605857       1.21805062
H       -0.61310402      -1.04882534       1.58520414
H        1.45965491      -1.21657281       0.14042715
H       -1.40513876      -1.79920976      -1.21356237
H       -2.69360019       0.05844750       0.42696351
H       -2.47792173       0.65188012      -1.22468638
H       -0.68917844       2.12919377      -0.43852117
H       -0.95565821       1.55030318       1.22765740
17
Frame=13 idx=009657 GeodesicLength=1.7636536770406945 rxn_smarts="[C:1]([C@@:2]12[C:3]([H:11])([H:12])[C@@:4]([H:13])([C:5]([H:14])([H:15])[C:6]1([H:16])[H:17])[O:7]2)([H:8])([H:9])[H:10]>>[C:1]([H:8])([H:9])([H:10])[H:12].[C:2]12=[C:3]([H:11])[C@@:4]([H:13])([C:5]([H:14])([H:15])[C:6]1([H:16])[H:17])[O:7]2"
C        2.46470370      -0.09450315       0.23498970
C        0.26204732       0.26008765      -0.00973469
C       -0.16150728      -1.00161519       0.59724532
C       -1.01705921      -0.91380608      -0.67359399
C       -1.96682905       0.27573819      -0.34420069
C       -0.85990415       1.27323196       0.17478298
O        0.04030539      -0.18239821      -1.35029036
H        2.65474773       0.98133261       0.23722827
H        3.14012739      -0.49204492      -0.52579656
H        2.89860718      -0.41771845       1.18689738
H       -0.59289211      -1.00673850       1.59754295
H        1.45302537      -1.25939869       0.12388959
H       -1.36285333      -1.80716473      -1.19130628
H       -2.69988401       0.03856931       0.42862398
H       -2.50391386       0.61496759      -1.23074336
H       -0.74718684       2.14794977      -0.46419722
H       -1.00153423       1.58351086       1.20866299
17
Frame=14 idx=009657 GeodesicLength=1.8975465557129665 rxn_smarts="[C:1]([C@@:2]12[C:3]([H:11])([H:12])[C@@:4]([H:13])([C:5]([H:14])([H:15])[C:6]1([H:16])[H:17])[O:7]2)([H:8])([H:9])[H:10]>>[C:1]([H:8])([H:9])([H:10])[H:12].[C:2]12=[C:3]([H:11])[C@@:4]([H:13])([C:5]([H:14])([H:15])[C:6]1([H:16])[H:17])[O:7]2"
C        2.48287388      -0.12512528       0.23670682
C        0.25289844       0.31507648      -0.01141707
C       -0.14269781      -0.94755526       0.60768278
C       -0.99804331      -0.90099209      -0.66544662
C       -1.97956550       0.26437566      -0.34663986
C       -0.89824027       1.29730279       0.15978973
O        0.03781929      -0.15028647      -1.34843839
H        2.69531400       0.94279174       0.33540930
H        3.14588829      -0.46417738      -0.56191810
H        2.93851698      -0.52804336       1.14834561
H       -0.57062811      -0.96261520       1.60905735
H        1.44358198      -1.30425967       0.11088223
H       -1.31649836      -1.81263575      -1.16879692
H       -2.70433154       0.01696906       0.43098173
H       -2.52867488       0.57598482      -1.23593177
H       -0.80837748       2.16666775      -0.48985402
H       -1.04983560       1.61652217       1.18958720
17
Frame=15 idx=009657 GeodesicLength=2.031314623791202 rxn_smarts="[C:1]([C@@:2]12[C:3]([H:11])([H:12])[C@@:4]([H:13])([C:5]([H:14])([H:15])[C:6]1([H:16])[H:17])[O:7]2)([H:8])([H:9])[H:10]>>[C:1]([H:8])([H:9])([H:10])[H:12].[C:2]12=[C:3]([H:11])[C@@:4]([H:13])([C:5]([H:14])([H:15])[C:6]1([H:16])[H:17])[O:7]2"
C        2.49993276      -0.15730855       0.23771121
C        0.24313991       0.37365714      -0.01329709
C       -0.12189323      -0.89047088       0.61716827
C       -0.97651668      -0.88612293      -0.65734634
C       -1.99096516       0.25227547      -0.34858618
C       -0.93814970       1.32162531       0.14499534
O        0.03653480      -0.11533043      -1.34639876
H        2.73485154       0.89374724       0.43064549
H        3.15119483      -0.43566027      -0.59296300
H        2.97504416      -0.63585057       1.10286812
H       -0.54633612      -0.91656369       1.61954664
H        1.43076906      -1.35132521       0.10280948
H       -1.26589016      -1.81520002      -1.14638177
H       -2.70662999      -0.00646928       0.43396204
H       -2.55175680       0.53498665      -1.24022150
H       -0.87271762       2.18510050      -0.51517086
H       -1.10061160       1.64890952       1.17065890
17
Frame=16 idx=009657 GeodesicLength=2.165033411992735 rxn_smarts="[C:1]([C@@:2]12[C:3]([H:11])([H:12])[C@@:4]([H:13])([C:5]([H:14])([H:15])[C:6]1([H:16])[H:17])[O:7]2)([H:8])([H:9])[H:10]>>[C:1]([H:8])([H:9])([H:10])[H:12].[C:2]12=[C:3]([H:11])[C@@:4]([H:13])([C:5]([H:14])([H:15])[C:6]1([H:16])[H:17])[O:7]2"
C        2.51579546      -0.19106319       0.23768687
C        0.23261385       0.43578998      -0.01530952
C       -0.09912970      -0.83038016       0.62555512
C       -0.95236756      -0.86900942      -0.64946011
C       -2.00077173       0.23942648      -0.35006515
C       -0.97958028       1.34596358       0.13054656
O        0.03656258      -0.07735035      -1.34415818
H        2.77293560       0.83475656       0.52144672
H        3.15627156      -0.40734044      -0.61901977
H        3.00784416      -0.74041706       1.05103833
H       -0.52003860      -0.86867013       1.62884410
H        1.41399990      -1.40063925       0.10127948
H       -1.21095922      -1.81444148      -1.12443347
H       -2.70646056      -0.03182347       0.43749808
H       -2.57273453       0.49202592      -1.24362538
H       -0.94013773       2.20294552      -0.53990459
H       -1.15384319       1.68022691       1.15208091
