17
Frame=0 idx=011063 GeodesicLength=0.0 rxn_smarts="[C:1]([C:2]([C@@:3]1([H:13])[O:4][C@@:5]2([H:14])[C:6]([H:15])([H:16])[C@@:7]12[H:17])([H:11])[H:12])([H:8])([H:9])[H:10]>>[C:1]([C:2]([C@@:3]([O:4][H:16])([C:7]1([H:17])[C:5]([H:14])=[C:6]1[H:15])[H:13])([H:11])[H:12])([H:8])([H:9])[H:10]"
C        2.26659477      -0.31238995      -0.11103246
C        1.23497054       0.79053177       0.08839555
C       -0.07211024       0.31790820       0.70823187
O       -0.95266123       1.31146004       0.94676254
C       -2.25310945      -0.54004730       0.31821101
C       -1.97723793       0.08016088      -0.89966764
C       -0.90784631      -0.72551225      -0.10902957
H        1.91689530      -1.06932140      -0.81784226
H        2.49423721      -0.81722282       0.83146946
H        3.20296729       0.08763372      -0.50321529
H        1.00314989       1.27660207      -0.86484724
H        1.62846152       1.57145010       0.74428166
H        0.15467003      -0.27278265       1.61465759
H       -3.05667371      -1.00456347       0.86865940
H       -2.51387050      -0.11725761      -1.81825294
H       -1.64145388       1.13298523      -0.64031100
H       -0.52698338      -1.70963460      -0.35647065
17
Frame=1 idx=011063 GeodesicLength=0.08425890942148255 rxn_smarts="[C:1]([C:2]([C@@:3]1([H:13])[O:4][C@@:5]2([H:14])[C:6]([H:15])([H:16])[C@@:7]12[H:17])([H:11])[H:12])([H:8])([H:9])[H:10]>>[C:1]([C:2]([C@@:3]([O:4][H:16])([C:7]1([H:17])[C:5]([H:14])=[C:6]1[H:15])[H:13])([H:11])[H:12])([H:8])([H:9])[H:10]"
C        2.26624524      -0.30983257      -0.11380273
C        1.23033070       0.78841665       0.08901918
C       -0.07199962       0.30711065       0.71116010
O       -0.96449308       1.29848886       0.94576240
C       -2.25167160      -0.52915743       0.32083224
C       -1.97072010       0.07529885      -0.90381710
C       -0.90592052      -0.73033100      -0.11172445
H        1.91799554      -1.06735815      -0.82061144
H        2.49833998      -0.81467685       0.82758939
H        3.19985981       0.09487499      -0.50770643
H        0.99477850       1.27391573      -0.86360636
H        1.62152378       1.57050435       0.74489193
H        0.15762360      -0.27706687       1.62006970
H       -3.06028335      -0.98213020       0.87309925
H       -2.50108761      -0.12673670      -1.82471245
H       -1.63038593       1.14596370      -0.63184633
H       -0.53013535      -1.71728400      -0.35459691
17
Frame=2 idx=011063 GeodesicLength=0.16851085418607936 rxn_smarts="[C:1]([C:2]([C@@:3]1([H:13])[O:4][C@@:5]2([H:14])[C:6]([H:15])([H:16])[C@@:7]12[H:17])([H:11])[H:12])([H:8])([H:9])[H:10]>>[C:1]([C:2]([C@@:3]([O:4][H:16])([C:7]1([H:17])[C:5]([H:14])=[C:6]1[H:15])[H:13])([H:11])[H:12])([H:8])([H:9])[H:10]"
C        2.26583529      -0.30733835      -0.11653012
C        1.22571148       0.78628488       0.08960612
C       -0.07189980       0.29643474       0.71397335
O       -0.97610173       1.28573348       0.94480803
C       -2.25018522      -0.51841681       0.32331257
C       -1.96440634       0.07024838      -0.90790822
C       -0.90401617      -0.73505449      -0.11438892
H        1.91905452      -1.06541682      -0.82338813
H        2.50225861      -0.81220173       0.82375728
H        3.19672991       0.10198310      -0.51205605
H        0.98651574       1.27119029      -0.86242078
H        1.61465666       1.56952238       0.74545139
H        0.16051518      -0.28104680       1.62545106
H       -3.06364962      -0.96007776       0.87721258
H       -2.48854956      -0.13639365      -1.83102065
H       -1.61925567       1.15928652      -0.62307424
H       -0.53321329      -1.72473736      -0.35278528
17
Frame=3 idx=011063 GeodesicLength=0.25275466058437596 rxn_smarts="[C:1]([C:2]([C@@:3]1([H:13])[O:4][C@@:5]2([H:14])[C:6]([H:15])([H:16])[C@@:7]12[H:17])([H:11])[H:12])([H:8])([H:9])[H:10]>>[C:1]([C:2]([C@@:3]([O:4][H:16])([C:7]1([H:17])[C:5]([H:14])=[C:6]1[H:15])[H:13])([H:11])[H:12])([H:8])([H:9])[H:10]"
C        2.26536780      -0.30490497      -0.11921761
C        1.22111232       0.78413591       0.09015574
C       -0.07181032       0.28587508       0.71667383
O       -0.98749635       1.27318895       0.94389934
C       -2.24865651      -0.50781548       0.32565342
C       -1.95829425       0.06500016      -0.91194821
C       -0.90213169      -0.73968493      -0.11702379
H        1.92007501      -1.06349351      -0.82617522
H        2.50599831      -0.80979855       0.81996778
H        3.19358068       0.10896345      -0.51626708
H        0.97835833       1.26842552      -0.86128955
H        1.60785782       1.56850388       0.74595828
H        0.16334460      -0.28472611       1.63079858
H       -3.06678698      -0.93840502       0.88100150
H       -2.47625121      -0.14623411      -1.83718681
H       -1.60804895       1.17297300      -0.61397794
H       -0.53621860      -1.73200325      -0.35102228
17
Frame=4 idx=011063 GeodesicLength=0.3369967766681613 rxn_smarts="[C:1]([C:2]([C@@:3]1([H:13])[O:4][C@@:5]2([H:14])[C:6]([H:15])([H:16])[C@@:7]12[H:17])([H:11])[H:12])([H:8])([H:9])[H:10]>>[C:1]([C:2]([C@@:3]([O:4][H:16])([C:7]1([H:17])[C:5]([H:14])=[C:6]1[H:15])[H:13])([H:11])[H:12])([H:8])([H:9])[H:10]"
C        2.26484313      -0.30252248      -0.12188220
C        1.21652456       0.78196783       0.09067561
C       -0.07173116       0.27541047       0.71927712
O       -0.99868952       1.26083058       0.94305801
C       -2.24709782      -0.49734563       0.32783868
C       -1.95235940       0.05954039      -0.91595758
C       -0.90026698      -0.74424135      -0.11961859
H        1.92104829      -1.06158463      -0.82897840
H        2.50959120      -0.80744794       0.81620262
H        3.19039562       0.11583909      -0.52038577
H        0.97028317       1.26562800      -0.86019863
H        1.60111487       1.56744564       0.74642513
H        0.16612009      -0.28813149       1.63611846
H       -3.06974430      -0.91702585       0.88447463
H       -2.46412623      -0.15628764      -1.84325297
H       -1.59674405       1.18703852      -0.60452423
H       -0.53916146      -1.73911352      -0.34927189
17
Frame=5 idx=011063 GeodesicLength=0.42123921074167203 rxn_smarts="[C:1]([C:2]([C@@:3]1([H:13])[O:4][C@@:5]2([H:14])[C:6]([H:15])([H:16])[C@@:7]12[H:17])([H:11])[H:12])([H:8])([H:9])[H:10]>>[C:1]([C:2]([C@@:3]([O:4][H:16])([C:7]1([H:17])[C:5]([H:14])=[C:6]1[H:15])[H:13])([H:11])[H:12])([H:8])([H:9])[H:10]"
C        2.26426429      -0.30018999      -0.12452576
C        1.21194800       0.77978135       0.09116409
C       -0.07166205       0.26503677       0.72178517
O       -1.00968933       1.24865648       0.94228560
C       -2.24551452      -0.48699880       0.32986955
C       -1.94660156       0.05386050      -0.91994392
C       -0.89842108      -0.74872699      -0.12217588
H        1.92197688      -1.05969302      -0.83179704
H        2.51304361      -0.80514779       0.81246208
H        3.18717709       0.12261323      -0.52441767
H        0.96228850       1.26279876      -0.85915095
H        1.59442513       1.56635132       0.74685022
H        0.16884113      -0.29126762       1.64140891
H       -3.07253258      -0.89594350       0.88763249
H       -2.45217288      -0.16656056      -1.84922871
H       -1.58532626       1.20150815      -0.59469107
H       -0.54204437      -1.74607828      -0.34752711
17
Frame=6 idx=011063 GeodesicLength=0.5054812719745962 rxn_smarts="[C:1]([C:2]([C@@:3]1([H:13])[O:4][C@@:5]2([H:14])[C:6]([H:15])([H:16])[C@@:7]12[H:17])([H:11])[H:12])([H:8])([H:9])[H:10]>>[C:1]([C:2]([C@@:3]([O:4][H:16])([C:7]1([H:17])[C:5]([H:14])=[C:6]1[H:15])[H:13])([H:11])[H:12])([H:8])([H:9])[H:10]"
C        2.26363404      -0.29790548      -0.12714995
C        1.20738142       0.77757565       0.09161926
C       -0.07160243       0.25474816       0.72419916
O       -1.02050358       1.23666003       0.94158502
C       -2.24391162      -0.47676579       0.33174245
C       -1.94101851       0.04795123      -0.92391635
C       -0.89659288      -0.75314524      -0.12469826
H        1.92286285      -1.05782062      -0.83462755
H        2.51636416      -0.80289196       0.80874578
H        3.18392561       0.12928976      -0.52836977
H        0.95436986       1.25993586      -0.85814831
H        1.58778473       1.56522252       0.74723004
H        0.17150865      -0.29414068       1.64666584
H       -3.07516279      -0.87515207       0.89047433
H       -2.44038677      -0.17706079      -1.85512429
H       -1.57378267       1.21640592      -0.58444871
H       -0.54487006      -1.75290649      -0.34577869
17
Frame=7 idx=011063 GeodesicLength=0.5897248685403063 rxn_smarts="[C:1]([C:2]([C@@:3]1([H:13])[O:4][C@@:5]2([H:14])[C:6]([H:15])([H:16])[C@@:7]12[H:17])([H:11])[H:12])([H:8])([H:9])[H:10]>>[C:1]([C:2]([C@@:3]([O:4][H:16])([C:7]1([H:17])[C:5]([H:14])=[C:6]1[H:15])[H:13])([H:11])[H:12])([H:8])([H:9])[H:10]"
C        2.26295453      -0.29566742      -0.12975831
C        1.20282323       0.77535111       0.09203963
C       -0.07155241       0.24453957       0.72652195
O       -1.03114095       1.22483633       0.94096086
C       -2.24229445      -0.46663753       0.33345342
C       -1.93560642       0.04180228      -0.92788555
C       -0.89478113      -0.75750124      -0.12718677
H        1.92370769      -1.05596968      -0.83747028
H        2.51956037      -0.80067703       0.80505188
H        3.18064124       0.13587292      -0.53225144
H        0.94652242       1.25704018      -0.85719290
H        1.58118962       1.56406252       0.74756281
H        0.17412272      -0.29675669       1.65188829
H       -3.07764770      -0.85464418       0.89299958
H       -2.42875901      -0.18779926      -1.86095360
H       -1.56209876       1.23175878      -0.57376514
H       -0.54764099      -1.75961065      -0.34401443
17
Frame=8 idx=011063 GeodesicLength=0.6739652382171664 rxn_smarts="[C:1]([C:2]([C@@:3]1([H:13])[O:4][C@@:5]2([H:14])[C:6]([H:15])([H:16])[C@@:7]12[H:17])([H:11])[H:12])([H:8])([H:9])[H:10]>>[C:1]([C:2]([C@@:3]([O:4][H:16])([C:7]1([H:17])[C:5]([H:14])=[C:6]1[H:15])[H:13])([H:11])[H:12])([H:8])([H:9])[H:10]"
C        2.26222702      -0.29347416      -0.13235149
C        1.19827274       0.77310650       0.09242320
C       -0.07151120       0.23440747       0.72875244
O       -1.04160776       1.21318163       0.94040954
C       -2.24066635      -0.45660426       0.33499897
C       -1.93036695       0.03540226      -0.93185616
C       -0.89298524      -0.76179556      -0.12964405
H        1.92451173      -1.05413988      -0.84032264
H        2.52263671      -0.79849918       0.80137953
H        3.17732425       0.14236522      -0.53606414
H        0.93874289       1.25410908      -0.85628581
H        1.57463765       1.56287073       0.74784507
H        0.17668439      -0.29911811       1.65706840
H       -3.07999463      -0.83442301       0.89520359
H       -2.41728881      -0.19878610      -1.86672109
H       -1.55025594       1.24759090      -0.56260921
H       -0.55036049      -1.76619353      -0.34222616
17
Frame=9 idx=011063 GeodesicLength=0.7582124584842349 rxn_smarts="[C:1]([C:2]([C@@:3]1([H:13])[O:4][C@@:5]2([H:14])[C:6]([H:15])([H:16])[C@@:7]12[H:17])([H:11])[H:12])([H:8])([H:9])[H:10]>>[C:1]([C:2]([C@@:3]([O:4][H:16])([C:7]1([H:17])[C:5]([H:14])=[C:6]1[H:15])[H:13])([H:11])[H:12])([H:8])([H:9])[H:10]"
C        2.26144691      -0.29131616      -0.13495019
C        1.19372208       0.77084034       0.09277833
C       -0.07148040       0.22433745       0.73090467
O       -1.05191580       1.20167215       0.93994535
C       -2.23903684      -0.44665394       0.33636149
C       -1.92527368       0.02872857      -0.93584844
C       -0.89120340      -0.76604714      -0.13205308
H        1.92526538      -1.05230999      -0.84321152
H        2.52560156      -0.79636085       0.79769583
H        3.17396082       0.14878853      -0.53983777
H        0.93101037       1.25115127      -0.85540803
H        1.56812115       1.56164026       0.74808861
H        0.17919707      -0.30123798       1.66221444
H       -3.08224246      -0.81440124       0.89707953
H       -2.40590773      -0.21006812      -1.87246203
H       -1.53823061       1.26392138      -0.55093303
H       -0.55303444      -1.77268452      -0.34036417
17
Frame=10 idx=011063 GeodesicLength=0.8424676312510294 rxn_smarts="[C:1]([C:2]([C@@:3]1([H:13])[O:4][C@@:5]2([H:14])[C:6]([H:15])([H:16])[C@@:7]12[H:17])([H:11])[H:12])([H:8])([H:9])[H:10]>>[C:1]([C:2]([C@@:3]([O:4][H:16])([C:7]1([H:17])[C:5]([H:14])=[C:6]1[H:15])[H:13])([H:11])[H:12])([H:8])([H:9])[H:10]"
C        2.26061630      -0.28919492      -0.13755627
C        1.18916977       0.76855515       0.09310078
C       -0.07146043       0.21432798       0.73298145
O       -1.06207297       1.19031290       0.93957276
C       -2.23740976      -0.43677831       0.33753778
C       -1.92032682       0.02177175      -0.93987075
C       -0.88943525      -0.77026030      -0.13441698
H        1.92597048      -1.05049227      -0.84613453
H        2.52846277      -0.79425826       0.79400666
H        3.17055091       0.15514356      -0.54358249
H        0.92332112       1.24816775      -0.85457013
H        1.56163558       1.56038089       0.74828964
H        0.18165990      -0.30312135       1.66732729
H       -3.08440068      -0.79459189       0.89862163
H       -2.39461129      -0.22165388      -1.87818882
H       -1.52600298       1.28078756      -0.53869610
H       -0.55566664      -1.77909637      -0.33842194
17
Frame=11 idx=011063 GeodesicLength=0.9267303245014008 rxn_smarts="[C:1]([C:2]([C@@:3]1([H:13])[O:4][C@@:5]2([H:14])[C:6]([H:15])([H:16])[C@@:7]12[H:17])([H:11])[H:12])([H:8])([H:9])[H:10]>>[C:1]([C:2]([C@@:3]([O:4][H:16])([C:7]1([H:17])[C:5]([H:14])=[C:6]1[H:15])[H:13])([H:11])[H:12])([H:8])([H:9])[H:10]"
C        2.25973598      -0.28710782      -0.14017109
C        1.18461332       0.76624746       0.09338647
C       -0.07145132       0.20437467       0.73498090
O       -1.07208588       1.17909439       0.93929019
C       -2.23578892      -0.42696534       0.33851861
C       -1.91552409       0.01451895      -0.94392826
C       -0.88768026      -0.77443604      -0.13673637
H        1.92662633      -1.04868823      -0.84908327
H        2.53122888      -0.79217968       0.79031015
H        3.16709201       0.16143282      -0.54730487
H        0.91566797       1.24514967      -0.85377417
H        1.55517650       1.55909008       0.74843912
H        0.18407428      -0.30477163       1.67239554
H       -3.08647873      -0.77499181       0.89981339
H       -2.38339124      -0.23355637      -1.88390467
H       -1.51355380       1.29821980      -0.52584584
H       -0.55826103      -1.78543092      -0.33638582
17
Frame=12 idx=011063 GeodesicLength=1.0109948698055695 rxn_smarts="[C:1]([C:2]([C@@:3]1([H:13])[O:4][C@@:5]2([H:14])[C:6]([H:15])([H:16])[C@@:7]12[H:17])([H:11])[H:12])([H:8])([H:9])[H:10]>>[C:1]([C:2]([C@@:3]([O:4][H:16])([C:7]1([H:17])[C:5]([H:14])=[C:6]1[H:15])[H:13])([H:11])[H:12])([H:8])([H:9])[H:10]"
C        2.25880905      -0.28505814      -0.14278872
C        1.18005532       0.76391975       0.09362641
C       -0.07145332       0.19448319       0.73689643
O       -1.08196104       1.16802026       0.93909388
C       -2.23417495      -0.41720351       0.33929944
C       -1.91087550       0.00695917      -0.94803160
C       -0.88593730      -0.77857179      -0.13902165
H        1.92723901      -1.04690735      -0.85204841
H        2.53389459      -0.79012496       0.78661899
H        3.16359387       0.16764639      -0.55099444
H        0.90805646       1.24209475      -0.85303445
H        1.54874474       1.55777662       0.74852445
H        0.18643598      -0.30618355       1.67741237
H       -3.08846314      -0.75563884       0.90065223
H       -2.37227897      -0.24577980      -1.88961182
H       -1.50086893       1.31625661      -0.51233264
H       -0.56081587      -1.79168880      -0.33426048
17
Frame=13 idx=011063 GeodesicLength=1.0952568847069764 rxn_smarts="[C:1]([C:2]([C@@:3]1([H:13])[O:4][C@@:5]2([H:14])[C:6]([H:15])([H:16])[C@@:7]12[H:17])([H:11])[H:12])([H:8])([H:9])[H:10]>>[C:1]([C:2]([C@@:3]([O:4][H:16])([C:7]1([H:17])[C:5]([H:14])=[C:6]1[H:15])[H:13])([H:11])[H:12])([H:8])([H:9])[H:10]"
C        2.25783824      -0.28304880      -0.14540255
C        1.17549745       0.76157311       0.09381136
C       -0.07146780       0.18465896       0.73871882
O       -1.09170543       1.15709421       0.93897467
C       -2.23256844      -0.40748105       0.33987414
C       -1.90639201      -0.00092076      -0.95218838
C       -0.88420531      -0.78266262      -0.14128402
H        1.92781518      -1.04515704      -0.85501989
H        2.53645344      -0.78809388       0.78294475
H        3.16006636       0.17377461      -0.55463743
H        0.90049128       1.23899891      -0.85236356
H        1.54233965       1.55644593       0.74853202
H        0.18874004      -0.30735198       1.68236418
H       -3.09033999      -0.73656984       0.90113866
H       -2.36130344      -0.25833106      -1.89530890
H       -1.48793079       1.33493674      -0.49810249
H       -0.56332843      -1.79786543      -0.33205138
17
Frame=14 idx=011063 GeodesicLength=1.179521920308317 rxn_smarts="[C:1]([C:2]([C@@:3]1([H:13])[O:4][C@@:5]2([H:14])[C:6]([H:15])([H:16])[C@@:7]12[H:17])([H:11])[H:12])([H:8])([H:9])[H:10]>>[C:1]([C:2]([C@@:3]([O:4][H:16])([C:7]1([H:17])[C:5]([H:14])=[C:6]1[H:15])[H:13])([H:11])[H:12])([H:8])([H:9])[H:10]"
C        2.25681728      -0.28107338      -0.14802976
C        1.17093089       0.75920490       0.09394361
C       -0.07149565       0.17489174       0.74046073
O       -1.10132692       1.14630076       0.93894360
C       -2.23097647      -0.39778376       0.34022148
C       -1.90205031      -0.00914413      -0.95641371
C       -0.88248433      -0.78672449      -0.14350740
H        1.92834383      -1.04342710      -0.85801663
H        2.53891651      -0.78607983       0.77926488
H        3.15649283       0.17983559      -0.55826138
H        0.89294885       1.23585930      -0.85175497
H        1.53595299       1.55509661       0.74846242
H        0.19099071      -0.30828716       1.68725642
H       -3.09214511      -0.71772747       0.90124492
H       -2.35040451      -0.27125014      -1.90102346
H       -1.47470313       1.35429332      -0.48307871
H       -0.56580745      -1.80398476      -0.32971205
17
Frame=15 idx=011063 GeodesicLength=1.2637863903414808 rxn_smarts="[C:1]([C:2]([C@@:3]1([H:13])[O:4][C@@:5]2([H:14])[C:6]([H:15])([H:16])[C@@:7]12[H:17])([H:11])[H:12])([H:8])([H:9])[H:10]>>[C:1]([C:2]([C@@:3]([O:4][H:16])([C:7]1([H:17])[C:5]([H:14])=[C:6]1[H:15])[H:13])([H:11])[H:12])([H:8])([H:9])[H:10]"
C        2.25574825      -0.27913390      -0.15066746
C        1.16635666       0.75681798       0.09401465
C       -0.07153968       0.16518776       0.74211338
O       -1.11083576       1.13564353       0.93899094
C       -2.22940057      -0.38809771       0.34033067
C       -1.89785918      -0.01772797      -0.96071797
C       -0.88077294      -0.79075461      -0.14570057
H        1.92882917      -1.04172401      -0.86103121
H        2.54127647      -0.78408608       0.77558556
H        3.15288206       0.18581943      -0.56185977
H        0.88543170       1.23267835      -0.85121825
H        1.52958360       1.55373317       0.74830562
H        0.19318204      -0.30898273       1.69207709
H       -3.09386805      -0.69914016       0.90096890
H       -2.33959977      -0.28455558      -1.90675883
H       -1.46116327       1.37436796      -0.46719239
H       -0.56825072      -1.81004544      -0.32724037
17
Frame=16 idx=011063 GeodesicLength=1.3480514998600988 rxn_smarts="[C:1]([C:2]([C@@:3]1([H:13])[O:4][C@@:5]2([H:14])[C:6]([H:15])([H:16])[C@@:7]12[H:17])([H:11])[H:12])([H:8])([H:9])[H:10]>>[C:1]([C:2]([C@@:3]([O:4][H:16])([C:7]1([H:17])[C:5]([H:14])=[C:6]1[H:15])[H:13])([H:11])[H:12])([H:8])([H:9])[H:10]"
C        2.25462694      -0.27722785      -0.15332463
C        1.16177030       0.75441334       0.09402127
C       -0.07160188       0.15554603       0.74367991
O       -1.12024015       1.12511760       0.93911656
C       -2.22784462      -0.37840804       0.34018221
C       -1.89380914      -0.02669634      -0.96511547
C       -0.87907081      -0.79476166      -0.14785792
H        1.92926443      -1.04004540      -0.86407233
H        2.54353322      -0.78211184       0.77189663
H        3.14922781       0.19173111      -0.56544509
H        0.87792715       1.22945694      -0.85075499
H        1.52322748       1.55235855       0.74805710
H        0.19531309      -0.30943949       1.69682464
H       -3.09552260      -0.68079106       0.90029033
H       -2.32886322      -0.29828231      -1.91253298
H       -1.44727522       1.39520163      -0.45035763
H       -0.57066277      -1.81606123      -0.32460761
