11
Frame=0 idx=002681 GeodesicLength=0.0 rxn_smarts="[O:1]=[C:2]([C:3]1([H:7])[C:4]([H:8])([H:9])[C:5]1([H:10])[H:11])[H:6]>>[O:1]=[C:2]=[C:3]([C:5]([C:4]([H:6])([H:8])[H:9])([H:10])[H:11])[H:7]"
O        2.58554588       0.26514606       0.15312030
C        1.42902426      -0.04927703      -0.00046165
C        0.40739646      -0.53031549       0.81896996
C       -0.66731451       0.72265495      -0.62821221
C       -0.93083504      -0.48493552       0.15186070
H        0.94380816       0.05113645      -1.06679868
H        0.55421396      -0.77719734       1.86483308
H       -0.62854628       1.66480999      -0.10005521
H       -0.77001587       0.78290848      -1.70561419
H       -1.67921476      -0.28133123       0.92478011
H       -1.24406223      -1.36359937      -0.41242224
11
Frame=1 idx=002681 GeodesicLength=0.09190092852593724 rxn_smarts="[O:1]=[C:2]([C:3]1([H:7])[C:4]([H:8])([H:9])[C:5]1([H:10])[H:11])[H:6]>>[O:1]=[C:2]=[C:3]([C:5]([C:4]([H:6])([H:8])[H:9])([H:10])[H:11])[H:7]"
O        2.61115118       0.19535080       0.14483192
C        1.44341831      -0.07057876      -0.00264070
C        0.40624369      -0.51021378       0.82047036
C       -0.66397948       0.72718094      -0.61601357
C       -0.92922702      -0.49406414       0.14608933
H        0.93182679       0.07263133      -1.07865146
H        0.54123969      -0.69705597       1.88011575
H       -0.65050715       1.66545129      -0.07926545
H       -0.78939435       0.79808626      -1.69035636
H       -1.69213087      -0.31336793       0.90942170
H       -1.20864078      -1.37342004      -0.43400151
11
Frame=2 idx=002681 GeodesicLength=0.18372064886174305 rxn_smarts="[O:1]=[C:2]([C:3]1([H:7])[C:4]([H:8])([H:9])[C:5]1([H:10])[H:11])[H:6]>>[O:1]=[C:2]=[C:3]([C:5]([C:4]([H:6])([H:8])[H:9])([H:10])[H:11])[H:7]"
O        2.63453781       0.12350840       0.13826888
C        1.45744731      -0.09172156      -0.00379398
C        0.40535573      -0.48981521       0.82154628
C       -0.66101526       0.73144026      -0.60436650
C       -0.92716343      -0.50275790       0.14069845
H        0.92110044       0.09704882      -1.08902263
H        0.52929007      -0.61835557       1.89097448
H       -0.67421629       1.66563134      -0.06001608
H       -0.80867576       0.81146088      -1.67525501
H       -1.70313947      -0.34446072       0.89474813
H       -1.17352114      -1.38197875      -0.45378201
11
Frame=3 idx=002681 GeodesicLength=0.2754078958265137 rxn_smarts="[O:1]=[C:2]([C:3]1([H:7])[C:4]([H:8])([H:9])[C:5]1([H:10])[H:11])[H:6]>>[O:1]=[C:2]=[C:3]([C:5]([C:4]([H:6])([H:8])[H:9])([H:10])[H:11])[H:7]"
O        2.65524565       0.05085432       0.13342269
C        1.47111713      -0.11311090      -0.00405915
C        0.40471691      -0.46942475       0.82211015
C       -0.65830402       0.73549548      -0.59325493
C       -0.92472057      -0.51099810       0.13568151
H        0.91152824       0.12387106      -1.09796088
H        0.51859260      -0.54141180       1.89771849
H       -0.69920638       1.66531665      -0.04224313
H       -0.82764121       0.82317538      -1.66037369
H       -1.71230275      -0.37450347       0.88087954
H       -1.13902561      -1.38926386      -0.47192057
11
Frame=4 idx=002681 GeodesicLength=0.36703448828664387 rxn_smarts="[O:1]=[C:2]([C:3]1([H:7])[C:4]([H:8])([H:9])[C:5]1([H:10])[H:11])[H:6]>>[O:1]=[C:2]=[C:3]([C:5]([C:4]([H:6])([H:8])[H:9])([H:10])[H:11])[H:7]"
O        2.67326981      -0.02237897       0.13021141
C        1.48445607      -0.13479871      -0.00354204
C        0.40438974      -0.44919092       0.82209146
C       -0.65583470       0.73940611      -0.58262435
C       -0.92191500      -0.51882215       0.13099830
H        0.90303691       0.15291284      -1.10550069
H        0.50914363      -0.46602742       1.90065721
H       -0.72535935       1.66443096      -0.02579377
H       -0.84625124       0.83340144      -1.64572020
H       -1.71971171      -0.40360362       0.86785921
H       -1.10522417      -1.39532957      -0.48863654
11
Frame=5 idx=002681 GeodesicLength=0.4585653357428596 rxn_smarts="[O:1]=[C:2]([C:3]1([H:7])[C:4]([H:8])([H:9])[C:5]1([H:10])[H:11])[H:6]>>[O:1]=[C:2]=[C:3]([C:5]([C:4]([H:6])([H:8])[H:9])([H:10])[H:11])[H:7]"
O        2.68855482      -0.09574258       0.12865094
C        1.49744289      -0.15656900      -0.00227254
C        0.40439852      -0.42901501       0.82145642
C       -0.65359342       0.74323495      -0.57252909
C       -0.91877260      -0.52614831       0.12668450
H        0.89549358       0.18389621      -1.11169708
H        0.50105737      -0.39295136       1.90003406
H       -0.75253897       1.66301051      -0.01076719
H       -0.86442946       0.84211340      -1.63141765
H       -1.72541616      -0.43161128       0.85579273
H       -1.07219656      -1.40021754      -0.50393509
11
Frame=6 idx=002681 GeodesicLength=0.5500421185278815 rxn_smarts="[O:1]=[C:2]([C:3]1([H:7])[C:4]([H:8])([H:9])[C:5]1([H:10])[H:11])[H:6]>>[O:1]=[C:2]=[C:3]([C:5]([C:4]([H:6])([H:8])[H:9])([H:10])[H:11])[H:7]"
O        2.70116020      -0.16847564       0.12877459
C        1.51011015      -0.17850972      -0.00033115
C        0.40476335      -0.40896780       0.82017042
C       -0.65153908       0.74703297      -0.56298753
C       -0.91537013      -0.53293377       0.12274360
H        0.88873938       0.21638005      -1.11669919
H        0.49442957      -0.32262391       1.89620880
H       -0.78048512       1.66104474       0.00284480
H       -0.88214125       0.84942433      -1.61754784
H       -1.72956544      -0.45843511       0.84474258
H       -1.04010165      -1.40393615      -0.51791908
11
Frame=7 idx=002681 GeodesicLength=0.6413919008400383 rxn_smarts="[O:1]=[C:2]([C:3]1([H:7])[C:4]([H:8])([H:9])[C:5]1([H:10])[H:11])[H:6]>>[O:1]=[C:2]=[C:3]([C:5]([C:4]([H:6])([H:8])[H:9])([H:10])[H:11])[H:7]"
O        2.71110219      -0.24004165       0.13048019
C        1.52238025      -0.20067641       0.00227722
C        0.40544654      -0.38919619       0.81819984
C       -0.64960963       0.75082820      -0.55392626
C       -0.91173756      -0.53922362       0.11913022
H        0.88254086       0.24995351      -1.12060516
H        0.48929664      -0.25495949       1.88945387
H       -0.80884729       1.65851744       0.01517394
H       -0.89928564       0.85550304      -1.60404660
H       -1.73226705      -0.48414656       0.83463910
H       -1.00901932      -1.40655826      -0.53077637
11
Frame=8 idx=002681 GeodesicLength=0.7327100562758602 rxn_smarts="[O:1]=[C:2]([C:3]1([H:7])[C:4]([H:8])([H:9])[C:5]1([H:10])[H:11])[H:6]>>[O:1]=[C:2]=[C:3]([C:5]([C:4]([H:6])([H:8])[H:9])([H:10])[H:11])[H:7]"
O        2.71869994      -0.30988115       0.13395712
C        1.53434547      -0.22304988       0.00544463
C        0.40651573      -0.36982422       0.81547564
C       -0.64777392       0.75466549      -0.54532440
C       -0.90795882      -0.54501577       0.11582469
H        0.87667485       0.28412842      -1.12376555
H        0.48557629      -0.19013260       1.88007541
H       -0.83736914       1.65542740       0.02635215
H       -0.91593266       0.86052698      -1.59093575
H       -1.73366976      -0.50871161       0.82554400
H       -0.97910797      -1.40813306      -0.54264793
11
Frame=9 idx=002681 GeodesicLength=0.8240256311467105 rxn_smarts="[O:1]=[C:2]([C:3]1([H:7])[C:4]([H:8])([H:9])[C:5]1([H:10])[H:11])[H:6]>>[O:1]=[C:2]=[C:3]([C:5]([C:4]([H:6])([H:8])[H:9])([H:10])[H:11])[H:7]"
O        2.72410204      -0.37853605       0.13910739
C        1.54604384      -0.24532184       0.00923249
C        0.40800126      -0.35071375       0.81200582
C       -0.64606964       0.75860647      -0.53712255
C       -0.90396571      -0.55034798       0.11277298
H        0.87091995       0.31884155      -1.12635453
H        0.48316314      -0.12785181       1.86833525
H       -0.86611252       1.65176004       0.03651305
H       -0.93217272       0.86465507      -1.57814612
H       -1.73380743      -0.53234448       0.81735099
H       -0.95010222      -1.40874720      -0.55369478
11
Frame=10 idx=002681 GeodesicLength=0.9152339660560245 rxn_smarts="[O:1]=[C:2]([C:3]1([H:7])[C:4]([H:8])([H:9])[C:5]1([H:10])[H:11])[H:6]>>[O:1]=[C:2]=[C:3]([C:5]([C:4]([H:6])([H:8])[H:9])([H:10])[H:11])[H:7]"
O        2.72757057      -0.44477116       0.14606623
C        1.55743545      -0.26775379       0.01364113
C        0.40983525      -0.33209004       0.80776513
C       -0.64440813       0.76264003      -0.52929731
C       -0.89988370      -0.55522597       0.10995635
H        0.86497941       0.35344015      -1.12874327
H        0.48207503      -0.06850998       1.85449501
H       -0.89442469       1.64759233       0.04574828
H       -0.94800352       0.86802983      -1.56563061
H       -1.73287386      -0.55491288       0.81001838
H       -0.92230181      -1.40843853      -0.56401931
11
Frame=11 idx=002681 GeodesicLength=1.0063680279273297 rxn_smarts="[O:1]=[C:2]([C:3]1([H:7])[C:4]([H:8])([H:9])[C:5]1([H:10])[H:11])[H:6]>>[O:1]=[C:2]=[C:3]([C:5]([C:4]([H:6])([H:8])[H:9])([H:10])[H:11])[H:7]"
O        2.72952111      -0.50812976       0.15514891
C        1.56859761      -0.29047615       0.01857376
C        0.41206345      -0.31401643       0.80267090
C       -0.64275887       0.76680594      -0.52181761
C       -0.89577469      -0.55965154       0.10733530
H        0.85858030       0.38751220      -1.13140417
H        0.48218597      -0.01222430       1.83878160
H       -0.92205331       1.64298368       0.05422752
H       -0.96358055       0.87085452      -1.55332161
H       -1.73097935      -0.57639581       0.80354892
H       -0.89580167      -1.40726235      -0.57374351
11
Frame=12 idx=002681 GeodesicLength=1.097463574859247 rxn_smarts="[O:1]=[C:2]([C:3]1([H:7])[C:4]([H:8])([H:9])[C:5]1([H:10])[H:11])[H:6]>>[O:1]=[C:2]=[C:3]([C:5]([C:4]([H:6])([H:8])[H:9])([H:10])[H:11])[H:7]"
O        2.73008603      -0.56949917       0.16623992
C        1.57960179      -0.31324310       0.02416851
C        0.41470564      -0.29627611       0.79676447
C       -0.64120901       0.77114515      -0.51463784
C       -0.89154214      -0.56368500       0.10484505
H        0.85155485       0.42127830      -1.13451680
H        0.48339856       0.04147562       1.82141197
H       -0.94914053       1.63794188       0.06209528
H       -0.97906746       0.87324052      -1.54114328
H       -1.72812859      -0.59707897       0.79780215
H       -0.87025915      -1.40529913      -0.58302945
11
Frame=13 idx=002681 GeodesicLength=1.1885386052989126 rxn_smarts="[O:1]=[C:2]([C:3]1([H:7])[C:4]([H:8])([H:9])[C:5]1([H:10])[H:11])[H:6]>>[O:1]=[C:2]=[C:3]([C:5]([C:4]([H:6])([H:8])[H:9])([H:10])[H:11])[H:7]"
O        2.72931612      -0.62949278       0.17926832
C        1.59050741      -0.33595241       0.03056493
C        0.41777182      -0.27871104       0.79007637
C       -0.63983538       0.77567261      -0.50773576
C       -0.88710351      -0.56738273       0.10242888
H        0.84375315       0.45496473      -1.13823436
H        0.48565580       0.09295287       1.80255846
H       -0.97568684       1.63248941       0.06946698
H       -0.99464792       0.87525580      -1.52903108
H       -1.72431876      -0.61718666       0.79264771
H       -0.84541189      -1.40260979      -0.59201045
11
Frame=14 idx=002681 GeodesicLength=1.2796296886876948 rxn_smarts="[O:1]=[C:2]([C:3]1([H:7])[C:4]([H:8])([H:9])[C:5]1([H:10])[H:11])[H:6]>>[O:1]=[C:2]=[C:3]([C:5]([C:4]([H:6])([H:8])[H:9])([H:10])[H:11])[H:7]"
O        2.72722248      -0.68864004       0.19434711
C        1.60142349      -0.35854798       0.03782295
C        0.42132669      -0.26115493       0.78255288
C       -0.63869620       0.78042727      -0.50110105
C       -0.88237618      -0.57076541       0.10003970
H        0.83500602       0.48874749      -1.14278336
H        0.48889518       0.14242577       1.78234509
H       -1.00178629       1.62662825       0.07646341
H       -1.01048985       0.87697324      -1.51693177
H       -1.71948178      -0.63687351       0.78804010
H       -0.82104356      -1.39922016      -0.60079506
11
Frame=15 idx=002681 GeodesicLength=1.3706746129027365 rxn_smarts="[O:1]=[C:2]([C:3]1([H:7])[C:4]([H:8])([H:9])[C:5]1([H:10])[H:11])[H:6]>>[O:1]=[C:2]=[C:3]([C:5]([C:4]([H:6])([H:8])[H:9])([H:10])[H:11])[H:7]"
O        2.72399525      -0.74652650       0.21166364
C        1.61233588      -0.38132166       0.04598468
C        0.42537196      -0.24365289       0.77411572
C       -0.63777729       0.78539990      -0.49473675
C       -0.87738749      -0.57384656       0.09763908
H        0.82511823       0.52253335      -1.14844547
H        0.49309620       0.18979403       1.76089081
H       -1.02714343       1.62042986       0.08320546
H       -1.02670788       0.87846265      -1.50477613
H       -1.71365946      -0.65612273       0.78393385
H       -0.79724197      -1.39514946      -0.60947489
11
Frame=16 idx=002681 GeodesicLength=1.4617069277557144 rxn_smarts="[O:1]=[C:2]([C:3]1([H:7])[C:4]([H:8])([H:9])[C:5]1([H:10])[H:11])[H:6]>>[O:1]=[C:2]=[C:3]([C:5]([C:4]([H:6])([H:8])[H:9])([H:10])[H:11])[H:7]"
O        2.71969415      -0.80338601       0.23146252
C        1.62328395      -0.40447347       0.05508156
C        0.42997841      -0.22614755       0.76465194
C       -0.63712620       0.79060994      -0.48863137
C       -0.87208269      -0.57665389       0.09517328
H        0.81392216       0.55651719      -1.15540384
H        0.49825906       0.23528154       1.73818962
H       -1.05178148       1.61390434       0.08983781
H       -1.04345378       0.87980309      -1.49248989
H       -1.70677391      -0.67504719       0.78030581
H       -0.77391966      -1.39040799      -0.61817744
