19
Frame=0 idx=010061 GeodesicLength=0.0 rxn_smarts="[C:1]([C:2]([C@@:3]1([H:13])[C:4]([H:14])([H:15])[C@:5]1([C:6]([O:7][H:19])([H:17])[H:18])[H:16])([H:11])[H:12])([H:8])([H:9])[H:10]>>[C:1](=[C:2]([H:11])[H:12])([H:9])[H:10].[C:3](=[C:4]([H:14])[H:15])([C:5]([C:6]([O:7][H:19])([H:17])[H:18])([H:8])[H:16])[H:13]"
C       -1.89959032      -0.05528905       0.90364250
C       -1.33940895       1.09863532       0.26427911
C       -0.25776138       0.42972795      -0.92619390
C        0.93508355       1.04994958      -1.30002850
C        0.15814435      -0.88985853      -0.30689953
C        1.18936074      -0.93022578       0.79966937
O        2.49716117      -1.25285468       0.37116746
H       -0.95250774      -1.01405318       0.33938278
H       -2.83141471      -0.46778439       0.53005231
H       -1.71318331      -0.23903052       1.95586239
H       -0.73290014       1.73000967       0.90825286
H       -2.02029384       1.69717558      -0.33340240
H       -0.91835784       0.25138731      -1.77506479
H        1.08907991       1.49373898      -2.27670586
H        1.70775827       1.23300307      -0.56122453
H        0.32247884      -1.68961064      -1.03090490
H        1.17831086       0.01711555       1.35682058
H        0.91476092      -1.71620537       1.50642856
H        2.67327953      -0.74583092      -0.42513356
19
Frame=1 idx=010061 GeodesicLength=0.11265253229047271 rxn_smarts="[C:1]([C:2]([C@@:3]1([H:13])[C:4]([H:14])([H:15])[C@:5]1([C:6]([O:7][H:19])([H:17])[H:18])[H:16])([H:11])[H:12])([H:8])([H:9])[H:10]>>[C:1](=[C:2]([H:11])[H:12])([H:9])[H:10].[C:3](=[C:4]([H:14])[H:15])([C:5]([C:6]([O:7][H:19])([H:17])[H:18])([H:8])[H:16])[H:13]"
C       -1.90732736      -0.05073025       0.91422945
C       -1.36389553       1.10325498       0.26238945
C       -0.25724349       0.42976671      -0.93591790
C        0.94612379       1.03821829      -1.29381080
C        0.17146218      -0.88472296      -0.31952732
C        1.19496099      -0.93626025       0.79336931
O        2.50490728      -1.25859733       0.37129147
H       -0.96534844      -1.01944307       0.32852373
H       -2.85748453      -0.45116883       0.57545086
H       -1.68700889      -0.23088973       1.96078883
H       -0.75013762       1.74357796       0.89032552
H       -2.05565895       1.69366237      -0.33120674
H       -0.90878760       0.25079604      -1.79147100
H        1.11416765       1.47565295      -2.27095675
H        1.70055421       1.24678931      -0.54308885
H        0.33315402      -1.68537439      -1.04313290
H        1.18087388       0.00649583       1.35800103
H        0.91632804      -1.72831794       1.49177001
H        2.69036038      -0.74270969      -0.41702741
19
Frame=2 idx=010061 GeodesicLength=0.2252459586349978 rxn_smarts="[C:1]([C:2]([C@@:3]1([H:13])[C:4]([H:14])([H:15])[C@:5]1([C:6]([O:7][H:19])([H:17])[H:18])[H:16])([H:11])[H:12])([H:8])([H:9])[H:10]>>[C:1](=[C:2]([H:11])[H:12])([H:9])[H:10].[C:3](=[C:4]([H:14])[H:15])([C:5]([C:6]([O:7][H:19])([H:17])[H:18])([H:8])[H:16])[H:13]"
C       -1.91516414      -0.04601926       0.92485205
C       -1.38890072       1.10763053       0.26012452
C       -0.25623334       0.42958561      -0.94582937
C        0.95721680       1.02691282      -1.28708733
C        0.18512796      -0.87970980      -0.33224913
C        1.20067076      -0.94256957       0.78698710
O        2.51276033      -1.26457831       0.37135993
H       -0.97866955      -1.02484089       0.31759319
H       -2.88295701      -0.43359121       0.62315702
H       -1.66070856      -0.22202057       1.96466075
H       -0.76813977       1.75714288       0.87138466
H       -2.09181716       1.68948645      -0.32914047
H       -0.89842466       0.25017940      -1.80818593
H        1.13921527       1.45861619      -2.26421150
H        1.69308357       1.26013113      -0.52532079
H        0.34395169      -1.68134145      -1.05539423
H        1.18351750      -0.00451730       1.35914792
H        0.91796274      -1.74073169       1.47680929
H        2.70750828      -0.73976497      -0.40865768
19
Frame=3 idx=010061 GeodesicLength=0.3377788948557205 rxn_smarts="[C:1]([C:2]([C@@:3]1([H:13])[C:4]([H:14])([H:15])[C@:5]1([C:6]([O:7][H:19])([H:17])[H:18])[H:16])([H:11])[H:12])([H:8])([H:9])[H:10]>>[C:1](=[C:2]([H:11])[H:12])([H:9])[H:10].[C:3](=[C:4]([H:14])[H:15])([C:5]([C:6]([O:7][H:19])([H:17])[H:18])([H:8])[H:16])[H:13]"
C       -1.92313026      -0.04114891       0.93549750
C       -1.41444938       1.11173996       0.25747371
C       -0.25472709       0.42916729      -0.95592673
C        0.96834023       1.01603855      -1.27986517
C        0.19916357      -0.87483581      -0.34507496
C        1.20649277      -0.94916834       0.78051727
O        2.52072823      -1.27079197       0.37137583
H       -0.99250342      -1.03025548       0.30659827
H       -2.90767136      -0.41492340       0.67322874
H       -1.63434054      -0.21241057       1.96742141
H       -0.78692620       1.77065172       0.85139177
H       -2.12878276       1.68464479      -0.32716896
H       -0.88726490       0.24953629      -1.82519814
H        1.16420628       1.44262650      -2.25649259
H        1.68533864       1.27304296      -0.50784887
H        0.35489405      -1.67751865      -1.06770615
H        1.18622970      -0.01594762       1.36025944
H        0.91968040      -1.75346322       1.46152655
H        2.72472206      -0.73698409      -0.40000893
19
Frame=4 idx=010061 GeodesicLength=0.45025476211940935 rxn_smarts="[C:1]([C:2]([C@@:3]1([H:13])[C:4]([H:14])([H:15])[C@:5]1([C:6]([O:7][H:19])([H:17])[H:18])[H:16])([H:11])[H:12])([H:8])([H:9])[H:10]>>[C:1](=[C:2]([H:11])[H:12])([H:9])[H:10].[C:3](=[C:4]([H:14])[H:15])([C:5]([C:6]([O:7][H:19])([H:17])[H:18])([H:8])[H:16])[H:13]"
C       -1.93125704      -0.03611454       0.94615143
C       -1.44056897       1.11555770       0.25442430
C       -0.25272159       0.42849344      -0.96621084
C        0.97947210       1.00559867      -1.27214986
C        0.21359292      -0.87011825      -0.35802011
C        1.21242779      -0.95607243       0.77395269
O        2.52881949      -1.27723097       0.37134614
H       -1.00688809      -1.03569806       0.29553797
H       -2.93143999      -0.39501564       0.72575053
H       -1.60796382      -0.20205592       1.96900751
H       -0.80652048       1.78404981       0.83030192
H       -2.16657747       1.67913111      -0.32525608
H       -0.87530223       0.24886710      -1.84250064
H        1.18912998       1.42768382      -2.24781886
H        1.67730557       1.28553578      -0.49060469
H        0.36600938      -1.67391168      -1.08009265
H        1.18899121      -0.02782161       1.36133508
H        0.92148940      -1.76653071       1.44589971
H        2.74200183      -0.73434764      -0.39105356
19
Frame=5 idx=010061 GeodesicLength=0.5627340237445568 rxn_smarts="[C:1]([C:2]([C@@:3]1([H:13])[C:4]([H:14])([H:15])[C@:5]1([C:6]([O:7][H:19])([H:17])[H:18])[H:16])([H:11])[H:12])([H:8])([H:9])[H:10]>>[C:1](=[C:2]([H:11])[H:12])([H:9])[H:10].[C:3](=[C:4]([H:14])[H:15])([C:5]([C:6]([O:7][H:19])([H:17])[H:18])([H:8])[H:16])[H:13]"
C       -1.93955374      -0.03088207       0.95683717
C       -1.46729226       1.11906740       0.25096442
C       -0.25021854       0.42753638      -0.97668733
C        0.99059203       0.99558530      -1.26394535
C        0.22844604      -0.86557856      -0.37110745
C        1.21847400      -0.96329790       0.76728821
O        2.53705175      -1.28388801       0.37128453
H       -1.02189295      -1.04116526       0.28441520
H       -2.95408953      -0.37372977       0.78069978
H       -1.58157725      -0.19097008       1.96938997
H       -0.82692689       1.79728915       0.80804119
H       -2.20524318       1.67293908      -0.32334261
H       -0.86254934       0.24815967      -1.86008221
H        1.21394434       1.41380326      -2.23817707
H        1.66898228       1.29761666      -0.47353484
H        0.37732799      -1.67053406      -1.09257836
H        1.19177805      -0.04016001       1.36237948
H        0.92337839      -1.77996072       1.42990732
H        2.75936883      -0.73183047      -0.38175205
19
Frame=6 idx=010061 GeodesicLength=0.6751748017154314 rxn_smarts="[C:1]([C:2]([C@@:3]1([H:13])[C:4]([H:14])([H:15])[C@:5]1([C:6]([O:7][H:19])([H:17])[H:18])[H:16])([H:11])[H:12])([H:8])([H:9])[H:10]>>[C:1](=[C:2]([H:11])[H:12])([H:9])[H:10].[C:3](=[C:4]([H:14])[H:15])([C:5]([C:6]([O:7][H:19])([H:17])[H:18])([H:8])[H:16])[H:13]"
C       -1.94807139      -0.02545928       0.96752519
C       -1.49464404       1.12223440       0.24709140
C       -0.24721921       0.42627485      -0.98734956
C        1.00167394       0.98599802      -1.25525944
C        0.24374535      -0.86123553      -0.38434412
C        1.22463425      -0.97085954       0.76051858
O        2.54543166      -1.29074542       0.37120100
H       -1.03754562      -1.04667539       0.27324069
H       -2.97536166      -0.35088147       0.83814041
H       -1.55528510      -0.17914441       1.96847444
H       -0.84817402       1.81029155       0.78458551
H       -2.24478011       1.66607620      -0.32138258
H       -0.84899968       0.24740952      -1.87793138
H        1.23863641       1.40099260      -2.22759582
H        1.66032505       1.30929296      -0.45656760
H        0.38887872      -1.66739261      -1.10517940
H        1.19456879      -0.05299232       1.36339083
H        0.92537697      -1.79376952       1.41352560
H        2.77680969      -0.72941462      -0.37208375
19
Frame=7 idx=010061 GeodesicLength=0.7875790031154186 rxn_smarts="[C:1]([C:2]([C@@:3]1([H:13])[C:4]([H:14])([H:15])[C@:5]1([C:6]([O:7][H:19])([H:17])[H:18])[H:16])([H:11])[H:12])([H:8])([H:9])[H:10]>>[C:1](=[C:2]([H:11])[H:12])([H:9])[H:10].[C:3](=[C:4]([H:14])[H:15])([C:5]([C:6]([O:7][H:19])([H:17])[H:18])([H:8])[H:16])[H:13]"
C       -1.95685069      -0.01983320       0.97821344
C       -1.52265350       1.12503492       0.24280452
C       -0.24372679       0.42468381      -0.99819630
C        1.01268868       0.97682850      -1.24609854
C        0.25951755      -0.85710554      -0.39774153
C        1.23090978      -0.97876871       0.75364023
O        2.55396737      -1.29778513       0.37111473
H       -1.05389506      -1.05223906       0.26202065
H       -2.99498356      -0.32630670       0.89804009
H       -1.52915456      -0.16659055       1.96620511
H       -0.87027604       1.82298474       0.75989400
H       -2.28520403       1.65855872      -0.31930561
H       -0.83466009       0.24660758      -1.89603375
H        1.26316720       1.38926183      -2.21608094
H        1.65130320       1.32056188      -0.43965030
H        0.40069310      -1.66449544      -1.11791159
H        1.19733679      -0.06634309       1.36436968
H        0.92750137      -1.80797310       1.39673329
H        2.79431929      -0.72708146      -0.36201719
19
Frame=8 idx=010061 GeodesicLength=0.8999454386886888 rxn_smarts="[C:1]([C:2]([C@@:3]1([H:13])[C:4]([H:14])([H:15])[C@:5]1([C:6]([O:7][H:19])([H:17])[H:18])[H:16])([H:11])[H:12])([H:8])([H:9])[H:10]>>[C:1](=[C:2]([H:11])[H:12])([H:9])[H:10].[C:3](=[C:4]([H:14])[H:15])([C:5]([C:6]([O:7][H:19])([H:17])[H:18])([H:8])[H:16])[H:13]"
C       -1.96593290      -0.01398408       0.98890842
C       -1.55134539       1.12744338       0.23810819
C       -0.23974753       0.42273523      -1.00922209
C        1.02360343       0.96806452      -1.23646831
C        0.27579141      -0.85320643      -0.41131012
C        1.23730084      -0.98703835       0.74665078
O        2.56266989      -1.30498786       0.37104531
H       -1.07099730      -1.05786563       0.25076504
H       -3.01265219      -0.29983189       0.96033218
H       -1.50325980      -0.15333066       1.96251683
H       -0.89324078       1.83529188       0.73392375
H       -2.32652710       1.65040644      -0.31703590
H       -0.81954242       0.24574173      -1.91437004
H        1.28748341       1.37862786      -2.20363335
H        1.64187696       1.33141746      -0.42273279
H        0.41280526      -1.66185204      -1.13079001
H        1.20005358      -0.08023764       1.36531601
H        0.92976903      -1.82258735       1.37950940
H        2.81189160      -0.72480658      -0.35151328
19
Frame=9 idx=010061 GeodesicLength=1.0123227394772498 rxn_smarts="[C:1]([C:2]([C@@:3]1([H:13])[C:4]([H:14])([H:15])[C@:5]1([C:6]([O:7][H:19])([H:17])[H:18])[H:16])([H:11])[H:12])([H:8])([H:9])[H:10]>>[C:1](=[C:2]([H:11])[H:12])([H:9])[H:10].[C:3](=[C:4]([H:14])[H:15])([C:5]([C:6]([O:7][H:19])([H:17])[H:18])([H:8])[H:16])[H:13]"
C       -1.97530266      -0.00786184       0.99966214
C       -1.58074511       1.12946840       0.23302472
C       -0.23530046       0.42037638      -1.02043223
C        1.03439720       0.95968247      -1.22638382
C        0.29260132      -0.84957243      -0.42506928
C        1.24380648      -0.99567337       0.73954746
O        2.57157529      -1.31232352       0.37102398
H       -1.08894103      -1.06353050       0.23947713
H       -3.02820488      -0.27134144       1.02479220
H       -1.47759174      -0.13942682       1.95740577
H       -0.91703900       1.84715136       0.70661307
H       -2.36877270       1.64167072      -0.31442109
H       -0.80368789       0.24476418      -1.93291801
H        1.31152602       1.36911352      -2.19024088
H        1.63202138       1.34186364      -0.40579522
H        0.42525794      -1.65949153      -1.14383041
H        1.20267170      -0.09467716       1.36623140
H        0.93216641      -1.83763586       1.36184091
H        2.82956174      -0.72255620      -0.34052784
19
Frame=10 idx=010061 GeodesicLength=1.1246579989014243 rxn_smarts="[C:1]([C:2]([C@@:3]1([H:13])[C:4]([H:14])([H:15])[C@:5]1([C:6]([O:7][H:19])([H:17])[H:18])[H:16])([H:11])[H:12])([H:8])([H:9])[H:10]>>[C:1](=[C:2]([H:11])[H:12])([H:9])[H:10].[C:3](=[C:4]([H:14])[H:15])([C:5]([C:6]([O:7][H:19])([H:17])[H:18])([H:8])[H:16])[H:13]"
C       -1.98504585      -0.00146359       1.01045823
C       -1.61088445       1.13106063       0.22756434
C       -0.23038563       0.41759635      -1.03181026
C        1.04502182       0.95167338      -1.21584154
C        0.30996935      -0.84620652      -0.43901977
C        1.25042868      -1.00469072       0.73232869
O        2.58067086      -1.31977389       0.37107299
H       -1.10775816      -1.06926429       0.22818624
H       -3.04115789      -0.24064201       1.09136080
H       -1.45229851      -0.12486799       1.95076403
H       -0.94170767       1.85846062       0.67793643
H       -2.41194926       1.63237895      -0.31140158
H       -0.78708905       0.24368989      -1.95165812
H        1.33524245       1.36072913      -2.17591966
H        1.62166894       1.35187659      -0.38876932
H        0.43808051      -1.65740627      -1.15704436
H        1.20516888      -0.10970855       1.36711669
H        0.93474275      -1.85312822       1.34369751
H        2.84728222      -0.72031349      -0.32902132
19
Frame=11 idx=010061 GeodesicLength=1.2369363942951277 rxn_smarts="[C:1]([C:2]([C@@:3]1([H:13])[C:4]([H:14])([H:15])[C@:5]1([C:6]([O:7][H:19])([H:17])[H:18])[H:16])([H:11])[H:12])([H:8])([H:9])[H:10]>>[C:1](=[C:2]([H:11])[H:12])([H:9])[H:10].[C:3](=[C:4]([H:14])[H:15])([C:5]([C:6]([O:7][H:19])([H:17])[H:18])([H:8])[H:16])[H:13]"
C       -1.99518075       0.00525372       1.02134160
C       -1.64178434       1.13221696       0.22175896
C       -0.22502391       0.41435546      -1.04334448
C        1.05544316       0.94401944      -1.20485276
C        0.32792183      -0.84312883      -0.45316611
C        1.25716503      -1.01409846       0.72499521
O        2.58997251      -1.32731042       0.37121970
H       -1.12752165      -1.07505972       0.21692144
H       -3.05116999      -0.20764132       1.15975428
H       -1.42744100      -0.10968472       1.94255921
H       -0.96723864       1.86914093       0.64786078
H       -2.45605604       1.62259985      -0.30784023
H       -0.76978150       0.24248874      -1.97056026
H        1.35856896       1.35349645      -2.16067491
H        1.61076338       1.36144555      -0.37162071
H        0.45129763      -1.65561354      -1.17043405
H        1.20750444      -0.12534883       1.36797298
H        0.93750964      -1.86908063       1.32506781
H        2.86505123      -0.71805062      -0.31695847
19
Frame=12 idx=010061 GeodesicLength=1.349170826311025 rxn_smarts="[C:1]([C:2]([C@@:3]1([H:13])[C:4]([H:14])([H:15])[C@:5]1([C:6]([O:7][H:19])([H:17])[H:18])[H:16])([H:11])[H:12])([H:8])([H:9])[H:10]>>[C:1](=[C:2]([H:11])[H:12])([H:9])[H:10].[C:3](=[C:4]([H:14])[H:15])([C:5]([C:6]([O:7][H:19])([H:17])[H:18])([H:8])[H:16])[H:13]"
C       -2.00572903       0.01234679       1.03236831
C       -1.67346677       1.13293043       0.21564891
C       -0.21922435       0.41062032      -1.05502614
C        1.06561153       0.93669292      -1.19342206
C        0.34648958      -0.84035090      -0.46751294
C        1.26402139      -1.02390135       0.71754790
O        2.59948952      -1.33490211       0.37150233
H       -1.14830248      -1.08091348       0.20571168
H       -3.05789067      -0.17225523       1.22964155
H       -1.40309442      -0.09391123       1.93276310
H       -0.99361580       1.87910597       0.61634332
H       -2.50111065       1.61241800      -0.30357510
H       -0.75179224       0.24114347      -1.98959362
H        1.38141764       1.34742161      -2.14450684
H        1.59925323       1.37053990      -0.35432437
H        0.46495018      -1.65411992      -1.18400500
H        1.20964306      -0.14162324       1.36879763
H        0.94050243      -1.88549871       1.30592864
H        2.88284786      -0.71574323      -0.30428729
19
Frame=13 idx=010061 GeodesicLength=1.461365208858237 rxn_smarts="[C:1]([C:2]([C@@:3]1([H:13])[C:4]([H:14])([H:15])[C@:5]1([C:6]([O:7][H:19])([H:17])[H:18])[H:16])([H:11])[H:12])([H:8])([H:9])[H:10]>>[C:1](=[C:2]([H:11])[H:12])([H:9])[H:10].[C:3](=[C:4]([H:14])[H:15])([C:5]([C:6]([O:7][H:19])([H:17])[H:18])([H:8])[H:16])[H:13]"
C       -2.01664209       0.01987303       1.04360876
C       -1.70594545       1.13321673       0.20929166
C       -0.21302158       0.40631239      -1.06684647
C        1.07550234       0.92966797      -1.18157665
C        0.36571989      -0.83792283      -0.48207362
C        1.27100508      -1.03410403       0.70998349
O        2.60927815      -1.34249570       0.37196403
H       -1.17020511      -1.08679176       0.19456850
H       -3.06121921      -0.13436123       1.30062059
H       -1.37925677      -0.07765334       1.92137573
H       -1.02079848       1.88825853       0.58333813
H       -2.54708588       1.60196175      -0.29836630
H       -0.73317988       0.23957192      -2.00872041
H        1.40370989       1.34254466      -2.12742485
H        1.58707869       1.37916912      -0.33687904
H        0.47909851      -1.65297393      -1.19776507
H        1.21151365      -0.15852757       1.36958935
H        0.94373089      -1.90242113       1.28626397
H        2.90071735      -0.71332456      -0.29095180
19
Frame=14 idx=010061 GeodesicLength=1.5734903499186765 rxn_smarts="[C:1]([C:2]([C@@:3]1([H:13])[C:4]([H:14])([H:15])[C@:5]1([C:6]([O:7][H:19])([H:17])[H:18])[H:16])([H:11])[H:12])([H:8])([H:9])[H:10]>>[C:1](=[C:2]([H:11])[H:12])([H:9])[H:10].[C:3](=[C:4]([H:14])[H:15])([C:5]([C:6]([O:7][H:19])([H:17])[H:18])([H:8])[H:16])[H:13]"
C       -2.02796415       0.02790307       1.05512193
C       -1.73924980       1.13306428       0.20273475
C       -0.20641836       0.40142238      -1.07879075
C        1.08505885       0.92292295      -1.16930743
C        0.38562724      -0.83583168      -0.49684598
C        1.27811411      -1.04471746       0.70230463
O        2.61931639      -1.35007170       0.37263820
H       -1.19328365      -1.09270295       0.18356230
H       -3.06060910      -0.09398452       1.37231096
H       -1.35605149      -0.06087379       1.90835061
H       -1.04880984       1.89651597       0.54880662
H       -2.59399792       1.59132572      -0.29208343
H       -0.71395645       0.23779113      -2.02791815
H        1.42536783       1.33885717      -2.10942979
H        1.57416604       1.38727798      -0.31922959
H        0.49375927      -1.65215760      -1.21171541
H        1.21309309      -0.17611169       1.37034930
H        0.94724096      -1.91984371       1.26604678
H        2.91859699      -0.71078557      -0.27690556
19
Frame=15 idx=010061 GeodesicLength=1.68553014762367 rxn_smarts="[C:1]([C:2]([C@@:3]1([H:13])[C:4]([H:14])([H:15])[C@:5]1([C:6]([O:7][H:19])([H:17])[H:18])[H:16])([H:11])[H:12])([H:8])([H:9])[H:10]>>[C:1](=[C:2]([H:11])[H:12])([H:9])[H:10].[C:3](=[C:4]([H:14])[H:15])([C:5]([C:6]([O:7][H:19])([H:17])[H:18])([H:8])[H:16])[H:13]"
C       -2.03964687       0.03653655       1.06700310
C       -1.77338732       1.13250951       0.19606007
C       -0.19943784       0.39589988      -1.09084015
C        1.09424017       0.91642683      -1.15663553
C        0.40624889      -0.83409505      -0.51182961
C        1.28535701      -1.05574259       0.69451272
O        2.62962804      -1.35758946       0.37357052
H       -1.21762518      -1.09861203       0.17274666
H       -3.05586257      -0.05122534       1.44414978
H       -1.33351339      -0.04359567       1.89371259
H       -1.07761637       1.90379369       0.51271596
H       -2.64182558       1.58067960      -0.28448485
H       -0.69417172       0.23575605      -2.04714386
H        1.44630151       1.33636815      -2.09054497
H        1.56046208       1.39483833      -0.30137508
H        0.50896912      -1.65168987      -1.22584813
H        1.21433415      -0.19438669       1.37107216
H        0.95106522      -1.93777682       1.24526427
H        2.93648062      -0.70809506      -0.26210563
19
Frame=16 idx=010061 GeodesicLength=1.7974826691368098 rxn_smarts="[C:1]([C:2]([C@@:3]1([H:13])[C:4]([H:14])([H:15])[C@:5]1([C:6]([O:7][H:19])([H:17])[H:18])[H:16])([H:11])[H:12])([H:8])([H:9])[H:10]>>[C:1](=[C:2]([H:11])[H:12])([H:9])[H:10].[C:3](=[C:4]([H:14])[H:15])([C:5]([C:6]([O:7][H:19])([H:17])[H:18])([H:8])[H:16])[H:13]"
C       -2.05163045       0.04586009       1.07933026
C       -1.80838259       1.13156477       0.18933833
C       -0.19209495       0.38968459      -1.10299011
C        1.10300972       0.91015414      -1.14357137
C        0.42763125      -0.83273688      -0.52704109
C        1.29274500      -1.06718941       0.68660105
O        2.64024762      -1.36500075       0.37480779
H       -1.24331744      -1.10449796       0.16216309
H       -3.04682697      -0.00606819       1.51570547
H       -1.31167374      -0.02586270       1.87745722
H       -1.10721377       1.90998067       0.47500109
H       -2.69054371       1.57018630      -0.27533273
H       -0.67385682       0.23341735      -2.06637618
H        1.46642999       1.33510343      -2.07077260
H        1.54589541       1.40182038      -0.28329285
H        0.52479131      -1.65159110      -1.24017789
H        1.21517612      -0.21338083       1.37175359
H        0.95524062      -1.95625071       1.22388054
H        2.95437341      -0.70519320      -0.24648361
