17
Frame=0 idx=011925 GeodesicLength=0.0 rxn_smarts="[C:1]([C@@:2]1([H:11])[C@@:3]2([H:12])[C:4]([H:13])([H:14])[C:5]([H:15])=[C:6]([H:16])[C@@:7]12[H:17])([H:8])([H:9])[H:10]>>[C:1]([C:2]([C:7]1([H:17])[C:3]([H:12])=[C:4]([H:14])[C:5]([H:15])=[C:6]1[H:16])([H:9])[H:11])([H:8])([H:10])[H:13]"
C       -1.42503574       0.77554053      -0.35119403
C       -1.14232852      -0.63380754      -0.01310720
C        0.69010246      -1.02485000      -0.67393388
C        1.15431643       0.31274159      -0.90068397
C        1.45714628       0.83570214       0.47203174
C        0.84898209       0.07638633       1.38130437
C        0.15099873      -1.06289006       0.69515389
H       -2.14281010       0.97332271      -1.13679104
H       -2.05306239      -0.07494969       0.59941464
H       -1.25149587       1.54874520       0.38605939
H       -1.66773483      -1.40110216      -0.56630995
H        0.60937005      -1.81946399      -1.39819128
H        0.11166539       0.94453276      -1.11123667
H        1.82896357       0.52221314      -1.72472091
H        1.97389409       1.76708913       0.66568022
H        0.79476179       0.26408319       2.44512415
H        0.06226653      -2.00329321       1.23140049
17
Frame=1 idx=011925 GeodesicLength=0.08111137450370752 rxn_smarts="[C:1]([C@@:2]1([H:11])[C@@:3]2([H:12])[C:4]([H:13])([H:14])[C:5]([H:15])=[C:6]([H:16])[C@@:7]12[H:17])([H:8])([H:9])[H:10]>>[C:1]([C:2]([C:7]1([H:17])[C:3]([H:12])=[C:4]([H:14])[C:5]([H:15])=[C:6]1[H:16])([H:9])[H:11])([H:8])([H:10])[H:13]"
C       -1.43390069       0.77311617      -0.35244435
C       -1.14405462      -0.63656242      -0.01329748
C        0.68655101      -1.01863162      -0.67680186
C        1.16035893       0.31656166      -0.90064075
C        1.46959620       0.83070081       0.47394155
C        0.85181986       0.07655299       1.38143982
C        0.14955543      -1.05911233       0.69509222
H       -2.15519161       0.96542252      -1.13655908
H       -2.06427916      -0.07303917       0.60412919
H       -1.25127950       1.54700290       0.38243743
H       -1.66999263      -1.40782759      -0.56087666
H        0.61268474      -1.81355625      -1.40148454
H        0.09576341       0.95503939      -1.11550443
H        1.84289306       0.51811174      -1.72027566
H        1.99778799       1.75503623       0.67057329
H        0.78281574       0.27362943       2.44275732
H        0.06887183      -2.00244444       1.22751398
17
Frame=2 idx=011925 GeodesicLength=0.16216571680660113 rxn_smarts="[C:1]([C@@:2]1([H:11])[C@@:3]2([H:12])[C:4]([H:13])([H:14])[C:5]([H:15])=[C:6]([H:16])[C@@:7]12[H:17])([H:8])([H:9])[H:10]>>[C:1]([C:2]([C:7]1([H:17])[C:3]([H:12])=[C:4]([H:14])[C:5]([H:15])=[C:6]1[H:16])([H:9])[H:11])([H:8])([H:10])[H:13]"
C       -1.44287968       0.77068595      -0.35362210
C       -1.14575693      -0.63929802      -0.01356890
C        0.68297575      -1.01227979      -0.67970714
C        1.16670701       0.32032883      -0.90053009
C        1.48216545       0.82553955       0.47591190
C        0.85462343       0.07676998       1.38157246
C        0.14809989      -1.05526469       0.69499777
H       -2.16766308       0.95749031      -1.13622828
H       -2.07561907      -0.07107220       0.60892153
H       -1.25114579       1.54521057       0.37881100
H       -1.67219883      -1.41453411      -0.55545835
H        0.61607225      -1.80755215      -1.40472977
H        0.07944169       0.96569138      -1.11988340
H        1.85714257       0.51367483      -1.71565096
H        2.02141295       1.74285046       0.67553856
H        0.77113939       0.28324806       2.44011518
H        0.07548301      -2.00148894       1.22351059
17
Frame=3 idx=011925 GeodesicLength=0.24317969385869997 rxn_smarts="[C:1]([C@@:2]1([H:11])[C@@:3]2([H:12])[C:4]([H:13])([H:14])[C:5]([H:15])=[C:6]([H:16])[C@@:7]12[H:17])([H:8])([H:9])[H:10]>>[C:1]([C:2]([C:7]1([H:17])[C:3]([H:12])=[C:4]([H:14])[C:5]([H:15])=[C:6]1[H:16])([H:9])[H:11])([H:8])([H:10])[H:13]"
C       -1.45197726       0.76824888      -0.35472475
C       -1.14743341      -0.64201337      -0.01392618
C        0.67937856      -1.00578639      -0.68265373
C        1.17337795       0.32403679      -0.90034963
C        1.49485309       0.82021760       0.47794705
C        0.85738951       0.07704175       1.38169992
C        0.14663386      -1.05134427       0.69486628
H       -2.18023693       0.94952297      -1.13578907
H       -2.08708262      -0.06904857       0.61379696
H       -1.25109677       1.54336821       0.37517868
H       -1.67435017      -1.42122162      -0.55005763
H        0.61953553      -1.80144617      -1.40792549
H        0.06266853       0.97648771      -1.12439851
H        1.87172140       0.50889042      -1.71084016
H        2.04478443       1.73052986       0.68058449
H        0.75973330       0.29293887       2.43720625
H        0.08210100      -2.00042268       1.21938552
17
Frame=4 idx=011925 GeodesicLength=0.32417839163972895 rxn_smarts="[C:1]([C@@:2]1([H:11])[C@@:3]2([H:12])[C:4]([H:13])([H:14])[C:5]([H:15])=[C:6]([H:16])[C@@:7]12[H:17])([H:8])([H:9])[H:10]>>[C:1]([C:2]([C:7]1([H:17])[C:3]([H:12])=[C:4]([H:14])[C:5]([H:15])=[C:6]1[H:16])([H:9])[H:11])([H:8])([H:10])[H:13]"
C       -1.46119836       0.76580406      -0.35574850
C       -1.14908162      -0.64470751      -0.01437417
C        0.67576106      -0.99914255      -0.68564713
C        1.18039250       0.32767612      -0.90009619
C        1.50765839       0.81473333       0.48005104
C        0.86011603       0.07737197       1.38181921
C        0.14515992      -1.04734857       0.69469239
H       -2.19292743       0.94151771      -1.13522894
H       -2.09866919      -0.06696830       0.61876273
H       -1.25113304       1.54147600       0.37153979
H       -1.67644358      -1.42789010      -0.54467678
H        0.62307706      -1.79523283      -1.41107065
H        0.04540898       0.98742832      -1.12907705
H        1.88664120       0.50374472      -1.70583670
H        2.06792067       1.71807566       0.68572052
H        0.74858964       0.30270393       2.43403796
H        0.08872776      -1.99924198       1.21513248
17
Frame=5 idx=011925 GeodesicLength=0.40516941896136743 rxn_smarts="[C:1]([C@@:2]1([H:11])[C@@:3]2([H:12])[C:4]([H:13])([H:14])[C:5]([H:15])=[C:6]([H:16])[C@@:7]12[H:17])([H:8])([H:9])[H:10]>>[C:1]([C:2]([C:7]1([H:17])[C:3]([H:12])=[C:4]([H:14])[C:5]([H:15])=[C:6]1[H:16])([H:9])[H:11])([H:8])([H:10])[H:13]"
C       -1.47054700       0.76335132      -0.35668969
C       -1.15069873      -0.64737865      -0.01491797
C        0.67212569      -0.99233920      -0.68869162
C        1.18777064       0.33123901      -0.89976597
C        1.52058268       0.80908449       0.48223070
C        0.86280030       0.07776398       1.38192867
C        0.14368020      -1.04327503       0.69447131
H       -2.20574807       0.93347267      -1.13453423
H       -2.11037748      -0.06483047       0.62382601
H       -1.25125271       1.53953503       0.36789181
H       -1.67847531      -1.43453826      -0.53931843
H        0.62669918      -1.78890564      -1.41416445
H        0.02762816       0.99850849      -1.13394894
H        1.90191463       0.49822603      -1.70063446
H        2.09082689       1.70548542       0.69095415
H        0.73770694       0.31254448       2.43061735
H        0.09536401      -1.99794367       1.21074576
17
Frame=6 idx=011925 GeodesicLength=0.4861643384473091 rxn_smarts="[C:1]([C@@:2]1([H:11])[C@@:3]2([H:12])[C:4]([H:13])([H:14])[C:5]([H:15])=[C:6]([H:16])[C@@:7]12[H:17])([H:8])([H:9])[H:10]>>[C:1]([C:2]([C:7]1([H:17])[C:3]([H:12])=[C:4]([H:14])[C:5]([H:15])=[C:6]1[H:16])([H:9])[H:11])([H:8])([H:10])[H:13]"
C       -1.48002808       0.76088972      -0.35754382
C       -1.15228206      -0.65002511      -0.01556301
C        0.66847454      -0.98536552      -0.69179369
C        1.19553390       0.33471599      -0.89935590
C        1.53362707       0.80326840       0.48449183
C        0.86544036       0.07822102       1.38202539
C        0.14219756      -1.03912100       0.69419648
H       -2.21871584       0.92538505      -1.13368911
H       -2.12220518      -0.06263341       0.62899688
H       -1.25145405       1.53754655       0.36423157
H       -1.68044191      -1.44116540      -0.53398523
H        0.63040336      -1.78245708      -1.41720696
H        0.00928695       1.00972375      -1.13904621
H        1.91755653       0.49231605      -1.69522279
H        2.11351658       1.69276238       0.69629782
H        0.72707757       0.32246315       2.42694988
H        0.10201270      -1.99652456       1.20621686
17
Frame=7 idx=011925 GeodesicLength=0.5671763897448983 rxn_smarts="[C:1]([C@@:2]1([H:11])[C@@:3]2([H:12])[C:4]([H:13])([H:14])[C:5]([H:15])=[C:6]([H:16])[C@@:7]12[H:17])([H:8])([H:9])[H:10]>>[C:1]([C:2]([C:7]1([H:17])[C:3]([H:12])=[C:4]([H:14])[C:5]([H:15])=[C:6]1[H:16])([H:9])[H:11])([H:8])([H:10])[H:13]"
C       -1.48964501       0.75841908      -0.35830680
C       -1.15382808      -0.65264483      -0.01631468
C        0.66481013      -0.97821147      -0.69495930
C        1.20370784       0.33809466      -0.89886131
C        1.54679431       0.79728066       0.48684155
C        0.86803510       0.07874532       1.38210699
C        0.14071503      -1.03488453       0.69386178
H       -2.23184778       0.91725332      -1.13267497
H       -2.13414817      -0.06037441       0.63428555
H       -1.25173132       1.53551254       0.36055453
H       -1.68233973      -1.44776927      -0.52868022
H        0.63419078      -1.77588007      -1.42019797
H       -0.00965615       1.02106847      -1.14440352
H        1.93358049       0.48599927      -1.68959474
H        2.13599442       1.67991278       0.70176360
H        0.71669269       0.33246125       2.42304150
H        0.10867545      -1.99498277       1.20153800
17
Frame=8 idx=011925 GeodesicLength=0.6482130460037927 rxn_smarts="[C:1]([C@@:2]1([H:11])[C@@:3]2([H:12])[C:4]([H:13])([H:14])[C:5]([H:15])=[C:6]([H:16])[C@@:7]12[H:17])([H:8])([H:9])[H:10]>>[C:1]([C:2]([C:7]1([H:17])[C:3]([H:12])=[C:4]([H:14])[C:5]([H:15])=[C:6]1[H:16])([H:9])[H:11])([H:8])([H:10])[H:13]"
C       -1.49940336       0.75593909      -0.35897311
C       -1.15533359      -0.65523536      -0.01717922
C        0.66113490      -0.97086398      -0.69819578
C        1.21231736       0.34136341      -0.89827765
C        1.56008673       0.79111768       0.48928810
C        0.87058241       0.07933988       1.38217084
C        0.13923590      -1.03056271       0.69345959
H       -2.24516487       0.90907555      -1.13147071
H       -2.14620207      -0.05805145       0.63970457
H       -1.25207961       1.53343560       0.35685523
H       -1.68416478      -1.45434838      -0.52340648
H        0.63806245      -1.76916535      -1.42313803
H       -0.02924641       1.03253657      -1.15005817
H        1.95000832       0.47925327      -1.68373761
H        2.15826583       1.66693921       0.70736455
H        0.70654479       0.34254250       2.41889564
H        0.11535601      -1.99331552       1.19669825
17
Frame=9 idx=011925 GeodesicLength=0.7292466012839559 rxn_smarts="[C:1]([C@@:2]1([H:11])[C@@:3]2([H:12])[C:4]([H:13])([H:14])[C:5]([H:15])=[C:6]([H:16])[C@@:7]12[H:17])([H:8])([H:9])[H:10]>>[C:1]([C:2]([C:7]1([H:17])[C:3]([H:12])=[C:4]([H:14])[C:5]([H:15])=[C:6]1[H:16])([H:9])[H:11])([H:8])([H:10])[H:13]"
C       -1.50930678       0.75344840      -0.35953933
C       -1.15679505      -0.65779468      -0.01816171
C        0.65745251      -0.96331089      -0.70150777
C        1.22138434       0.34451315      -0.89759935
C        1.57350690       0.78477710       0.49184047
C        0.87308015       0.08000883       1.38221557
C        0.13776341      -1.02615249       0.69298447
H       -2.25868354       0.90084844      -1.13005888
H       -2.15836284      -0.05566130       0.64526480
H       -1.25249481       1.53131794       0.35312688
H       -1.68591193      -1.46090093      -0.51816693
H        0.64201923      -1.76230228      -1.42602632
H       -0.04952096       1.04411951      -1.15604501
H        1.96684959       0.47206771      -1.67764418
H        2.18033685       1.65383249       0.71310965
H        0.69662564       0.35270847       2.41451731
H        0.12205728      -1.99151947       1.19169034
17
Frame=10 idx=011925 GeodesicLength=0.8103028614398075 rxn_smarts="[C:1]([C@@:2]1([H:11])[C@@:3]2([H:12])[C:4]([H:13])([H:14])[C:5]([H:15])=[C:6]([H:16])[C@@:7]12[H:17])([H:8])([H:9])[H:10]>>[C:1]([C:2]([C:7]1([H:17])[C:3]([H:12])=[C:4]([H:14])[C:5]([H:15])=[C:6]1[H:16])([H:9])[H:11])([H:8])([H:10])[H:13]"
C       -1.51936097       0.75094792      -0.35999843
C       -1.15820835      -0.66031900      -0.01926996
C        0.65376517      -0.95553707      -0.70490534
C        1.23094179       0.34752637      -0.89682112
C        1.58706130       0.77824955       0.49450922
C        0.87552760       0.08075244       1.38223782
C        0.13630144      -1.02165209       0.69242614
H       -2.27243112       0.89257114      -1.12840879
H       -2.17062100      -0.05319928       0.65098419
H       -1.25296330       1.52916425       0.34935923
H       -1.68757769      -1.46742339      -0.51296564
H        0.64605973      -1.75528091      -1.42886682
H       -0.07053942       1.05580563      -1.16241179
H        1.98413456       0.46441052      -1.67129831
H        2.20220300       1.64061501       0.71902190
H        0.68692485       0.36296301       2.40990818
H        0.12878241      -1.98959408       1.18649952
17
Frame=11 idx=011925 GeodesicLength=0.8913825429564586 rxn_smarts="[C:1]([C@@:2]1([H:11])[C@@:3]2([H:12])[C:4]([H:13])([H:14])[C:5]([H:15])=[C:6]([H:16])[C@@:7]12[H:17])([H:8])([H:9])[H:10]>>[C:1]([C:2]([C:7]1([H:17])[C:3]([H:12])=[C:4]([H:14])[C:5]([H:15])=[C:6]1[H:16])([H:9])[H:11])([H:8])([H:10])[H:13]"
C       -1.52957089       0.74843752      -0.36034434
C       -1.15956912      -0.66280409      -0.02051115
C        0.65007633      -0.94752525      -0.70839701
C        1.24102257       0.35038750      -0.89593459
C        1.60075467       0.77153008       0.49730595
C        0.87792339       0.08157345       1.38223540
C        0.13485411      -1.01705832       0.69177573
H       -2.28643305       0.88424119      -1.12649176
H       -2.18296725      -0.05066027       0.65688013
H       -1.25347471       1.52697921       0.34554048
H       -1.68915682      -1.47391191      -0.50780684
H        0.65018173      -1.74808771      -1.43166310
H       -0.09235760       1.06758308      -1.16920422
H        2.00188981       0.45625333      -1.66468258
H        2.22385694       1.62729291       0.72511496
H        0.67743405       0.37330603       2.40507064
H        0.13553585      -1.98753674       1.18111229
17
Frame=12 idx=011925 GeodesicLength=0.9724729304032355 rxn_smarts="[C:1]([C@@:2]1([H:11])[C@@:3]2([H:12])[C:4]([H:13])([H:14])[C:5]([H:15])=[C:6]([H:16])[C@@:7]12[H:17])([H:8])([H:9])[H:10]>>[C:1]([C:2]([C:7]1([H:17])[C:3]([H:12])=[C:4]([H:14])[C:5]([H:15])=[C:6]1[H:16])([H:9])[H:11])([H:8])([H:10])[H:13]"
C       -1.53994298       0.74591717      -0.36057091
C       -1.16087325      -0.66524657      -0.02189307
C        0.64638916      -0.93925800      -0.71199173
C        1.25165729       0.35308130      -0.89493423
C        1.61459440       0.76460897       0.50024389
C        0.88026580       0.08247357       1.38220569
C        0.13342562      -1.01236862       0.69102321
H       -2.30071791       0.87585611      -1.12427613
H       -2.19539108      -0.04803892       0.66297181
H       -1.25401456       1.52476808       0.34165539
H       -1.69064461      -1.48036324      -0.50269503
H        0.65438367      -1.74070856      -1.43441875
H       -0.11503335       1.07943723      -1.17647104
H        2.02013990       0.44756704      -1.65778079
H        2.24529765       1.61387905       0.73141237
H        0.66814223       0.38374199       2.40000585
H        0.14232200      -1.98534660       1.17551347
17
Frame=13 idx=011925 GeodesicLength=1.0535626335216488 rxn_smarts="[C:1]([C@@:2]1([H:11])[C@@:3]2([H:12])[C:4]([H:13])([H:14])[C:5]([H:15])=[C:6]([H:16])[C@@:7]12[H:17])([H:8])([H:9])[H:10]>>[C:1]([C:2]([C:7]1([H:17])[C:3]([H:12])=[C:4]([H:14])[C:5]([H:15])=[C:6]1[H:16])([H:9])[H:11])([H:8])([H:10])[H:13]"
C       -1.55048280       0.74338656      -0.36067227
C       -1.16211618      -0.66764136      -0.02342437
C        0.64270749      -0.93071493      -0.71569921
C        1.26288216       0.35558917      -0.89381003
C        1.62858624       0.75747850       0.50333705
C        0.88255284       0.08345461       1.38214669
C        0.13202015      -1.00757994       0.69015797
H       -2.31531548       0.86741243      -1.12172774
H       -2.20787978      -0.04532711       0.66928087
H       -1.25456883       1.52253685       0.33768709
H       -1.69203554      -1.48677240      -0.49763590
H        0.65866201      -1.73312647      -1.43713785
H       -0.13862871       1.09135115      -1.18426204
H        2.03891471       0.43831919      -1.65057312
H        2.26651310       1.60038489       0.73793283
H        0.65904315       0.39427115       2.39471364
H        0.14914547      -1.98302228       1.16968641
17
Frame=14 idx=011925 GeodesicLength=1.1346429537854237 rxn_smarts="[C:1]([C@@:2]1([H:11])[C@@:3]2([H:12])[C:4]([H:13])([H:14])[C:5]([H:15])=[C:6]([H:16])[C@@:7]12[H:17])([H:8])([H:9])[H:10]>>[C:1]([C:2]([C:7]1([H:17])[C:3]([H:12])=[C:4]([H:14])[C:5]([H:15])=[C:6]1[H:16])([H:9])[H:11])([H:8])([H:10])[H:13]"
C       -1.56119848       0.74084542      -0.36064039
C       -1.16329324      -0.66998370      -0.02511453
C        0.63903501      -0.92187160      -0.71953119
C        1.27473361       0.35789358      -0.89255424
C        1.64273884       0.75012834       0.50660133
C        0.88478280       0.08451869       1.38205515
C        0.13064304      -1.00268891       0.68916703
H       -2.33026282       0.85890612      -1.11880549
H       -2.22041781      -0.04251768       0.67583304
H       -1.25511985       1.52029262       0.33361281
H       -1.69332359      -1.49313515      -0.49263567
H        0.66301225      -1.72532063      -1.43982824
H       -0.16321632       1.10330613      -1.19263340
H        2.05825008       0.42846430      -1.64303264
H        2.28750033       1.58682824       0.74470278
H        0.65012261       0.40489675       2.38919364
H        0.15601355      -1.98056252       1.16360999
17
Frame=15 idx=011925 GeodesicLength=1.2156991494276186 rxn_smarts="[C:1]([C@@:2]1([H:11])[C@@:3]2([H:12])[C:4]([H:13])([H:14])[C:5]([H:15])=[C:6]([H:16])[C@@:7]12[H:17])([H:8])([H:9])[H:10]>>[C:1]([C:2]([C:7]1([H:17])[C:3]([H:12])=[C:4]([H:14])[C:5]([H:15])=[C:6]1[H:16])([H:9])[H:11])([H:8])([H:10])[H:13]"
C       -1.57209812       0.73829347      -0.36046813
C       -1.16439937      -0.67226763      -0.02697384
C        0.63537582      -0.91270131      -0.72349947
C        1.28725279       0.35997296      -0.89115543
C        1.65705983       0.74254852       0.51005428
C        0.88695346       0.08566804       1.38192843
C        0.12929952      -0.99769171       0.68803707
H       -2.34559831       0.85033214      -1.11546572
H       -2.23298727      -0.03960140       0.68265591
H       -1.25564846       1.51804329       0.32940696
H       -1.69450209      -1.49944598      -0.48770170
H        0.66742867      -1.71726808      -1.44249775
H       -0.18887083       1.11528042      -1.20164245
H        2.07818244       0.41795859      -1.63513179
H        2.30824778       1.57322384       0.75174736
H        0.64137087       0.41562078       2.38344408
H        0.16293328      -1.97796593       1.15726219
17
Frame=16 idx=011925 GeodesicLength=1.2967146138438999 rxn_smarts="[C:1]([C@@:2]1([H:11])[C@@:3]2([H:12])[C:4]([H:13])([H:14])[C:5]([H:15])=[C:6]([H:16])[C@@:7]12[H:17])([H:8])([H:9])[H:10]>>[C:1]([C:2]([C:7]1([H:17])[C:3]([H:12])=[C:4]([H:14])[C:5]([H:15])=[C:6]1[H:16])([H:9])[H:11])([H:8])([H:10])[H:13]"
C       -1.58319077       0.73573034      -0.36014753
C       -1.16542928      -0.67448719      -0.02901398
C        0.63173426      -0.90317442      -0.72761713
C        1.30048269       0.36180524      -0.88960257
C        1.67155877       0.73472631       0.51371493
C        0.88906252       0.08690416       1.38176357
C        0.12799531      -0.99258467       0.68675301
H       -2.36136479       0.84168485      -1.11165911
H       -2.24556687      -0.03656738       0.68978101
H       -1.25613250       1.51579759       0.32503840
H       -1.69556380      -1.50569912      -0.48284265
H        0.67190386      -1.70894222      -1.44515722
H       -0.21567456       1.12724938      -1.21134966
H        2.09875172       0.40674839      -1.62683845
H        2.32874491       1.55959476       0.75909758
H        0.63277588       0.42644608       2.37746215
H        0.16991266      -1.97523210       1.15061765
