15
Frame=0 idx=007687 GeodesicLength=0.0 rxn_smarts="[C:1]([C@@:2]1([H:11])[C@@:3]2([H:12])[O:4][C@@:5]2([H:13])[C@:6]1([O:7][H:15])[H:14])([H:8])([H:9])[H:10]>>[C:1](=[C:2]([C:3]([O:4]/[C:5](=[C:6](\[O:7][H:15])[H:14])[H:13])([H:10])[H:12])[H:11])([H:8])[H:9]"
C        1.64176205      -0.39895280       0.06144442
C        0.42119461       0.29414939       0.54283012
C        0.13360885       1.12962870      -0.68894206
O       -0.71921713       0.33132100      -1.54772593
C       -1.52802828       0.28999275      -0.46851795
C       -0.97468723      -0.50460819       0.63791127
O       -0.84744851      -1.87876596       0.41798274
H        1.49861369      -1.02521420      -0.81880155
H        2.38742750      -0.79043283       0.75219217
H        1.38179852       0.85973838      -0.94950362
H        0.56977423       0.90011944       1.43270722
H       -0.14498914       2.18350704      -0.62816229
H       -2.35806961       0.98912561      -0.41394325
H       -1.51092053      -0.33904862       1.57238995
H        0.04918103      -2.04055973       0.09813870
15
Frame=1 idx=007687 GeodesicLength=0.16170113899343938 rxn_smarts="[C:1]([C@@:2]1([H:11])[C@@:3]2([H:12])[O:4][C@@:5]2([H:13])[C@:6]1([O:7][H:15])[H:14])([H:8])([H:9])[H:10]>>[C:1](=[C:2]([C:3]([O:4]/[C:5](=[C:6](\[O:7][H:15])[H:14])[H:13])([H:10])[H:12])[H:11])([H:8])[H:9]"
C        1.66158780      -0.37914133       0.08387277
C        0.43502288       0.30609672       0.53990362
C        0.12051069       1.12319023      -0.69561066
O       -0.74179178       0.32224929      -1.53811362
C       -1.54082563       0.29602339      -0.44785145
C       -0.98709194      -0.50708455       0.64849209
O       -0.86307569      -1.87886142       0.42011792
H        1.62517014      -0.99200266      -0.81565313
H        2.37075597      -0.82649221       0.78055675
H        1.37623135       0.82033920      -0.99165226
H        0.56553725       0.91925460       1.42783729
H       -0.14574076       2.18064459      -0.64715460
H       -2.36799100       0.99772245      -0.38983548
H       -1.51828911      -0.34863977       1.58696574
H        0.00998984      -2.03329855       0.03812503
15
Frame=2 idx=007687 GeodesicLength=0.32285923908700676 rxn_smarts="[C:1]([C@@:2]1([H:11])[C@@:3]2([H:12])[O:4][C@@:5]2([H:13])[C@:6]1([O:7][H:15])[H:14])([H:8])([H:9])[H:10]>>[C:1](=[C:2]([C:3]([O:4]/[C:5](=[C:6](\[O:7][H:15])[H:14])[H:13])([H:10])[H:12])[H:11])([H:8])[H:9]"
C        1.68090551      -0.36062727       0.10399583
C        0.44903791       0.31686181       0.53603387
C        0.10761124       1.11555462      -0.70239535
O       -0.76528920       0.31347589      -1.52842184
C       -1.55377545       0.30269629      -0.42693520
C       -1.00081712      -0.51010042       0.65884550
O       -0.87986347      -1.87933535       0.42110555
H        1.75994356      -0.95034279      -0.80754121
H        2.35279413      -0.86034096       0.80378092
H        1.36949309       0.77622851      -1.03303994
H        0.56183915       0.93599742       1.42239421
H       -0.14529466       2.17654883      -0.66648852
H       -2.37732390       1.00775255      -0.36496057
H       -1.52663539      -0.35900295       1.60140659
H       -0.03262540      -2.02536619      -0.01777984
15
Frame=3 idx=007687 GeodesicLength=0.4832831916675274 rxn_smarts="[C:1]([C@@:2]1([H:11])[C@@:3]2([H:12])[O:4][C@@:5]2([H:13])[C@:6]1([O:7][H:15])[H:14])([H:8])([H:9])[H:10]>>[C:1](=[C:2]([C:3]([O:4]/[C:5](=[C:6](\[O:7][H:15])[H:14])[H:13])([H:10])[H:12])[H:11])([H:8])[H:9]"
C        1.69973724      -0.34379326       0.12149796
C        0.46329099       0.32614851       0.53101021
C        0.09487224       1.10649404      -0.70946421
O       -0.78999643       0.30488739      -1.51863892
C       -1.56695189       0.31011355      -0.40565186
C       -1.01600378      -0.51359412       0.66905874
O       -0.89881729      -1.88016277       0.42112517
H        1.90464207      -0.89645237      -0.79315130
H        2.33373791      -0.89308064       0.82147758
H        1.36111061       0.72631530      -1.07414331
H        0.55893833       0.95008952       1.41617662
H       -0.14348328       2.17099704      -0.68640438
H       -2.38600186       1.01945430      -0.33919984
H       -1.53599464      -0.36986338       1.61582652
H       -0.07908022      -2.01755312      -0.06951897
15
Frame=4 idx=007687 GeodesicLength=0.6426429492553682 rxn_smarts="[C:1]([C@@:2]1([H:11])[C@@:3]2([H:12])[O:4][C@@:5]2([H:13])[C@:6]1([O:7][H:15])[H:14])([H:8])([H:9])[H:10]>>[C:1](=[C:2]([C:3]([O:4]/[C:5](=[C:6](\[O:7][H:15])[H:14])[H:13])([H:10])[H:12])[H:11])([H:8])[H:9]"
C        1.71805201      -0.32919653       0.13621330
C        0.47782897       0.33364027       0.52467004
C        0.08234128       1.09547104      -0.71712989
O       -0.81626603       0.29607344      -1.50867611
C       -1.58039917       0.31834380      -0.38378892
C       -1.03283524      -0.51743550       0.67939021
O       -0.92082194      -1.88126682       0.42074730
H        2.06168265      -0.82335878      -0.76988247
H        2.31324883      -0.92768353       0.83204859
H        1.35038085       0.66855285      -1.11549440
H        0.55715946       0.96142377       1.40889049
H       -0.13992768       2.16345353      -0.70762519
H       -2.39385480       1.03309146      -0.31245055
H       -1.54643121      -0.38075471       1.63048634
H       -0.13015797      -2.01035427      -0.11739873
15
Frame=5 idx=007687 GeodesicLength=0.8000818795403856 rxn_smarts="[C:1]([C@@:2]1([H:11])[C@@:3]2([H:12])[O:4][C@@:5]2([H:13])[C@:6]1([O:7][H:15])[H:14])([H:8])([H:9])[H:10]>>[C:1](=[C:2]([C:3]([O:4]/[C:5](=[C:6](\[O:7][H:15])[H:14])[H:13])([H:10])[H:12])[H:11])([H:8])[H:9]"
C        1.73572058      -0.31780519       0.14789684
C        0.49265564       0.33871703       0.51688729
C        0.07031942       1.08146041      -0.72596391
O       -0.84459342       0.28647983      -1.49852863
C       -1.59413648       0.32765080      -0.36114163
C       -1.05169448      -0.52146693       0.69013331
O       -0.94721045      -1.88259944       0.42049044
H        2.23341406      -0.71918834      -0.73186491
H        2.29163569      -0.96875525       0.83109767
H        1.33610955       0.59872206      -1.15793226
H        0.55693965       0.96972202       1.40021301
H       -0.13366767       2.15295499      -0.73124765
H       -2.40039212       1.04947314      -0.28453888
H       -1.55820533      -0.39105714       1.64570281
H       -0.18689463      -2.00430798      -0.16120351
15
Frame=6 idx=007687 GeodesicLength=0.952551717383414 rxn_smarts="[C:1]([C@@:2]1([H:11])[C@@:3]2([H:12])[O:4][C@@:5]2([H:13])[C@:6]1([O:7][H:15])[H:14])([H:8])([H:9])[H:10]>>[C:1](=[C:2]([C:3]([O:4]/[C:5](=[C:6](\[O:7][H:15])[H:14])[H:13])([H:10])[H:12])[H:11])([H:8])[H:9]"
C        1.75375432      -0.30857637       0.15684630
C        0.50805659       0.34118624       0.50793407
C        0.06006781       1.06306232      -0.73681794
O       -0.87465178       0.27539013      -1.48831771
C       -1.60737304       0.33820910      -0.33784573
C       -1.07246852      -0.52542840       0.70145168
O       -0.97844731      -1.88393685       0.42102158
H        2.41342365      -0.56930796      -0.66747588
H        2.27006298      -1.02352150       0.80796284
H        1.31739803       0.51029857      -1.20145254
H        0.55844526       0.97529926       1.39006176
H       -0.12313858       2.13795739      -0.75869384
H       -2.40424899       1.06926140      -0.25565515
H       -1.57140070      -0.40020291       1.66146655
H       -0.24947972      -1.99969042      -0.20048600
15
Frame=7 idx=007687 GeodesicLength=1.0975550027967849 rxn_smarts="[C:1]([C@@:2]1([H:11])[C@@:3]2([H:12])[O:4][C@@:5]2([H:13])[C@:6]1([O:7][H:15])[H:14])([H:8])([H:9])[H:10]>>[C:1](=[C:2]([C:3]([O:4]/[C:5](=[C:6](\[O:7][H:15])[H:14])[H:13])([H:10])[H:12])[H:11])([H:8])[H:9]"
C        1.77395896      -0.29931444       0.16506335
C        0.52433063       0.34044173       0.50012119
C        0.05416238       1.03957494      -0.74865346
O       -0.90213210       0.26194619      -1.47848537
C       -1.61789061       0.34930817      -0.31593332
C       -1.09535856      -0.52895757       0.71333985
O       -1.01473481      -1.88526294       0.42416989
H        2.57135584      -0.37506859      -0.57084982
H        2.26264109      -1.08944078       0.74687057
H        1.29836469       0.40354246      -1.23992518
H        0.56075239       0.97783296       1.38064601
H       -0.10621015       2.11751296      -0.78955703
H       -2.40356061       1.09149835      -0.23031293
H       -1.58836665      -0.40666095       1.67653952
H       -0.31731247      -1.99695248      -0.23303325
15
Frame=8 idx=007687 GeodesicLength=1.2425942029684502 rxn_smarts="[C:1]([C@@:2]1([H:11])[C@@:3]2([H:12])[O:4][C@@:5]2([H:13])[C@:6]1([O:7][H:15])[H:14])([H:8])([H:9])[H:10]>>[C:1](=[C:2]([C:3]([O:4]/[C:5](=[C:6](\[O:7][H:15])[H:14])[H:13])([H:10])[H:12])[H:11])([H:8])[H:9]"
C        1.79783593      -0.28551882       0.17551065
C        0.54140633       0.33804918       0.49575581
C        0.05344110       1.01317173      -0.75932731
O       -0.92235755       0.24596293      -1.46922584
C       -1.62416579       0.35969538      -0.29742923
C       -1.11967417      -0.53204371       0.72523884
O       -1.05297003      -1.88658646       0.43063327
H        2.67889305      -0.17389700      -0.45356187
H        2.27918145      -1.14983373       0.64537552
H        1.28695303       0.29154443      -1.26500196
H        0.56190539       0.97869380       1.37448888
H       -0.08465314       2.09322906      -0.82078836
H       -2.39817409       1.11358066      -0.21198490
H       -1.60975526      -0.41024270       1.68975013
H       -0.38786623      -1.99580474      -0.25943363
15
Frame=9 idx=007687 GeodesicLength=1.3914151469949627 rxn_smarts="[C:1]([C@@:2]1([H:11])[C@@:3]2([H:12])[O:4][C@@:5]2([H:13])[C@:6]1([O:7][H:15])[H:14])([H:8])([H:9])[H:10]>>[C:1](=[C:2]([C:3]([O:4]/[C:5](=[C:6](\[O:7][H:15])[H:14])[H:13])([H:10])[H:12])[H:11])([H:8])[H:9]"
C        1.82479962      -0.26711522       0.18903932
C        0.55918462       0.33507812       0.49518501
C        0.05626140       0.98680757      -0.76671123
O       -0.93486982       0.22895616      -1.46016325
C       -1.62693008       0.36895963      -0.28228260
C       -1.14517625      -0.53506792       0.73660685
O       -1.09183843      -1.88807056       0.43875235
H        2.74082196       0.00117982      -0.33548539
H        2.31845445      -1.18592565       0.51901067
H        1.28416473       0.18318958      -1.27554812
H        0.56134935       0.97802023       1.37255294
H       -0.06086296       2.06797612      -0.84932737
H       -2.39010305       1.13379086      -0.20055610
H       -1.63556860      -0.41228910       1.70061716
H       -0.45968693      -1.99548964      -0.28169023
15
Frame=10 idx=007687 GeodesicLength=1.5425546367147838 rxn_smarts="[C:1]([C@@:2]1([H:11])[C@@:3]2([H:12])[O:4][C@@:5]2([H:13])[C@:6]1([O:7][H:15])[H:14])([H:8])([H:9])[H:10]>>[C:1](=[C:2]([C:3]([O:4]/[C:5](=[C:6](\[O:7][H:15])[H:14])[H:13])([H:10])[H:12])[H:11])([H:8])[H:9]"
C        1.85334972      -0.24783818       0.20249572
C        0.57795874       0.33053186       0.49662828
C        0.06116931       0.96084692      -0.77104231
O       -0.94284842       0.21259304      -1.45104814
C       -1.62753862       0.37802195      -0.26896719
C       -1.17204097      -0.53844015       0.74693501
O       -1.13291223      -1.88972913       0.44573852
H        2.77462039       0.14834266      -0.22461202
H        2.37632618      -1.18967676       0.38630682
H        1.28501199       0.07539305      -1.27579847
H        0.56091100       0.97397279       1.37354887
H       -0.03520226       2.04231946      -0.87441098
H       -2.38012691       1.15340390      -0.19257163
H       -1.66466103      -0.41422390       1.70939858
H       -0.53401689      -1.99551751      -0.30260107
15
Frame=11 idx=007687 GeodesicLength=1.6951028205039869 rxn_smarts="[C:1]([C@@:2]1([H:11])[C@@:3]2([H:12])[O:4][C@@:5]2([H:13])[C@:6]1([O:7][H:15])[H:14])([H:8])([H:9])[H:10]>>[C:1](=[C:2]([C:3]([O:4]/[C:5](=[C:6](\[O:7][H:15])[H:14])[H:13])([H:10])[H:12])[H:11])([H:8])[H:9]"
C        1.88299278      -0.22979578       0.21130634
C        0.59830430       0.32351567       0.49777702
C        0.06705342       0.93507521      -0.77370711
O       -0.94909877       0.19742911      -1.44191892
C       -1.62680645       0.38736436      -0.25622517
C       -1.19997582      -0.54229406       0.75620072
O       -1.17696749      -1.89148508       0.45061058
H        2.79218092       0.27456524      -0.11912841
H        2.44789312      -1.16314195       0.25855402
H        1.28603971      -0.03393484      -1.26986457
H        0.56275624       0.96527011       1.37545324
H       -0.00833069       2.01618638      -0.89679474
H       -2.36860244       1.17319935      -0.18523401
H       -1.69500449      -0.41646979       1.71699637
H       -0.61243432      -1.99548392      -0.32402539
15
Frame=12 idx=007687 GeodesicLength=1.8482092121481501 rxn_smarts="[C:1]([C@@:2]1([H:11])[C@@:3]2([H:12])[O:4][C@@:5]2([H:13])[C@:6]1([O:7][H:15])[H:14])([H:8])([H:9])[H:10]>>[C:1](=[C:2]([C:3]([O:4]/[C:5](=[C:6](\[O:7][H:15])[H:14])[H:13])([H:10])[H:12])[H:11])([H:8])[H:9]"
C        1.91416763      -0.21227724       0.21238229
C        0.62062636       0.31372940       0.49723443
C        0.07329753       0.90932590      -0.77572203
O       -0.95505166       0.18349459      -1.43280427
C       -1.62497421       0.39711181      -0.24338243
C       -1.22858162      -0.54654189       0.76451954
O       -1.22370555      -1.89312933       0.45331871
H        2.79927986       0.38518380      -0.01573571
H        2.52972398      -1.11057702       0.14009585
H        1.28483765      -0.14680924      -1.25963003
H        0.56785690       0.95139778       1.37708365
H        0.01915083       1.98947245      -0.91738190
H       -2.35554639       1.19343602      -0.17716112
H       -1.72540267      -0.41902720       1.72393386
H       -0.69567864      -1.99478982      -0.34675084
15
Frame=13 idx=007687 GeodesicLength=2.00111586384639 rxn_smarts="[C:1]([C@@:2]1([H:11])[C@@:3]2([H:12])[O:4][C@@:5]2([H:13])[C@:6]1([O:7][H:15])[H:14])([H:8])([H:9])[H:10]>>[C:1](=[C:2]([C:3]([O:4]/[C:5](=[C:6](\[O:7][H:15])[H:14])[H:13])([H:10])[H:12])[H:11])([H:8])[H:9]"
C        1.94744059      -0.19321329       0.20447167
C        0.64511627       0.30143167       0.49467152
C        0.07980377       0.88344789      -0.77759117
O       -0.96077752       0.17019720      -1.42372353
C       -1.62193442       0.40702205      -0.23039277
C       -1.25762571      -0.55092588       0.77215284
O       -1.27257635      -1.89439960       0.45452468
H        2.79893135       0.48255663       0.08979102
H        2.61805182      -1.03518410       0.02740749
H        1.28053331      -0.26483527      -1.24427893
H        0.57625390       0.93256631       1.37815590
H        0.04683509       1.96200994      -0.93705459
H       -2.34095643       1.21378464      -0.16848736
H       -1.75550077      -0.42146150       1.73051168
H       -0.78359490      -1.99299671      -0.37015844
15
Frame=14 idx=007687 GeodesicLength=2.15332125184946 rxn_smarts="[C:1]([C@@:2]1([H:11])[C@@:3]2([H:12])[O:4][C@@:5]2([H:13])[C@:6]1([O:7][H:15])[H:14])([H:8])([H:9])[H:10]>>[C:1](=[C:2]([C:3]([O:4]/[C:5](=[C:6](\[O:7][H:15])[H:14])[H:13])([H:10])[H:12])[H:11])([H:8])[H:9]"
C        1.98299577      -0.17073756       0.18805079
C        0.67183724       0.28709866       0.49072199
C        0.08696481       0.85724749      -0.77920794
O       -0.96514795       0.15634958      -1.41463003
C       -1.61734370       0.41655548      -0.21774888
C       -1.28713548      -0.55506491       0.77944870
O       -1.32302137      -1.89505616       0.45544395
H        2.79269948       0.56531192       0.20097088
H        2.70850809      -0.93645303      -0.08840691
H        1.27408167      -0.38876765      -1.22056279
H        0.58746106       0.90930119       1.37918312
H        0.07470832       1.93353635      -0.95634166
H       -2.32484977       1.23346686      -0.16076224
H       -1.78584480      -0.42288752       1.73673914
H       -0.87591337      -1.98990069      -0.39289813
15
Frame=15 idx=007687 GeodesicLength=2.3041294231180487 rxn_smarts="[C:1]([C@@:2]1([H:11])[C@@:3]2([H:12])[O:4][C@@:5]2([H:13])[C@:6]1([O:7][H:15])[H:14])([H:8])([H:9])[H:10]>>[C:1](=[C:2]([C:3]([O:4]/[C:5](=[C:6](\[O:7][H:15])[H:14])[H:13])([H:10])[H:12])[H:11])([H:8])[H:9]"
C        2.02024458      -0.14432228       0.16512973
C        0.70081530       0.27175271       0.48669701
C        0.09542289       0.83083197      -0.77995541
O       -0.96618773       0.14045656      -1.40542407
C       -1.61075960       0.42490128      -0.20631124
C       -1.31714021      -0.55857201       0.78669149
O       -1.37393534      -1.89499143       0.45745377
H        2.78257470       0.62765702       0.31817278
H        2.79425868      -0.81031792      -0.21669743
H        1.26847748      -0.51746180      -1.18393775
H        0.60085134       0.88268340       1.38124539
H        0.10282150       1.90407759      -0.97520279
H       -2.30761055       1.25107827      -0.15650411
H       -1.81747894      -0.42235409       1.74228223
H       -0.97235409      -1.98541928      -0.41363962
15
Frame=16 idx=007687 GeodesicLength=2.452629840699268 rxn_smarts="[C:1]([C@@:2]1([H:11])[C@@:3]2([H:12])[O:4][C@@:5]2([H:13])[C@:6]1([O:7][H:15])[H:14])([H:8])([H:9])[H:10]>>[C:1](=[C:2]([C:3]([O:4]/[C:5](=[C:6](\[O:7][H:15])[H:14])[H:13])([H:10])[H:12])[H:11])([H:8])[H:9]"
C        2.05791658      -0.11607992       0.13950164
C        0.73200863       0.25681893       0.48429154
C        0.10602337       0.80444653      -0.77899000
O       -0.96163034       0.12103143      -1.39596212
C       -1.60172850       0.43122428      -0.19704775
C       -1.34763394      -0.56122792       0.79390026
O       -1.42416446      -1.89426544       0.46125883
H        2.77208241       0.66182770       0.43673347
H        2.86421252      -0.65014013      -0.36308902
H        1.26870828      -0.64812418      -1.13009542
H        0.61594433       0.85435201       1.38564884
H        0.13154199       1.87384047      -0.99312310
H       -2.28962877       1.26516634      -0.15817820
H       -1.85147989      -0.41930263       1.74650960
H       -1.07217224      -1.97956750      -0.43135857
