16
Frame=0 idx=007555 GeodesicLength=0.0 rxn_smarts="[C:1]([C@@:2]1([C:3]([C:4]#[C:5][H:13])([H:11])[H:12])[C:6]([H:14])([H:15])[N:7]1[H:16])([H:8])([H:9])[H:10]>>[C:1]([C+:2]1[C:3]([H:11])([H:12])[C:4](=[C-:5][H:13])[C:6]([H:14])([H:15])[N:7]1[H:16])([H:8])([H:9])[H:10]"
C       -0.30010738       1.60938102       0.34192667
C       -0.42071542       0.30078452      -0.36759469
C        0.62564050      -0.17314863      -1.33017661
C        0.97018302      -0.79566258      -0.03814731
C        1.82508729      -0.93044160       0.95196951
C       -0.75601595      -1.18230862       0.50054045
N       -1.65237895      -0.39062907      -0.35286588
H        0.72917512       1.96007550       0.35008088
H       -0.64368778       1.52889398       1.37429819
H       -0.93223212       2.33567153      -0.17823151
H        1.30818732       0.59516582      -1.68027369
H        0.24133756      -0.81048331      -2.12467904
H        2.85174666      -0.94627672       0.56041005
H       -0.74050094      -2.23014338       0.22627453
H       -0.77163410      -0.98571453       1.56559636
H       -2.33408485       0.11483609       0.20087208
16
Frame=1 idx=007555 GeodesicLength=0.09076252382960616 rxn_smarts="[C:1]([C@@:2]1([C:3]([C:4]#[C:5][H:13])([H:11])[H:12])[C:6]([H:14])([H:15])[N:7]1[H:16])([H:8])([H:9])[H:10]>>[C:1]([C+:2]1[C:3]([H:11])([H:12])[C:4](=[C-:5][H:13])[C:6]([H:14])([H:15])[N:7]1[H:16])([H:8])([H:9])[H:10]"
C       -0.30948409       1.62083920       0.33880399
C       -0.42443463       0.30631647      -0.36025191
C        0.62336043      -0.17162038      -1.31829460
C        0.98737654      -0.80722869      -0.03592649
C        1.85539030      -0.95316067       0.93574165
C       -0.75648526      -1.18594210       0.50288324
N       -1.65121448      -0.38718051      -0.34502485
H        0.72215904       1.96385831       0.37122553
H       -0.68018921       1.55574385       1.36283867
H       -0.91759799       2.34869644      -0.20695633
H        1.30220348       0.59683357      -1.67545798
H        0.23984711      -0.81104761      -2.11181302
H        2.88315220      -0.95440103       0.54971826
H       -0.75285218      -2.23138267       0.21725578
H       -0.78130237      -1.00280637       1.57038741
H       -2.33992888       0.11248218       0.20487065
16
Frame=2 idx=007555 GeodesicLength=0.1812375864795187 rxn_smarts="[C:1]([C@@:2]1([C:3]([C:4]#[C:5][H:13])([H:11])[H:12])[C:6]([H:14])([H:15])[N:7]1[H:16])([H:8])([H:9])[H:10]>>[C:1]([C+:2]1[C:3]([H:11])([H:12])[C:4](=[C-:5][H:13])[C:6]([H:14])([H:15])[N:7]1[H:16])([H:8])([H:9])[H:10]"
C       -0.31921337       1.63253936       0.33549574
C       -0.42830519       0.31200150      -0.35271845
C        0.62127210      -0.17004092      -1.30580406
C        1.00486563      -0.81907959      -0.03375038
C        1.88628865      -0.97603016       0.91860198
C       -0.75686340      -1.18946339       0.50548175
N       -1.65005921      -0.38379311      -0.33692044
H        0.71414132       1.96784795       0.39294996
H       -0.71740319       1.58320659       1.35005429
H       -0.90221183       2.36133426      -0.23562508
H        1.29638736       0.59849140      -1.67005633
H        0.23857358      -0.81121266      -2.09864245
H        2.91499525      -0.96347194       0.53823627
H       -0.76511412      -2.23229400       0.20860731
H       -0.79147324      -1.02004872       1.57520959
H       -2.34588035       0.11001343       0.20888032
16
Frame=3 idx=007555 GeodesicLength=0.2714460706119684 rxn_smarts="[C:1]([C@@:2]1([C:3]([C:4]#[C:5][H:13])([H:11])[H:12])[C:6]([H:14])([H:15])[N:7]1[H:16])([H:8])([H:9])[H:10]>>[C:1]([C+:2]1[C:3]([H:11])([H:12])[C:4](=[C-:5][H:13])[C:6]([H:14])([H:15])[N:7]1[H:16])([H:8])([H:9])[H:10]"
C       -0.32929596       1.64448152       0.33199550
C       -0.43232966       0.31784477      -0.34498614
C        0.61938896      -0.16841502      -1.29266699
C        1.02265598      -0.83123513      -0.03161518
C        1.91778265      -0.99910235       0.90048982
C       -0.75715942      -1.19286486       0.50835286
N       -1.64891510      -0.38045608      -0.32854481
H        0.70505541       1.97206426       0.41526813
H       -0.75529765       1.61126050       1.33587004
H       -0.88605336       2.37356427      -0.26420924
H        1.29075749       0.60012872      -1.66403317
H        0.23753072      -0.81097480      -2.08514196
H        2.94729190      -0.97342229       0.52592346
H       -0.77729507      -2.23287021       0.20034217
H       -0.80217868      -1.03744712       1.58005803
H       -2.35193822       0.10744381       0.21289747
16
Frame=4 idx=007555 GeodesicLength=0.36141117380235527 rxn_smarts="[C:1]([C@@:2]1([C:3]([C:4]#[C:5][H:13])([H:11])[H:12])[C:6]([H:14])([H:15])[N:7]1[H:16])([H:8])([H:9])[H:10]>>[C:1]([C+:2]1[C:3]([H:11])([H:12])[C:4](=[C-:5][H:13])[C:6]([H:14])([H:15])[N:7]1[H:16])([H:8])([H:9])[H:10]"
C       -0.33974362       1.65666804       0.32829242
C       -0.43651259       0.32385168      -0.33704788
C        0.61772568      -0.16674665      -1.27884105
C        1.04075335      -0.84371518      -0.02951594
C        1.94987247      -1.02243488       0.88133770
C       -0.75738022      -1.19613810       0.51151789
N       -1.64778494      -0.37716165      -0.31988929
H        0.69482663       1.97653367       0.43819102
H       -0.79385124       1.63987911       1.32020304
H       -0.86907995       2.38537543      -0.29267317
H        1.28533239       0.60173701      -1.65734913
H        0.23673720      -0.81032875      -2.07128182
H        2.98005643      -0.98419219       0.51273043
H       -0.78939833      -2.23310545       0.19247950
H       -0.81344902      -1.05500486       1.58492758
H       -2.35810423       0.10478277       0.21691870
16
Frame=5 idx=007555 GeodesicLength=0.45114482431307945 rxn_smarts="[C:1]([C@@:2]1([C:3]([C:4]#[C:5][H:13])([H:11])[H:12])[C:6]([H:14])([H:15])[N:7]1[H:16])([H:8])([H:9])[H:10]>>[C:1]([C+:2]1[C:3]([H:11])([H:12])[C:4](=[C-:5][H:13])[C:6]([H:14])([H:15])[N:7]1[H:16])([H:8])([H:9])[H:10]"
C       -0.35056760       1.66910264       0.32436437
C       -0.44085916       0.33002731      -0.32890105
C        0.61629744      -0.16504013      -1.26428673
C        1.05916436      -0.85653171      -0.02744733
C        1.98255009      -1.04607326       0.86107101
C       -0.75753323      -1.19927352       0.51499598
N       -1.64667097      -0.37390155      -0.31094637
H        0.68336747       1.98128804       0.46171486
H       -0.83299614       1.66902225       1.30297941
H       -0.85127245       2.39675181      -0.32096067
H        1.28012967       0.60330651      -1.64996939
H        0.23621073      -0.80927306      -2.05703423
H        3.01329444      -0.99573329       0.49863725
H       -0.80142173      -2.23299041       0.18503426
H       -0.82531488      -1.07272375       1.58980940
H       -2.36437803       0.10204213       0.22093924
16
Frame=6 idx=007555 GeodesicLength=0.5406752856927273 rxn_smarts="[C:1]([C@@:2]1([C:3]([C:4]#[C:5][H:13])([H:11])[H:12])[C:6]([H:14])([H:15])[N:7]1[H:16])([H:8])([H:9])[H:10]>>[C:1]([C+:2]1[C:3]([H:11])([H:12])[C:4](=[C-:5][H:13])[C:6]([H:14])([H:15])[N:7]1[H:16])([H:8])([H:9])[H:10]"
C       -0.36177477       1.68178426       0.32020554
C       -0.44537198       0.33637755      -0.32053593
C        0.61512418      -0.16329921      -1.24895056
C        1.07789730      -0.86970997      -0.02540163
C        2.01581554      -1.07009468       0.83959913
C       -0.75762421      -1.20226156       0.51881490
N       -1.64557346      -0.37066861      -0.30170429
H        0.67058755       1.98636730       0.48584240
H       -0.87273862       1.69867927       1.28408581
H       -0.83258686       2.40767878      -0.34901704
H        1.27517390       0.60483059      -1.64184230
H        0.23597720      -0.80779620      -2.04236209
H        3.04702114      -1.00799862       0.48357964
H       -0.81336398      -2.23251803       0.17803069
H       -0.83780283      -1.09060196       1.59469975
H       -2.37076009       0.09923107       0.22495597
16
Frame=7 idx=007555 GeodesicLength=0.6300139680355383 rxn_smarts="[C:1]([C@@:2]1([C:3]([C:4]#[C:5][H:13])([H:11])[H:12])[C:6]([H:14])([H:15])[N:7]1[H:16])([H:8])([H:9])[H:10]>>[C:1]([C+:2]1[C:3]([H:11])([H:12])[C:4](=[C-:5][H:13])[C:6]([H:14])([H:15])[N:7]1[H:16])([H:8])([H:9])[H:10]"
C       -0.37337050       1.69471182       0.31579918
C       -0.45005352       0.34290633      -0.31194668
C        0.61422751      -0.16152874      -1.23278267
C        1.09696164      -0.88326651      -0.02337003
C        2.04965586      -1.09455970       0.81682999
C       -0.75766041      -1.20509203       0.52300085
N       -1.64449148      -0.36745422      -0.29215203
H        0.65638510       1.99181412       0.51055562
H       -0.91304310       1.72882811       1.26340945
H       -0.81299985       2.41813659      -0.37675107
H        1.27048797       0.60630048      -1.63292320
H        0.23606090      -0.80589225      -2.02723269
H        3.08124572      -1.02095018       0.46751949
H       -0.82521754      -2.23167825       0.17148791
H       -0.85094063      -1.10863860       1.59959152
H       -2.37724768       0.09636302       0.22896437
16
Frame=8 idx=007555 GeodesicLength=0.7191811525233721 rxn_smarts="[C:1]([C@@:2]1([C:3]([C:4]#[C:5][H:13])([H:11])[H:12])[C:6]([H:14])([H:15])[N:7]1[H:16])([H:8])([H:9])[H:10]>>[C:1]([C+:2]1[C:3]([H:11])([H:12])[C:4](=[C-:5][H:13])[C:6]([H:14])([H:15])[N:7]1[H:16])([H:8])([H:9])[H:10]"
C       -0.38536577       1.70788294       0.31112217
C       -0.45490606       0.34961634      -0.30312871
C        0.61363163      -0.15973208      -1.21572447
C        1.11636764      -0.89722508      -0.02134355
C        2.08405972      -1.11955133       0.79265032
C       -0.75764661      -1.20775129       0.52758848
N       -1.64342204      -0.36425349      -0.28227605
H        0.64064950       1.99767762       0.53583774
H       -0.95390091       1.75944731       1.24082680
H       -0.79247027       2.42811469      -0.40406934
H        1.26610305       0.60770571      -1.62315523
H        0.23649059      -0.80354565      -2.01160929
H        3.11597494      -1.03454634       0.45040412
H       -0.83697278      -2.23045846       0.16543397
H       -0.86475345      -1.12682711       1.60448274
H       -2.38383917       0.09344622       0.23296031
16
Frame=9 idx=007555 GeodesicLength=0.8081830238476497 rxn_smarts="[C:1]([C@@:2]1([C:3]([C:4]#[C:5][H:13])([H:11])[H:12])[C:6]([H:14])([H:15])[N:7]1[H:16])([H:8])([H:9])[H:10]>>[C:1]([C+:2]1[C:3]([H:11])([H:12])[C:4](=[C-:5][H:13])[C:6]([H:14])([H:15])[N:7]1[H:16])([H:8])([H:9])[H:10]"
C       -0.39772514       1.72130433       0.30616198
C       -0.45989886       0.35651472      -0.29405796
C        0.61335886      -0.15793012      -1.19769220
C        1.13612768      -0.91166798      -0.01935779
C        2.11899459      -1.14523781       0.76692437
C       -0.75757121      -1.21022012       0.53265203
N       -1.64234212      -0.36105369      -0.27205607
H        0.62336103       2.00391467       0.56172334
H       -0.99553519       1.79055221       1.21614297
H       -0.77098858       2.43767302      -0.43089993
H        1.26205529       0.60902381      -1.61244659
H        0.23730929      -0.80070520      -1.99542511
H        3.15124916      -1.04867806       0.43209485
H       -0.84862135      -2.22885981       0.15993571
H       -0.87925420      -1.14512973       1.60937145
H       -2.39051924       0.09049977       0.23692894
16
Frame=10 idx=007555 GeodesicLength=0.8970246577470625 rxn_smarts="[C:1]([C@@:2]1([C:3]([C:4]#[C:5][H:13])([H:11])[H:12])[C:6]([H:14])([H:15])[N:7]1[H:16])([H:8])([H:9])[H:10]>>[C:1]([C+:2]1[C:3]([H:11])([H:12])[C:4](=[C-:5][H:13])[C:6]([H:14])([H:15])[N:7]1[H:16])([H:8])([H:9])[H:10]"
C       -0.41049636       1.73496746       0.30089150
C       -0.46505939       0.36360691      -0.28474178
C        0.61342662      -0.15610117      -1.17864766
C        1.15625057      -0.92655886      -0.01737902
C        2.15443665      -1.17163129       0.73950252
C       -0.75744757      -1.21249388       0.53819140
N       -1.64126643      -0.35785080      -0.26147537
H        0.60433709       2.01066201       0.58813049
H       -1.03766030       1.82202697       1.18930897
H       -0.74851653       2.44672871      -0.45717739
H        1.25835487       0.61027515      -1.60076861
H        0.23852663      -0.79736912      -1.97866851
H        3.18699546      -1.06335730       0.41271063
H       -0.86014082      -2.22686243       0.15498682
H       -0.89445099      -1.16356723       1.61424653
H       -2.39728950       0.08752486       0.24088948
16
Frame=11 idx=007555 GeodesicLength=0.9856987885835586 rxn_smarts="[C:1]([C@@:2]1([C:3]([C:4]#[C:5][H:13])([H:11])[H:12])[C:6]([H:14])([H:15])[N:7]1[H:16])([H:8])([H:9])[H:10]>>[C:1]([C+:2]1[C:3]([H:11])([H:12])[C:4](=[C-:5][H:13])[C:6]([H:14])([H:15])[N:7]1[H:16])([H:8])([H:9])[H:10]"
C       -0.42366885       1.74886516       0.29528558
C       -0.47038409       0.37089502      -0.27517730
C        0.61385425      -0.15425824      -1.15853307
C        1.17674192      -0.94193684      -0.01542858
C        2.19032813      -1.19884490       0.71020515
C       -0.75728208      -1.21456400       0.54423754
N       -1.64019311      -0.35463175      -0.25051433
H        0.58348778       2.01796380       0.61501187
H       -1.08018561       1.85380091       1.16021324
H       -0.72505961       2.45527225      -0.48280214
H        1.25502715       0.61144318      -1.58806457
H        0.24015747      -0.79351445      -1.96130418
H        3.22319132      -1.07844519       0.39231658
H       -0.87152720      -2.22445873       0.15060778
H       -0.91034901      -1.18212957       1.61909608
H       -2.40413847       0.08454333       0.24485036
16
Frame=12 idx=007555 GeodesicLength=1.0742100709991844 rxn_smarts="[C:1]([C@@:2]1([C:3]([C:4]#[C:5][H:13])([H:11])[H:12])[C:6]([H:14])([H:15])[N:7]1[H:16])([H:8])([H:9])[H:10]>>[C:1]([C+:2]1[C:3]([H:11])([H:12])[C:4](=[C-:5][H:13])[C:6]([H:14])([H:15])[N:7]1[H:16])([H:8])([H:9])[H:10]"
C       -0.43723667       1.76298945       0.28931832
C       -0.47586702       0.37838222      -0.26535728
C        0.61465845      -0.15240164      -1.13728600
C        1.19761450      -0.95783366      -0.01351956
C        2.22661478      -1.22699435       0.67881958
C       -0.75707771      -1.21641892       0.55083123
N       -1.63911701      -0.35138423      -0.23914749
H        0.56070487       2.02587714       0.64230468
H       -1.12305541       1.88580204       1.12872996
H       -0.70059746       2.46328394      -0.50766974
H        1.25209650       0.61252223      -1.57427171
H        0.24222292      -0.78910935      -1.94329274
H        3.25980375      -1.09384454       0.37098150
H       -0.88276536      -2.22163681       0.14682468
H       -0.92694534      -1.20080530       1.62391157
H       -2.41105377       0.08157176       0.24882301
16
Frame=13 idx=007555 GeodesicLength=1.162560578895222 rxn_smarts="[C:1]([C@@:2]1([C:3]([C:4]#[C:5][H:13])([H:11])[H:12])[C:6]([H:14])([H:15])[N:7]1[H:16])([H:8])([H:9])[H:10]>>[C:1]([C+:2]1[C:3]([H:11])([H:12])[C:4](=[C-:5][H:13])[C:6]([H:14])([H:15])[N:7]1[H:16])([H:8])([H:9])[H:10]"
C       -0.45118746       1.77733894       0.28296766
C       -0.48148860       0.38607249      -0.25526149
C        0.61586333      -0.15054217      -1.11481588
C        1.21888088      -0.97430423      -0.01170183
C        2.26321389      -1.25627690       0.64505542
C       -0.75682407      -1.21804648       0.55804525
N       -1.63801987      -0.34810005      -0.22734497
H        0.53588528       2.03441935       0.66999059
H       -1.16632856       1.91798561       1.09463670
H       -0.67511355       2.47081839      -0.53168388
H        1.24959619       0.61350678      -1.55928525
H        0.24475169      -0.78408533      -1.92457292
H        3.29682857      -1.10944588       0.34875594
H       -0.89383137      -2.21840407       0.14370207
H       -0.94420834      -1.21955948       1.62870382
H       -2.41801799       0.07862304       0.25280877
16
Frame=14 idx=007555 GeodesicLength=1.2507472981124501 rxn_smarts="[C:1]([C@@:2]1([C:3]([C:4]#[C:5][H:13])([H:11])[H:12])[C:6]([H:14])([H:15])[N:7]1[H:16])([H:8])([H:9])[H:10]>>[C:1]([C+:2]1[C:3]([H:11])([H:12])[C:4](=[C-:5][H:13])[C:6]([H:14])([H:15])[N:7]1[H:16])([H:8])([H:9])[H:10]"
C       -0.46557916       1.79191554       0.27618205
C       -0.48726509       0.39398182      -0.24489842
C        0.61749901      -0.14863416      -1.09106015
C        1.24057720      -0.99129739      -0.00995578
C        2.30006434      -1.28662984       0.60868731
C       -0.75649970      -1.21942482       0.56590455
N       -1.63689525      -0.34478480      -0.21508175
H        0.50883334       2.04375040       0.69795325
H       -1.20981685       1.95022023       1.05785701
H       -0.64867461       2.47782222      -0.55474507
H        1.24754224       0.61445374      -1.54304637
H        0.24779318      -0.77840430      -1.90511049
H        3.33419308      -1.12554393       0.32575920
H       -0.90464790      -2.21473158       0.14126253
H       -0.96210141      -1.23837062       1.63346705
H       -2.42502241       0.07567749       0.25682508
16
Frame=15 idx=007555 GeodesicLength=1.3387529248101768 rxn_smarts="[C:1]([C@@:2]1([C:3]([C:4]#[C:5][H:13])([H:11])[H:12])[C:6]([H:14])([H:15])[N:7]1[H:16])([H:8])([H:9])[H:10]>>[C:1]([C+:2]1[C:3]([H:11])([H:12])[C:4](=[C-:5][H:13])[C:6]([H:14])([H:15])[N:7]1[H:16])([H:8])([H:9])[H:10]"
C       -0.48041225       1.80671166       0.26892381
C       -0.49318635       0.40211567      -0.23426244
C        0.61958192      -0.14666615      -1.06595269
C        1.26273041      -1.00883152      -0.00834374
C        2.33704803      -1.31808106       0.56940435
C       -0.75608480      -1.22054295       0.57445140
N       -1.63572932      -0.34142937      -0.20232043
H        0.47944018       2.05394634       0.72606607
H       -1.25340417       1.98238374       1.01828296
H       -0.62134987       2.48428804      -0.57674813
H        1.24594690       0.61538406      -1.52548393
H        0.25136236      -0.77199561      -1.88487120
H        3.37183483      -1.14219470       0.30222687
H       -0.91516578      -2.21061172       0.13953042
H       -0.98056922      -1.25721980       1.63819412
H       -2.43204286       0.07274340       0.26090255
16
Frame=16 idx=007555 GeodesicLength=1.4265690286805959 rxn_smarts="[C:1]([C@@:2]1([C:3]([C:4]#[C:5][H:13])([H:11])[H:12])[C:6]([H:14])([H:15])[N:7]1[H:16])([H:8])([H:9])[H:10]>>[C:1]([C+:2]1[C:3]([H:11])([H:12])[C:4](=[C-:5][H:13])[C:6]([H:14])([H:15])[N:7]1[H:16])([H:8])([H:9])[H:10]"
C       -0.49572544       1.82172920       0.26114333
C       -0.49924443       0.41048985      -0.22334515
C        0.62214491      -0.14460147      -1.03940320
C        1.28538887      -1.02688237      -0.00691377
C        2.37403967      -1.35056050       0.52689457
C       -0.75553921      -1.22138049       0.58374762
N       -1.63449590      -0.33803711      -0.18902749
H        0.44753021       2.06511397       0.75421635
H       -1.29703583       2.01434564       0.97576233
H       -0.59322270       2.49024079      -0.59759338
H        1.24483048       0.61635728      -1.50649550
H        0.25551109      -0.76476619      -1.86379721
H        3.40970227      -1.15974065       0.27830268
H       -0.92529343      -2.20603967       0.13855885
H       -0.99953354      -1.27606950       1.64289696
H       -2.43905703       0.06980122       0.26505301
