9
Frame=0 idx=000316 GeodesicLength=0.0 rxn_smarts="[O:1]([c:2]1[n:3][o:4][c:5]([H:8])[c:6]1[H:9])[H:7]>>[O:1]([C:2]([N:3]=[O:4])=[C:6]=[C:5]([H:8])[H:9])[H:7]"
O        2.14943380       0.02982476      -0.28833327
C        0.82535523      -0.06399853      -0.14388495
N        0.26543493      -1.16697147       0.25722371
O       -1.07196807      -0.97202079       0.30157572
C       -1.28162656       0.36490709      -0.05531791
C       -0.08850705       1.01883685      -0.47191818
H        2.54720133      -0.81990685      -0.06906169
H       -2.29549824       0.56524777      -0.38016625
H       -1.04982539       1.04408113       0.84988278
9
Frame=1 idx=000316 GeodesicLength=0.10949571991133224 rxn_smarts="[O:1]([c:2]1[n:3][o:4][c:5]([H:8])[c:6]1[H:9])[H:7]>>[O:1]([C:2]([N:3]=[O:4])=[C:6]=[C:5]([H:8])[H:9])[H:7]"
O        2.14980473       0.03467957      -0.27897368
C        0.82492848      -0.06718497      -0.14517665
N        0.27059716      -1.17939363       0.25309333
O       -1.06312647      -0.98960357       0.30922378
C       -1.28942889       0.37003430      -0.05435952
C       -0.09166036       1.01134917      -0.45385550
H        2.54684965      -0.82122918      -0.08343164
H       -2.29815294       0.56709578      -0.39585370
H       -1.04981137       1.07425254       0.84933357
9
Frame=2 idx=000316 GeodesicLength=0.2189878246160999 rxn_smarts="[O:1]([c:2]1[n:3][o:4][c:5]([H:8])[c:6]1[H:9])[H:7]>>[O:1]([C:2]([N:3]=[O:4])=[C:6]=[C:5]([H:8])[H:9])[H:7]"
O        2.14979483       0.03909050      -0.27055486
C        0.82431465      -0.07050352      -0.14633491
N        0.27582954      -1.19239893       0.24798904
O       -1.05412455      -1.00814626       0.31627027
C       -1.29746214       0.37531021      -0.05269981
C       -0.09516230       1.00325325      -0.43581846
H        2.54663897      -0.82155860      -0.09626417
H       -2.30059287       0.56942349      -0.41110241
H       -1.04923614       1.10552986       0.84851531
9
Frame=3 idx=000316 GeodesicLength=0.3284606886778656 rxn_smarts="[O:1]([c:2]1[n:3][o:4][c:5]([H:8])[c:6]1[H:9])[H:7]>>[O:1]([C:2]([N:3]=[O:4])=[C:6]=[C:5]([H:8])[H:9])[H:7]"
O        2.14939229       0.04310004      -0.26332665
C        0.82350769      -0.07393072      -0.14729852
N        0.28116603      -1.20596374       0.24194386
O       -1.04494330      -1.02775177       0.32254682
C       -1.30575244       0.38073133      -0.05026907
C       -0.09903927       0.99455250      -0.41772718
H        2.54657038      -0.82096999      -0.10735760
H       -2.30282732       0.57222632      -0.42584521
H       -1.04807407       1.13800604       0.84733355
9
Frame=4 idx=000316 GeodesicLength=0.4379242080125634 rxn_smarts="[O:1]([c:2]1[n:3][o:4][c:5]([H:8])[c:6]1[H:9])[H:7]>>[O:1]([C:2]([N:3]=[O:4])=[C:6]=[C:5]([H:8])[H:9])[H:7]"
O        2.14866635       0.04688552      -0.25677977
C        0.82255133      -0.07736858      -0.14762022
N        0.28667295      -1.21999440       0.23531796
O       -1.03554750      -1.04849015       0.32805340
C       -1.31431789       0.38626629      -0.04708294
C       -0.10327067       0.98525730      -0.39939640
H        2.54655322      -0.81980795      -0.11771541
H       -2.30478930       0.57537449      -0.44032178
H       -1.04651849       1.17187750       0.84554518
9
Frame=5 idx=000316 GeodesicLength=0.5473740666588043 rxn_smarts="[O:1]([c:2]1[n:3][o:4][c:5]([H:8])[c:6]1[H:9])[H:7]>>[O:1]([C:2]([N:3]=[O:4])=[C:6]=[C:5]([H:8])[H:9])[H:7]"
O        2.14762170       0.05050275      -0.25088294
C        0.82144340      -0.08081388      -0.14716703
N        0.29237981      -1.23448664       0.22816628
O       -1.02592525      -1.07045328       0.33268175
C       -1.32318138       0.39190696      -0.04307576
C       -0.10787347       0.97535575      -0.38071080
H        2.54656372      -0.81813997      -0.12746622
H       -2.30645674       0.57883883      -0.45450363
H       -1.04457179       1.20728948       0.84295837
9
Frame=6 idx=000316 GeodesicLength=0.6568131373813024 rxn_smarts="[O:1]([c:2]1[n:3][o:4][c:5]([H:8])[c:6]1[H:9])[H:7]>>[O:1]([C:2]([N:3]=[O:4])=[C:6]=[C:5]([H:8])[H:9])[H:7]"
O        2.14626930       0.05401989      -0.24547766
C        0.82018524      -0.08426700      -0.14576323
N        0.29831755      -1.24944000       0.22057060
O       -1.01606683      -1.09373083       0.33633259
C       -1.33236587       0.39764449      -0.03818139
C       -0.11285997       0.96483117      -0.36153107
H        2.54656864      -0.81604436      -0.13689917
H       -2.30779888       0.58257623      -0.46837650
H       -1.04224918       1.24441040       0.83932582
9
Frame=7 idx=000316 GeodesicLength=0.7662337064511634 rxn_smarts="[O:1]([c:2]1[n:3][o:4][c:5]([H:8])[c:6]1[H:9])[H:7]>>[O:1]([C:2]([N:3]=[O:4])=[C:6]=[C:5]([H:8])[H:9])[H:7]"
O        2.14462208       0.05748474      -0.24037838
C        0.81878557      -0.08772572      -0.14317410
N        0.30450922      -1.26483369       0.21254311
O       -1.00594856      -1.11840483       0.33896478
C       -1.34189308       0.40346941      -0.03233467
C       -0.11823590       0.95366834      -0.34166715
H        2.54652275      -0.81359897      -0.14635787
H       -2.30877083       0.58653160      -0.48194265
H       -1.03959125       1.28340911       0.83434692
9
Frame=8 idx=000316 GeodesicLength=0.8755979410395286 rxn_smarts="[O:1]([c:2]1[n:3][o:4][c:5]([H:8])[c:6]1[H:9])[H:7]>>[O:1]([C:2]([N:3]=[O:4])=[C:6]=[C:5]([H:8])[H:9])[H:7]"
O        2.14265957       0.06092662      -0.23556590
C        0.81724235      -0.09119491      -0.13915753
N        0.31101204      -1.28068888       0.20429356
O       -0.99559770      -1.14456781       0.34031978
C       -1.35177911       0.40938135      -0.02544959
C       -0.12400006       0.94185665      -0.32087274
H        2.54638782      -0.81082337      -0.15610843
H       -2.30930911       0.59067366      -0.49516185
H       -1.03661580       1.32443669       0.82770271
9
Frame=9 idx=000316 GeodesicLength=0.9849310029189293 rxn_smarts="[O:1]([c:2]1[n:3][o:4][c:5]([H:8])[c:6]1[H:9])[H:7]>>[O:1]([C:2]([N:3]=[O:4])=[C:6]=[C:5]([H:8])[H:9])[H:7]"
O        2.14039746       0.06437792      -0.23082922
C        0.81557519      -0.09468264      -0.13337643
N        0.31784707      -1.29701367       0.19578960
O       -0.98499374      -1.17229929       0.34035450
C       -1.36205417       0.41537980      -0.01744185
C       -0.13015299       0.92938115      -0.29885375
H        2.54610975      -0.80776551      -0.16657854
H       -2.30935833       0.59494264      -0.50803646
H       -1.03337025       1.36767960       0.81897216
9
Frame=10 idx=000316 GeodesicLength=1.094251476534558 rxn_smarts="[O:1]([c:2]1[n:3][o:4][c:5]([H:8])[c:6]1[H:9])[H:7]>>[O:1]([C:2]([N:3]=[O:4])=[C:6]=[C:5]([H:8])[H:9])[H:7]"
O        2.13777956       0.06786344      -0.22618461
C        0.81376326      -0.09823120      -0.12562615
N        0.32498411      -1.31385559       0.18685440
O       -0.97408533      -1.20167799       0.33894846
C       -1.37273389       0.42147308      -0.00815622
C       -0.13671639       0.91621133      -0.27530682
H        2.54562894      -0.80436582      -0.17777781
H       -2.30884572       0.59930047      -0.52042724
H       -1.02977454       1.41328228       0.80767599
9
Frame=11 idx=000316 GeodesicLength=1.203501316483729 rxn_smarts="[O:1]([c:2]1[n:3][o:4][c:5]([H:8])[c:6]1[H:9])[H:7]>>[O:1]([C:2]([N:3]=[O:4])=[C:6]=[C:5]([H:8])[H:9])[H:7]"
O        2.13472783       0.07140750      -0.22192090
C        0.81176081      -0.10196837      -0.11607547
N        0.33245331      -1.33131660       0.17707582
O       -0.96289513      -1.23276702       0.33588546
C       -1.38386524       0.42769037       0.00265233
C       -0.14373370       0.90229184      -0.24996302
H        2.54500605      -0.80047385      -0.18902386
H       -2.30783888       0.60376513      -0.53191021
H       -1.02561504       1.46137099       0.79327985
9
Frame=12 idx=000316 GeodesicLength=1.3128493165046697 rxn_smarts="[O:1]([c:2]1[n:3][o:4][c:5]([H:8])[c:6]1[H:9])[H:7]>>[O:1]([C:2]([N:3]=[O:4])=[C:6]=[C:5]([H:8])[H:9])[H:7]"
O        2.13117683       0.07504456      -0.21825361
C        0.80951448      -0.10601887      -0.10487238
N        0.34013475      -1.34944267       0.16578784
O       -0.95125336      -1.26563027       0.33113853
C       -1.39554180       0.43408410       0.01533308
C       -0.15130353       0.88755854      -0.22249456
H        2.54428738      -0.79596660      -0.19962903
H       -2.30641327       0.60832640      -0.54218501
H       -1.02060148       1.51204480       0.77517512
9
Frame=13 idx=000316 GeodesicLength=1.4219598807475444 rxn_smarts="[O:1]([c:2]1[n:3][o:4][c:5]([H:8])[c:6]1[H:9])[H:7]>>[O:1]([C:2]([N:3]=[O:4])=[C:6]=[C:5]([H:8])[H:9])[H:7]"
O        2.12680317       0.07886086      -0.21524344
C        0.80702038      -0.11029414      -0.09088473
N        0.34817346      -1.36812929       0.15357061
O       -0.93936388      -1.30029380       0.32443453
C       -1.40758045       0.44060415       0.02985500
C       -0.15920654       0.87209051      -0.19157791
H        2.54306115      -0.79088931      -0.21093920
H       -2.30386952       0.61287209      -0.55161847
H       -1.01503779       1.56517893       0.75240361
9
Frame=14 idx=000316 GeodesicLength=1.5309802561805903 rxn_smarts="[O:1]([c:2]1[n:3][o:4][c:5]([H:8])[c:6]1[H:9])[H:7]>>[O:1]([C:2]([N:3]=[O:4])=[C:6]=[C:5]([H:8])[H:9])[H:7]"
O        2.12180132       0.08287398      -0.21254623
C        0.80437953      -0.11496814      -0.07371147
N        0.35654520      -1.38735832       0.14042925
O       -0.92719156      -1.33667610       0.31578078
C       -1.42027954       0.44737912       0.04646161
C       -0.16748254       0.85582509      -0.15606590
H        2.54143322      -0.78526966      -0.22388653
H       -2.30016500       0.61736745      -0.56059465
H       -1.00904064       1.62082658       0.72413313
9
Frame=15 idx=000316 GeodesicLength=1.6403775894787374 rxn_smarts="[O:1]([c:2]1[n:3][o:4][c:5]([H:8])[c:6]1[H:9])[H:7]>>[O:1]([C:2]([N:3]=[O:4])=[C:6]=[C:5]([H:8])[H:9])[H:7]"
O        2.11535930       0.08726596      -0.21257379
C        0.80122202      -0.12032734      -0.05466275
N        0.36493057      -1.40731306       0.12383076
O       -0.91436964      -1.37494901       0.30534676
C       -1.43366107       0.45451972       0.06606933
C       -0.17643566       0.83861322      -0.11523795
H        2.53959536      -0.77849907      -0.23402980
H       -2.29523778       0.62201064      -0.56800314
H       -1.00140311       1.67867895       0.68926059
9
Frame=16 idx=000316 GeodesicLength=1.7487853198480303 rxn_smarts="[O:1]([c:2]1[n:3][o:4][c:5]([H:8])[c:6]1[H:9])[H:7]>>[O:1]([C:2]([N:3]=[O:4])=[C:6]=[C:5]([H:8])[H:9])[H:7]"
O        2.10712262       0.09234182      -0.21437820
C        0.79732569      -0.12649853      -0.03433423
N        0.37338979      -1.42711928       0.10706582
O       -0.90149555      -1.41460071       0.29252754
C       -1.44766457       0.46193875       0.08818002
C       -0.18571542       0.82028131      -0.06580558
H        2.53688010      -0.77040978      -0.24481972
H       -2.28746828       0.62695490      -0.57535962
H       -0.99237438       1.73711152       0.64692397
