18
Frame=0 idx=002229 GeodesicLength=0.0 rxn_smarts="[C:1]([O:2][C:3]([C:4]([C:5]([H:13])([H:14])[H:15])([C:6]([H:16])([H:17])[H:18])[H:12])([H:10])[H:11])([H:7])([H:8])[H:9]>>[C:1]([O:2][C:3]([C:4][C:6]([H:16])([H:17])[H:18])([H:10])[H:11])([H:7])([H:8])[H:9].[C:5]([H:12])([H:13])([H:14])[H:15]"
C        2.74240487       0.19898791       0.32482480
O        1.51985393       0.66198320      -0.18059222
C        0.57942448      -0.36612365      -0.34742930
C       -0.69137880       0.12514845      -0.92943986
C       -1.42221950       1.13037648       0.97053124
C       -1.72854908      -0.94886740      -1.02813888
H        2.62117714      -0.28464167       1.30407442
H        3.39812913       1.06136685       0.43675596
H        3.21572759      -0.51987649      -0.35775831
H        0.93167276      -1.10322403      -1.09367026
H        0.46981771      -0.92727430       0.60182966
H       -1.13104923       1.17370636      -0.20432884
H       -0.59254035       1.63386557       1.45985865
H       -2.33344645       1.72752652       0.98458596
H       -1.59782395       0.14441607       1.38605641
H       -1.51850690      -1.46855392      -1.96938443
H       -1.73168721      -1.70566339      -0.22868037
H       -2.73100620      -0.53315252      -1.12909462
18
Frame=1 idx=002229 GeodesicLength=0.05566519245551271 rxn_smarts="[C:1]([O:2][C:3]([C:4]([C:5]([H:13])([H:14])[H:15])([C:6]([H:16])([H:17])[H:18])[H:12])([H:10])[H:11])([H:7])([H:8])[H:9]>>[C:1]([O:2][C:3]([C:4][C:6]([H:16])([H:17])[H:18])([H:10])[H:11])([H:7])([H:8])[H:9].[C:5]([H:12])([H:13])([H:14])[H:15]"
C        2.74242948       0.19830912       0.32541132
O        1.51840489       0.66001787      -0.17758267
C        0.57995759      -0.36935133      -0.34631973
C       -0.69507929       0.12030917      -0.91898152
C       -1.42238371       1.13457787       0.96848201
C       -1.72569344      -0.95767523      -1.03086347
H        2.62301199      -0.28740970       1.30383435
H        3.39653636       1.06176976       0.43844611
H        3.21632554      -0.51829231      -0.35914787
H        0.93353458      -1.10237759      -1.09608344
H        0.47039192      -0.93379748       0.60080942
H       -1.13184123       1.19837085      -0.21849453
H       -0.59145055       1.63362611       1.46073232
H       -2.33197979       1.73425600       0.99022719
H       -1.60594420       0.15533301       1.39779077
H       -1.52277956      -1.46557204      -1.97978481
H       -1.72429614      -1.72135672      -0.23833628
H       -2.72914444      -0.54073735      -1.12013915
18
Frame=2 idx=002229 GeodesicLength=0.11135058030079178 rxn_smarts="[C:1]([O:2][C:3]([C:4]([C:5]([H:13])([H:14])[H:15])([C:6]([H:16])([H:17])[H:18])[H:12])([H:10])[H:11])([H:7])([H:8])[H:9]>>[C:1]([O:2][C:3]([C:4][C:6]([H:16])([H:17])[H:18])([H:10])[H:11])([H:7])([H:8])[H:9].[C:5]([H:12])([H:13])([H:14])[H:15]"
C        2.74244314       0.19757929       0.32597562
O        1.51687932       0.65801477      -0.17440354
C        0.58044188      -0.37262793      -0.34510534
C       -0.69895456       0.11545822      -0.90802050
C       -1.42270115       1.13881363       0.96647758
C       -1.72273164      -0.96654800      -1.03364404
H        2.62495896      -0.29036678       1.30350986
H        3.39490804       1.06212656       0.44017356
H        3.21686579      -0.51663787      -0.36070507
H        0.93528786      -1.10133977      -1.09860744
H        0.47102964      -0.94047443       0.59983121
H       -1.13237423       1.22252401      -0.23253697
H       -0.59053663       1.63360217       1.46146124
H       -2.33037569       1.74138356       0.99530750
H       -1.61425645       0.16673755       1.40991938
H       -1.52712171      -1.46198910      -1.99037154
H       -1.71651530      -1.73747718      -0.24855369
H       -2.72724725      -0.54877870      -1.11070781
18
Frame=3 idx=002229 GeodesicLength=0.16705178506443072 rxn_smarts="[C:1]([O:2][C:3]([C:4]([C:5]([H:13])([H:14])[H:15])([C:6]([H:16])([H:17])[H:18])[H:12])([H:10])[H:11])([H:7])([H:8])[H:9]>>[C:1]([O:2][C:3]([C:4][C:6]([H:16])([H:17])[H:18])([H:10])[H:11])([H:7])([H:8])[H:9].[C:5]([H:12])([H:13])([H:14])[H:15]"
C        2.74243965       0.19680293       0.32652274
O        1.51527552       0.65596998      -0.17106448
C        0.58087528      -0.37595735      -0.34378918
C       -0.70299795       0.11057026      -0.89657157
C       -1.42316283       1.14308174       0.96453589
C       -1.71966554      -0.97547616      -1.03648900
H        2.62700453      -0.29349208       1.30311131
H        3.39323783       1.06244255       0.44193534
H        3.21734517      -0.51491854      -0.36240946
H        0.93693300      -1.10011910      -1.10123337
H        0.47173109      -0.94730832       0.59889094
H       -1.13265052       1.24616327      -0.24648538
H       -0.58977897       1.63379447       1.46204955
H       -2.32863770       1.74889960       0.99985496
H       -1.62274421       0.17863865       1.42242546
H       -1.53156230      -1.45778848      -2.00112926
H       -1.70833292      -1.75400911      -0.25936432
H       -2.72530913      -0.55729430      -1.10079017
18
Frame=4 idx=002229 GeodesicLength=0.22276477644159307 rxn_smarts="[C:1]([O:2][C:3]([C:4]([C:5]([H:13])([H:14])[H:15])([C:6]([H:16])([H:17])[H:18])[H:12])([H:10])[H:11])([H:7])([H:8])[H:9]>>[C:1]([O:2][C:3]([C:4][C:6]([H:16])([H:17])[H:18])([H:10])[H:11])([H:7])([H:8])[H:9].[C:5]([H:12])([H:13])([H:14])[H:15]"
C        2.74241358       0.19598417       0.32705814
O        1.51359196       0.65387968      -0.16757282
C        0.58125655      -0.37934374      -0.34237369
C       -0.70720248       0.10562028      -0.88464787
C       -1.42376092       1.14737929       0.96267126
C       -1.71649557      -0.98445101      -1.03940651
H        2.62913713      -0.29676829       1.30264817
H        3.39151953       1.06272286       0.44373080
H        3.21776152      -0.51313809      -0.36424288
H        0.93847102      -1.09872316      -1.10395272
H        0.47249721      -0.95430311       0.59798476
H       -1.13267328       1.26928553      -0.26037028
H       -0.58916030       1.63420406       1.46249848
H       -2.32676934       1.75679236       1.00389305
H       -1.63139072       0.19104506       1.43529472
H       -1.53613571      -1.45294746      -2.01203642
H       -1.69973700      -1.77093318      -0.27080128
H       -2.72332318      -0.56630525      -1.09037490
18
Frame=5 idx=002229 GeodesicLength=0.2784873941040256 rxn_smarts="[C:1]([O:2][C:3]([C:4]([C:5]([H:13])([H:14])[H:15])([C:6]([H:16])([H:17])[H:18])[H:12])([H:10])[H:11])([H:7])([H:8])[H:9]>>[C:1]([O:2][C:3]([C:4][C:6]([H:16])([H:17])[H:18])([H:10])[H:11])([H:7])([H:8])[H:9].[C:5]([H:12])([H:13])([H:14])[H:15]"
C        2.74235992       0.19512673       0.32758644
O        1.51182649       0.65174056      -0.16393404
C        0.58158411      -0.38279085      -0.34086018
C       -0.71156239       0.10058388      -0.87225927
C       -1.42448819       1.15170240       0.96089621
C       -1.71322307      -0.99346268      -1.04240466
H        2.63134732      -0.30018114       1.30212840
H        3.38974694       1.06297251       0.44555927
H        3.21811279      -0.51129908      -0.36619072
H        0.93990224      -1.09715813      -1.10675727
H        0.47332936      -0.96146349       0.59710916
H       -1.13244572       1.29188691      -0.27422399
H       -0.58866562       1.63483112       1.46280982
H       -2.32477388       1.76504910       1.00744315
H       -1.64018056       0.20396503       1.44851576
H       -1.54086975      -1.44744689      -2.02307355
H       -1.69071857      -1.78822697      -0.28288988
H       -2.72128143      -0.57582903      -1.07945465
18
Frame=6 idx=002229 GeodesicLength=0.3342170627166333 rxn_smarts="[C:1]([O:2][C:3]([C:4]([C:5]([H:13])([H:14])[H:15])([C:6]([H:16])([H:17])[H:18])[H:12])([H:10])[H:11])([H:7])([H:8])[H:9]>>[C:1]([O:2][C:3]([C:4][C:6]([H:16])([H:17])[H:18])([H:10])[H:11])([H:7])([H:8])[H:9].[C:5]([H:12])([H:13])([H:14])[H:15]"
C        2.74227393       0.19423376       0.32811325
O        1.50997714       0.64954939      -0.16015142
C        0.58185679      -0.38630223      -0.33925003
C       -0.71607153       0.09543809      -0.85941390
C       -1.42533815       1.15604633       0.95922148
C       -1.70984937      -1.00250020      -1.04549009
H        2.63362600      -0.30371818       1.30155921
H        3.38791505       1.06319483       0.44742271
H        3.21839587      -0.50940207      -0.36823818
H        0.94122691      -1.09542725      -1.10964045
H        0.47422916      -0.96879508       0.59625985
H       -1.13197036       1.31396239      -0.28807915
H       -0.58828110       1.63567549       1.46298391
H       -2.32265223       1.77365807       1.01052154
H       -1.64909964       0.21740979       1.46207690
H       -1.54580071      -1.44126506      -2.03421444
H       -1.68126381      -1.80586679      -0.29566478
H       -2.71917394      -0.58589129      -1.06801641
18
Frame=7 idx=002229 GeodesicLength=0.3899491367873326 rxn_smarts="[C:1]([O:2][C:3]([C:4]([C:5]([H:13])([H:14])[H:15])([C:6]([H:16])([H:17])[H:18])[H:12])([H:10])[H:11])([H:7])([H:8])[H:9]>>[C:1]([O:2][C:3]([C:4][C:6]([H:16])([H:17])[H:18])([H:10])[H:11])([H:7])([H:8])[H:9].[C:5]([H:12])([H:13])([H:14])[H:15]"
C        2.74215118       0.19330798       0.32864284
O        1.50804103       0.64730314      -0.15622623
C        0.58207315      -0.38988170      -0.33754303
C       -0.72072523       0.09015993      -0.84611657
C       -1.42630479       1.16040714       0.95765548
C       -1.70637694      -1.01155164      -1.04866745
H        2.63596676      -0.30737179       1.30094655
H        3.38601697       1.06339432       0.44932406
H        3.21860934      -0.50744697      -0.37037564
H        0.94244474      -1.09353387      -1.11259532
H        0.47519872      -0.97630419       0.59543374
H       -1.13125068       1.33550596      -0.30196803
H       -0.58799472       1.63673786       1.46302055
H       -2.32040529       1.78260710       1.01314345
H       -1.65813459       0.23139214       1.47596862
H       -1.55095783      -1.43438133      -2.04543185
H       -1.67136196      -1.82382628      -0.30915982
H       -2.71698984      -0.59651784      -1.05605136
18
Frame=8 idx=002229 GeodesicLength=0.44568196065839044 rxn_smarts="[C:1]([O:2][C:3]([C:4]([C:5]([H:13])([H:14])[H:15])([C:6]([H:16])([H:17])[H:18])[H:12])([H:10])[H:11])([H:7])([H:8])[H:9]>>[C:1]([O:2][C:3]([C:4][C:6]([H:16])([H:17])[H:18])([H:10])[H:11])([H:7])([H:8])[H:9].[C:5]([H:12])([H:13])([H:14])[H:15]"
C        2.74198796       0.19235182       0.32918004
O        1.50601563       0.64499913      -0.15215732
C        0.58223223      -0.39353243      -0.33573873
C       -0.72551811       0.08472757      -0.83237067
C       -1.42738304       1.16477983       0.95620419
C       -1.70280705      -1.02060443      -1.05194326
H        2.63836482      -0.31113702       1.30029379
H        3.38404742       1.06357405       0.45126850
H        3.21875084      -0.50543033      -0.37259479
H        0.94355569      -1.09147918      -1.11561554
H        0.47624073      -0.98399782       0.59462683
H       -1.13028869       1.35650977      -0.31592630
H       -0.58779710       1.63801733       1.46291992
H       -2.31803358       1.79188226       1.01531740
H       -1.66727387       0.24592080       1.49018242
H       -1.55637588      -1.42677384      -2.05669283
H       -1.66100035      -1.84207512      -0.32340254
H       -2.71471765      -0.60773242      -1.04355109
18
Frame=9 idx=002229 GeodesicLength=0.5014107951505898 rxn_smarts="[C:1]([O:2][C:3]([C:4]([C:5]([H:13])([H:14])[H:15])([C:6]([H:16])([H:17])[H:18])[H:12])([H:10])[H:11])([H:7])([H:8])[H:9]>>[C:1]([O:2][C:3]([C:4][C:6]([H:16])([H:17])[H:18])([H:10])[H:11])([H:7])([H:8])[H:9].[C:5]([H:12])([H:13])([H:14])[H:15]"
C        2.74178107       0.19136677       0.32972874
O        1.50389693       0.64263361      -0.14793995
C        0.58233267      -0.39725967      -0.33383294
C       -0.73044713       0.07911500      -0.81817174
C       -1.42856939       1.16915868       0.95487150
C       -1.69914083      -1.02964683      -1.05532274
H        2.64081945      -0.31501336       1.29960415
H        3.38199943       1.06373783       0.45326082
H        3.21881891      -0.50334821      -0.37489277
H        0.94455754      -1.08926175      -1.11869475
H        0.47735967      -0.99188606       0.59383836
H       -1.12908658       1.37695857      -0.32999161
H       -0.58768044       1.63951724       1.46267506
H       -2.31553903       1.80146899       1.01704639
H       -1.67650699       0.26101048       1.50471217
H       -1.56207987      -1.41840584      -2.06796191
H       -1.65016602      -1.86058577      -0.33842827
H       -2.71234939      -0.61955969      -1.03050051
18
Frame=10 idx=002229 GeodesicLength=0.557135421902683 rxn_smarts="[C:1]([O:2][C:3]([C:4]([C:5]([H:13])([H:14])[H:15])([C:6]([H:16])([H:17])[H:18])[H:12])([H:10])[H:11])([H:7])([H:8])[H:9]>>[C:1]([O:2][C:3]([C:4][C:6]([H:16])([H:17])[H:18])([H:10])[H:11])([H:7])([H:8])[H:9].[C:5]([H:12])([H:13])([H:14])[H:15]"
C        2.74152743       0.19035428       0.33029370
O        1.50168280       0.64020487      -0.14357027
C        0.58237357      -0.40106467      -0.33182580
C       -0.73550662       0.07330491      -0.80352195
C       -1.42986116       1.17353860       0.95366365
C       -1.69538267      -1.03866080      -1.05880700
H        2.64332721      -0.31900052       1.29887897
H        3.37986912       1.06388659       0.45530959
H        3.21881115      -0.50119541      -0.37726396
H        0.94545024      -1.08688050      -1.12182775
H        0.47855767      -0.99997510       0.59306262
H       -1.12764663       1.39684633      -0.34419548
H       -0.58763813       1.64123460       1.46228851
H       -2.31292040       1.81135660       1.01833769
H       -1.68582325       0.27667733       1.51954938
H       -1.56811058      -1.40927088      -2.07920464
H       -1.63884711      -1.87931971      -0.35427334
H       -2.70986263      -0.63203651      -1.01689394
18
Frame=11 idx=002229 GeodesicLength=0.6128562617252583 rxn_smarts="[C:1]([O:2][C:3]([C:4]([C:5]([H:13])([H:14])[H:15])([C:6]([H:16])([H:17])[H:18])[H:12])([H:10])[H:11])([H:7])([H:8])[H:9]>>[C:1]([O:2][C:3]([C:4][C:6]([H:16])([H:17])[H:18])([H:10])[H:11])([H:7])([H:8])[H:9].[C:5]([H:12])([H:13])([H:14])[H:15]"
C        2.74122499       0.18931588       0.33087867
O        1.49936986       0.63771061      -0.13904110
C        0.58235429      -0.40495050      -0.32971437
C       -0.74069228       0.06727554      -0.78841897
C       -1.43125684       1.17791161       0.95258648
C       -1.69153493      -1.04763254      -1.06239651
H        2.64588922      -0.32310201       1.29811832
H        3.37765088       1.06402334       0.45742303
H        3.21872683      -0.49896433      -0.37970836
H        0.94623283      -1.08433169      -1.12500938
H        0.47983900      -1.00827422       0.59229602
H       -1.12597162       1.41616051      -0.35857072
H       -0.58766531       1.64316903       1.46175744
H       -2.31017737       1.82152992       1.01919256
H       -1.69521236       0.29293557       1.53468690
H       -1.57449740      -1.39935794      -2.09037974
H       -1.62703904      -1.89823285      -0.37097109
H       -2.70724073      -0.64518592      -1.00272916
18
Frame=12 idx=002229 GeodesicLength=0.668571335885506 rxn_smarts="[C:1]([O:2][C:3]([C:4]([C:5]([H:13])([H:14])[H:15])([C:6]([H:16])([H:17])[H:18])[H:12])([H:10])[H:11])([H:7])([H:8])[H:9]>>[C:1]([O:2][C:3]([C:4][C:6]([H:16])([H:17])[H:18])([H:10])[H:11])([H:7])([H:8])[H:9].[C:5]([H:12])([H:13])([H:14])[H:15]"
C        2.74087149       0.18825134       0.33148802
O        1.49695480       0.63514811      -0.13434261
C        0.58227380      -0.40891984      -0.32749499
C       -0.74600003       0.06100710      -0.77285629
C       -1.43275601       1.18227186       0.95164185
C       -1.68760196      -1.05654120      -1.06609292
H        2.64850716      -0.32732529       1.29732067
H        3.37533966       1.06414837       0.45961208
H        3.21856321      -0.49664662      -0.38222686
H        0.94690300      -1.08161008      -1.12823484
H        0.48120797      -1.01679344       0.59153449
H       -1.12406130       1.43488642      -0.37315405
H       -0.58775960       1.64531914       1.46107982
H       -2.30730904       1.83197767       1.01960605
H       -1.70466777       0.30980675       1.55011620
H       -1.58127845      -1.38864110      -2.10144568
H       -1.61472501      -1.91728651      -0.38855961
H       -2.70446192      -0.65905268      -0.98799132
18
Frame=13 idx=002229 GeodesicLength=0.7242793997202817 rxn_smarts="[C:1]([O:2][C:3]([C:4]([C:5]([H:13])([H:14])[H:15])([C:6]([H:16])([H:17])[H:18])[H:12])([H:10])[H:11])([H:7])([H:8])[H:9]>>[C:1]([O:2][C:3]([C:4][C:6]([H:16])([H:17])[H:18])([H:10])[H:11])([H:7])([H:8])[H:9].[C:5]([H:12])([H:13])([H:14])[H:15]"
C        2.74046588       0.18716098       0.33212478
O        1.49443374       0.63251503      -0.12946241
C        0.58213119      -0.41297533      -0.32516240
C       -0.75142616       0.05447818      -0.75682499
C       -1.43435927       1.18661198       0.95083122
C       -1.68358682      -1.06536852      -1.06989625
H        2.65118685      -0.33168127       1.29648189
H        3.37293083       1.06426268       0.46188827
H        3.21831874      -0.49423018      -0.38482566
H        0.94745848      -1.07870853      -1.13149931
H        0.48267019      -1.02554387       0.59077474
H       -1.12191539       1.45300545      -0.38798195
H       -0.58792029       1.64768326       1.46025239
H       -2.30431629       1.84268466       1.01957119
H       -1.71418411       0.32730680       1.56582933
H       -1.58848397      -1.37710361      -2.11235387
H       -1.60189902      -1.93643124      -0.40706908
H       -2.70150459      -0.67366648      -0.97267790
18
Frame=14 idx=002229 GeodesicLength=0.7799814073733484 rxn_smarts="[C:1]([O:2][C:3]([C:4]([C:5]([H:13])([H:14])[H:15])([C:6]([H:16])([H:17])[H:18])[H:12])([H:10])[H:11])([H:7])([H:8])[H:9]>>[C:1]([O:2][C:3]([C:4][C:6]([H:16])([H:17])[H:18])([H:10])[H:11])([H:7])([H:8])[H:9].[C:5]([H:12])([H:13])([H:14])[H:15]"
C        2.74000781       0.18604474       0.33279238
O        1.49180363       0.62980987      -0.12438693
C        0.58192621      -0.41711796      -0.32271285
C       -0.75696541       0.04767067      -0.74031863
C       -1.43606852       1.19092243       0.95015862
C       -1.67949468      -1.07409302      -1.07380075
H        2.65393466      -0.33618386       1.29559649
H        3.37041994       1.06436681       0.46426615
H        3.21799267      -0.49170141      -0.38751217
H        0.94789749      -1.07561799      -1.13479816
H        0.48423092      -1.03453530       0.59001115
H       -1.11953460       1.47050115      -0.40308720
H       -0.58814792       1.65025813       1.45927339
H       -2.30119922       1.85363420       1.01908256
H       -1.72375398       0.34545583       1.58181611
H       -1.59614653      -1.36475136      -2.12305001
H       -1.58855930      -1.95560635      -0.42653756
H       -2.69834317      -0.68905659      -0.95679259
18
Frame=15 idx=002229 GeodesicLength=0.8356782201640504 rxn_smarts="[C:1]([O:2][C:3]([C:4]([C:5]([H:13])([H:14])[H:15])([C:6]([H:16])([H:17])[H:18])[H:12])([H:10])[H:11])([H:7])([H:8])[H:9]>>[C:1]([O:2][C:3]([C:4][C:6]([H:16])([H:17])[H:18])([H:10])[H:11])([H:7])([H:8])[H:9].[C:5]([H:12])([H:13])([H:14])[H:15]"
C        2.73949696       0.18490183       0.33349524
O        1.48906150       0.62702914      -0.11909999
C        0.58165906      -0.42135088      -0.32014034
C       -0.76261285       0.04056331      -0.72332573
C       -1.43788657       1.19519398       0.94962353
C       -1.67532935      -1.08269348      -1.07780206
H        2.65675799      -0.34084694       1.29465909
H        3.36780316       1.06445998       0.46676089
H        3.21758270      -0.48904625      -0.39029230
H        0.94821707      -1.07232775      -1.13812715
H        0.48589750      -1.04378076       0.58923900
H       -1.11691613       1.48735053      -0.41850808
H       -0.58844509       1.65304110       1.45813735
H       -2.29795712       1.86481140       1.01812289
H       -1.73337522       0.36427757       1.59806343
H       -1.60431462      -1.35155562      -2.13347082
H       -1.57469257      -1.97475735      -0.44701099
H       -2.69494642      -0.70526980      -0.94032397
18
Frame=16 idx=002229 GeodesicLength=0.8913716292251709 rxn_smarts="[C:1]([O:2][C:3]([C:4]([C:5]([H:13])([H:14])[H:15])([C:6]([H:16])([H:17])[H:18])[H:12])([H:10])[H:11])([H:7])([H:8])[H:9]>>[C:1]([O:2][C:3]([C:4][C:6]([H:16])([H:17])[H:18])([H:10])[H:11])([H:7])([H:8])[H:9].[C:5]([H:12])([H:13])([H:14])[H:15]"
C        2.73893357       0.18373077       0.33423684
O        1.48620407       0.62417053      -0.11358313
C        0.58132912      -0.42567499      -0.31743892
C       -0.76836347       0.03313734      -0.70583474
C       -1.43981787       1.19941732       0.94922805
C       -1.67109792      -1.09114390      -1.08189175
H        2.65966664      -0.34569019       1.29366109
H        3.36507680       1.06454043       0.46939011
H        3.21708698      -0.48624807      -0.39317741
H        0.94841328      -1.06882459      -1.14148244
H        0.48767662      -1.05329238       0.58845205
H       -1.11405763       1.50353181      -0.43427951
H       -0.58881573       1.65602900       1.45684057
H       -2.29459020       1.87620021       1.01667744
H       -1.74304508       0.38379535       1.61455698
H       -1.61302391      -1.33751437      -2.14355632
H       -1.56029231      -1.99381961      -0.46852803
H       -2.69128297      -0.72234463      -0.92327088
