11
Frame=0 idx=000913 GeodesicLength=0.0 rxn_smarts="[N:1]([c:2]1[n:3][n:4]([H:9])[c:5]([H:10])[c:6]1[H:11])([H:7])[H:8]>>[N-:1]([C+:2]1[N-:3][N:4]([H:9])[C+:5]([H:10])[C:6]1([H:7])[H:11])[H:8]"
N       -1.98695918      -0.37514319      -0.01798303
C       -0.69412363      -0.42562661       0.24028447
N        0.23251864      -1.37977624       0.34223925
N        1.37047887      -0.69247297      -0.00124214
C        1.23448894       0.58591307      -0.26600751
C       -0.13303381       0.91413761      -0.02585325
H       -1.40835805       0.81903406      -0.54649247
H       -2.59840188      -1.15272153       0.18510995
H        2.22452974      -1.22144008      -0.06962796
H        2.09128979       1.19760060      -0.50513197
H       -0.33242940       1.73049532       0.66470469
11
Frame=1 idx=000913 GeodesicLength=0.0412269078325313 rxn_smarts="[N:1]([c:2]1[n:3][n:4]([H:9])[c:5]([H:10])[c:6]1[H:11])([H:7])[H:8]>>[N-:1]([C+:2]1[N-:3][N:4]([H:9])[C+:5]([H:10])[C:6]1([H:7])[H:11])[H:8]"
N       -1.98852569      -0.37176146      -0.00516541
C       -0.69610421      -0.41710250       0.26329547
N        0.22798107      -1.37733515       0.34152346
N        1.36704299      -0.69419837       0.00206798
C        1.23363694       0.58356356      -0.26942471
C       -0.13147316       0.91760083      -0.02321922
H       -1.41817396       0.82559676      -0.54914088
H       -2.57902197      -1.17406921       0.16146089
H        2.21763521      -1.22754049      -0.07482249
H        2.09232075       1.19351423      -0.50603992
H       -0.32531797       1.74173179       0.65946483
11
Frame=2 idx=000913 GeodesicLength=0.08233306283412536 rxn_smarts="[N:1]([c:2]1[n:3][n:4]([H:9])[c:5]([H:10])[c:6]1[H:11])([H:7])[H:8]>>[N-:1]([C+:2]1[N-:3][N:4]([H:9])[C+:5]([H:10])[C:6]1([H:7])[H:11])[H:8]"
N       -1.98989013      -0.36887417       0.00746031
C       -0.69784118      -0.40900055       0.28538722
N        0.22358627      -1.37474997       0.34122520
N        1.36357350      -0.69600458       0.00489512
C        1.23258429       0.58115226      -0.27285968
C       -0.13008060       0.92074116      -0.02045638
H       -1.42836640       0.83191006      -0.55162312
H       -2.55888021      -1.19333666       0.13791366
H        2.21088505      -1.23339957      -0.07931594
H        2.09294498       1.18943260      -0.50734160
H       -0.31851556       1.75212941       0.65471521
11
Frame=3 idx=000913 GeodesicLength=0.12353807155644542 rxn_smarts="[N:1]([c:2]1[n:3][n:4]([H:9])[c:5]([H:10])[c:6]1[H:11])([H:7])[H:8]>>[N-:1]([C+:2]1[N-:3][N:4]([H:9])[C+:5]([H:10])[C:6]1([H:7])[H:11])[H:8]"
N       -1.99107507      -0.36666040       0.01906717
C       -0.69939211      -0.40145309       0.30623507
N        0.21936815      -1.37220235       0.34097566
N        1.36019694      -0.69787663       0.00733257
C        1.23147776       0.57879097      -0.27610907
C       -0.12882802       0.92358320      -0.01765142
H       -1.43884975       0.83802288      -0.55437570
H       -2.53851906      -1.21037751       0.11593734
H        2.20441214      -1.23905282      -0.08333187
H        2.09338681       1.18557163      -0.50853548
H       -0.31217777       1.76165411       0.65045572
11
Frame=4 idx=000913 GeodesicLength=0.1648415531966906 rxn_smarts="[N:1]([c:2]1[n:3][n:4]([H:9])[c:5]([H:10])[c:6]1[H:11])([H:7])[H:8]>>[N-:1]([C+:2]1[N-:3][N:4]([H:9])[C+:5]([H:10])[C:6]1([H:7])[H:11])[H:8]"
N       -1.99210028      -0.36505192       0.02955978
C       -0.70080664      -0.39445300       0.32583876
N        0.21530822      -1.36975968       0.34060533
N        1.35692094      -0.69983248       0.00933832
C        1.23035862       0.57649491      -0.27918760
C       -0.12768941       0.92617602      -0.01480603
H       -1.44957086       0.84403791      -0.55745060
H       -2.51812875      -1.22544264       0.09575329
H        2.19829176      -1.24449874      -0.08675977
H        2.09371208       1.18194096      -0.50961156
H       -0.30629567       1.77038865       0.64672005
11
Frame=5 idx=000913 GeodesicLength=0.20590177545096452 rxn_smarts="[N:1]([c:2]1[n:3][n:4]([H:9])[c:5]([H:10])[c:6]1[H:11])([H:7])[H:8]>>[N-:1]([C+:2]1[N-:3][N:4]([H:9])[C+:5]([H:10])[C:6]1([H:7])[H:11])[H:8]"
N       -1.99284153      -0.36391999       0.03859199
C       -0.70198933      -0.38794237       0.34391674
N        0.21140588      -1.36740362       0.33967032
N        1.35370345      -0.70179599       0.01075384
C        1.22920924       0.57423778      -0.28202733
C       -0.12662671       0.92840197      -0.01203933
H       -1.46043350       0.84988016      -0.56111266
H       -2.49802934      -1.23853358       0.07838073
H        2.19251664      -1.24950913      -0.08956482
H        2.09391860       1.17853088      -0.50993574
H       -0.30083340       1.77805388       0.64336627
11
Frame=6 idx=000913 GeodesicLength=0.24710056318368256 rxn_smarts="[N:1]([c:2]1[n:3][n:4]([H:9])[c:5]([H:10])[c:6]1[H:11])([H:7])[H:8]>>[N-:1]([C+:2]1[N-:3][N:4]([H:9])[C+:5]([H:10])[C:6]1([H:7])[H:11])[H:8]"
N       -1.99351228      -0.36309337       0.04715858
C       -0.70310450      -0.38185303       0.36124392
N        0.20764185      -1.36510053       0.33880322
N        1.35053679      -0.70384966       0.01184612
C        1.22800574       0.57199712      -0.28490254
C       -0.12561833       0.93049845      -0.00907527
H       -1.47160020       0.85583733      -0.56467311
H       -2.47786110      -1.25044741       0.06136077
H        2.18712506      -1.25434270      -0.09141447
H        2.09390541       1.17514793      -0.51101588
H       -0.29551842       1.78520587       0.64066866
11
Frame=7 idx=000913 GeodesicLength=0.2883294857698019 rxn_smarts="[N:1]([c:2]1[n:3][n:4]([H:9])[c:5]([H:10])[c:6]1[H:11])([H:7])[H:8]>>[N-:1]([C+:2]1[N-:3][N:4]([H:9])[C+:5]([H:10])[C:6]1([H:7])[H:11])[H:8]"
N       -1.99401717      -0.36262195       0.05485491
C       -0.70412447      -0.37611904       0.37774916
N        0.20401938      -1.36282504       0.33806792
N        1.34744943      -0.70591935       0.01280091
C        1.22681338       0.56981591      -0.28757181
C       -0.12464558       0.93243962      -0.00603923
H       -1.48292904       0.86176627      -0.56855964
H       -2.45778216      -1.26119903       0.04557277
H        2.18188898      -1.25908386      -0.09317130
H        2.09381385       1.17189456      -0.51204803
H       -0.29048661       1.79185191       0.63834434
11
Frame=8 idx=000913 GeodesicLength=0.32953161205269355 rxn_smarts="[N:1]([c:2]1[n:3][n:4]([H:9])[c:5]([H:10])[c:6]1[H:11])([H:7])[H:8]>>[N-:1]([C+:2]1[N-:3][N:4]([H:9])[C+:5]([H:10])[C:6]1([H:7])[H:11])[H:8]"
N       -1.99435635      -0.36239519       0.06197677
C       -0.70505204      -0.37063330       0.39370162
N        0.20057631      -1.36046950       0.33780001
N        1.34442874      -0.70797770       0.01376150
C        1.22558766       0.56763684      -0.29006319
C       -0.12371129       0.93423798      -0.00287812
H       -1.49447685       0.86766146      -0.57259358
H       -2.43761220      -1.27099602       0.03026276
H        2.17670859      -1.26378414      -0.09502300
H        2.09357107       1.16864294      -0.51327348
H       -0.28566364       1.79807664       0.63632870
11
Frame=9 idx=000913 GeodesicLength=0.3707788876051966 rxn_smarts="[N:1]([c:2]1[n:3][n:4]([H:9])[c:5]([H:10])[c:6]1[H:11])([H:7])[H:8]>>[N-:1]([C+:2]1[N-:3][N:4]([H:9])[C+:5]([H:10])[C:6]1([H:7])[H:11])[H:8]"
N       -1.99455397      -0.36242137       0.06858347
C       -0.70591507      -0.36537491       0.40920366
N        0.19729005      -1.35806813       0.33806192
N        1.34147082      -0.71004149       0.01477070
C        1.22435499       0.56548061      -0.29238657
C       -0.12279666       0.93593467       0.00039859
H       -1.50622093       0.87351936      -0.57682474
H       -2.41734219      -1.27997335       0.01536091
H        2.17150741      -1.26849298      -0.09711513
H        2.09323508       1.16543580      -0.51462990
H       -0.28102953       1.80400180       0.63457707
11
Frame=10 idx=000913 GeodesicLength=0.4120321060658913 rxn_smarts="[N:1]([c:2]1[n:3][n:4]([H:9])[c:5]([H:10])[c:6]1[H:11])([H:7])[H:8]>>[N-:1]([C+:2]1[N-:3][N:4]([H:9])[C+:5]([H:10])[C:6]1([H:7])[H:11])[H:8]"
N       -1.99459605      -0.36265755       0.07456966
C       -0.70670708      -0.36037549       0.42413480
N        0.19415680      -1.35568324       0.33847637
N        1.33859116      -0.71210599       0.01573505
C        1.22312318       0.56335387      -0.29457011
C       -0.12189455       0.93751646       0.00374735
H       -1.51814541       0.87936039      -0.58133781
H       -2.39716612      -1.28812943       0.00131680
H        2.16639791      -1.27315803      -0.09922102
H        2.09282905       1.16231210      -0.51594747
H       -0.27658889       1.80956691       0.63309638
11
Frame=11 idx=000913 GeodesicLength=0.45330772976842154 rxn_smarts="[N:1]([c:2]1[n:3][n:4]([H:9])[c:5]([H:10])[c:6]1[H:11])([H:7])[H:8]>>[N-:1]([C+:2]1[N-:3][N:4]([H:9])[C+:5]([H:10])[C:6]1([H:7])[H:11])[H:8]"
N       -1.99449217      -0.36309050       0.08000513
C       -0.70744616      -0.35558729       0.43862120
N        0.19117595      -1.35328674       0.33921551
N        1.33578905      -0.71416460       0.01674432
C        1.22190459       0.56125524      -0.29657781
C       -0.12099827       0.93900459       0.00718064
H       -1.53024863       0.88515817      -0.58614134
H       -2.37701969      -1.29556864      -0.01207516
H        2.16129584      -1.27782832      -0.10157041
H        2.09237354       1.15925327      -0.51723517
H       -0.27233405       1.81485481       0.63183309
11
Frame=12 idx=000913 GeodesicLength=0.4946401302572066 rxn_smarts="[N:1]([c:2]1[n:3][n:4]([H:9])[c:5]([H:10])[c:6]1[H:11])([H:7])[H:8]>>[N-:1]([C+:2]1[N-:3][N:4]([H:9])[C+:5]([H:10])[C:6]1([H:7])[H:11])[H:8]"
N       -1.99426378      -0.36369323       0.08515486
C       -0.70814482      -0.35096036       0.45287489
N        0.18835580      -1.35084676       0.34053787
N        1.33304477      -0.71621902       0.01788420
C        1.22065192       0.55914722      -0.29849769
C       -0.12010860       0.94042350       0.01075210
H       -1.54260054       0.89094366      -0.59104048
H       -2.35669921      -1.30239371      -0.02551461
H        2.15614429      -1.28254186      -0.10414185
H        2.09179856       1.15618298      -0.51880393
H       -0.26817837       1.81995758       0.63079464
11
Frame=13 idx=000913 GeodesicLength=0.5359601934872462 rxn_smarts="[N:1]([c:2]1[n:3][n:4]([H:9])[c:5]([H:10])[c:6]1[H:11])([H:7])[H:8]>>[N-:1]([C+:2]1[N-:3][N:4]([H:9])[C+:5]([H:10])[C:6]1([H:7])[H:11])[H:8]"
N       -1.99387145      -0.36443643       0.08973109
C       -0.70879863      -0.34648899       0.46673105
N        0.18568783      -1.34838369       0.34217309
N        1.33036920      -0.71826110       0.01905730
C        1.21941859       0.55706204      -0.30022250
C       -0.11921567       0.94175610       0.01439586
H       -1.55512536       0.89667020      -0.59628956
H       -2.33641000      -1.30862769      -0.03820813
H        2.15094015      -1.28727283      -0.10708461
H        2.09120362       1.15316964      -0.52018632
H       -0.26419829       1.82481276       0.62990272
11
Frame=14 idx=000913 GeodesicLength=0.5773432439628413 rxn_smarts="[N:1]([c:2]1[n:3][n:4]([H:9])[c:5]([H:10])[c:6]1[H:11])([H:7])[H:8]>>[N-:1]([C+:2]1[N-:3][N:4]([H:9])[C+:5]([H:10])[C:6]1([H:7])[H:11])[H:8]"
N       -1.99337682      -0.36530779       0.09422636
C       -0.70941510      -0.34218130       0.48046746
N        0.18318225      -1.34590614       0.34431990
N        1.32774591      -0.72030364       0.02037751
C        1.21809455       0.55492184      -0.30196918
C       -0.11833166       0.94301272       0.01824395
H       -1.56798758       0.90243727      -0.60142169
H       -2.31584012      -1.31421736      -0.05144763
H        2.14577895      -1.29197891      -0.10985297
H        2.09037922       1.15004741      -0.52226858
H       -0.26022963       1.82947589       0.62932486
11
Frame=15 idx=000913 GeodesicLength=0.6187055081063719 rxn_smarts="[N:1]([c:2]1[n:3][n:4]([H:9])[c:5]([H:10])[c:6]1[H:11])([H:7])[H:8]>>[N-:1]([C+:2]1[N-:3][N:4]([H:9])[C+:5]([H:10])[C:6]1([H:7])[H:11])[H:8]"
N       -1.99272545      -0.36626964       0.09817230
C       -0.70998288      -0.33804458       0.49378395
N        0.18081176      -1.34344789       0.34652342
N        1.32520148      -0.72233378       0.02168104
C        1.21680848       0.55281346      -0.30352820
C       -0.11742728       0.94418271       0.02214853
H       -1.58101398       0.90813211      -0.60696828
H       -2.29543513      -1.31926249      -0.06375354
H        2.14062391      -1.29666001      -0.11285714
H        2.08956163       1.14700426      -0.52409723
H       -0.25642254       1.83388587       0.62889514
11
Frame=16 idx=000913 GeodesicLength=0.6601084329049909 rxn_smarts="[N:1]([c:2]1[n:3][n:4]([H:9])[c:5]([H:10])[c:6]1[H:11])([H:7])[H:8]>>[N-:1]([C+:2]1[N-:3][N:4]([H:9])[C+:5]([H:10])[C:6]1([H:7])[H:11])[H:8]"
N       -1.99196075      -0.36731848       0.10178797
C       -0.71051762      -0.33408767       0.50680539
N        0.17856304      -1.34104075       0.34884208
N        1.32273093      -0.72437310       0.02299356
C        1.21554322       0.55072647      -0.30498655
C       -0.11649940       0.94529253       0.02614104
H       -1.59425723       0.91377616      -0.61280243
H       -2.27511191      -1.32379075      -0.07557230
H        2.13550963      -1.30133041      -0.11593522
H        2.08872360       1.14402191      -0.52592689
H       -0.25272350       1.83812410       0.62865336
