17
Frame=0 idx=010102 GeodesicLength=0.0 rxn_smarts="[C:1]([C@@:2]1([H:11])[C:3]([H:12])([H:13])[C@:4]1([C:5]([C:6](=[O:7])[H:17])([H:15])[H:16])[H:14])([H:8])([H:9])[H:10]>>[C:1]([C@@:2]1([H:11])[C@:3]2([H:13])[C@@:4]1([H:14])[C:5]([H:15])([H:16])[C@:6]2([O:7][H:12])[H:17])([H:8])([H:9])[H:10]"
C       -1.98877015      -0.51691413       0.37250937
C       -1.20484256       0.66076548      -0.14460571
C        0.00347289       1.16685563       0.53511109
C        0.11832720       0.54921866      -0.86357619
C        0.97185514      -0.68550561      -0.81616017
C        1.70363441      -0.43347932       0.45581018
O        2.43587031       0.64129127       0.60382209
H       -2.64618937      -0.20933829       1.18804582
H       -1.32746613      -1.29218387       0.76641028
H       -2.60894757      -0.96113193      -0.40982903
H       -1.82243510       1.42282371      -0.61619553
H        1.81235425       1.42938856       0.43852582
H        0.36247530       0.58398106       1.40373149
H        0.25394434       1.23472750      -1.69421585
H        1.66634945      -0.77149407      -1.65892816
H        0.39554790      -1.61107154      -0.76156465
H        1.87481969      -1.20793313       1.20110917
17
Frame=1 idx=010102 GeodesicLength=0.10567037095973739 rxn_smarts="[C:1]([C@@:2]1([H:11])[C:3]([H:12])([H:13])[C@:4]1([C:5]([C:6](=[O:7])[H:17])([H:15])[H:16])[H:14])([H:8])([H:9])[H:10]>>[C:1]([C@@:2]1([H:11])[C@:3]2([H:13])[C@@:4]1([H:14])[C:5]([H:15])([H:16])[C@:6]2([O:7][H:12])[H:17])([H:8])([H:9])[H:10]"
C       -1.98824908      -0.51852253       0.36852033
C       -1.20140480       0.65972517      -0.14289975
C        0.01381811       1.16143124       0.53094370
C        0.11676164       0.54688446      -0.86796671
C        0.96820821      -0.68942797      -0.81551109
C        1.70652406      -0.43213978       0.45384110
O        2.44567208       0.63869555       0.59626482
H       -2.64470328      -0.21305669       1.18564121
H       -1.33002454      -1.29819756       0.75851208
H       -2.60964585      -0.95702189      -0.41604076
H       -1.81886773       1.42820995      -0.60385887
H        1.80186579       1.44538603       0.44751914
H        0.34876604       0.60340772       1.42272420
H        0.25545507       1.23140536      -1.69865685
H        1.66041730      -0.77970736      -1.65947052
H        0.39426665      -1.61606940      -0.75418645
H        1.88114032      -1.21100231       1.19462440
17
Frame=2 idx=010102 GeodesicLength=0.21133593951628143 rxn_smarts="[C:1]([C@@:2]1([H:11])[C:3]([H:12])([H:13])[C@:4]1([C:5]([C:6](=[O:7])[H:17])([H:15])[H:16])[H:14])([H:8])([H:9])[H:10]>>[C:1]([C@@:2]1([H:11])[C@:3]2([H:13])[C@@:4]1([H:14])[C:5]([H:15])([H:16])[C@:6]2([O:7][H:12])[H:17])([H:8])([H:9])[H:10]"
C       -1.98764637      -0.52024501       0.36456331
C       -1.19789483       0.65857313      -0.14110792
C        0.02421363       1.15564050       0.52699425
C        0.11524571       0.54455850      -0.87225831
C        0.96458935      -0.69336713      -0.81495263
C        1.70944871      -0.43101629       0.45178441
O        2.45575745       0.63560120       0.58867137
H       -2.64322496      -0.21694372       1.18320769
H       -1.33250090      -1.30426687       0.75065308
H       -2.61018903      -0.95302102      -0.42223248
H       -1.81511864       1.43346992      -0.59125976
H        1.79129331       1.46145459       0.45632276
H        0.33446253       0.62446915       1.44147961
H        0.25703964       1.22821361      -1.70288148
H        1.65450384      -0.78782501      -1.66009288
H        0.39301654      -1.62104077      -0.74703636
H        1.88700403      -1.21425477       1.18814535
17
Frame=3 idx=010102 GeodesicLength=0.31699460985730965 rxn_smarts="[C:1]([C@@:2]1([H:11])[C:3]([H:12])([H:13])[C@:4]1([C:5]([C:6](=[O:7])[H:17])([H:15])[H:16])[H:14])([H:8])([H:9])[H:10]>>[C:1]([C@@:2]1([H:11])[C@:3]2([H:13])[C@@:4]1([H:14])[C:5]([H:15])([H:16])[C@:6]2([O:7][H:12])[H:17])([H:8])([H:9])[H:10]"
C       -1.98695838      -0.52208772       0.36064381
C       -1.19430925       0.65730290      -0.13922376
C        0.03466152       1.14945799       0.52329010
C        0.11378849       0.54224367      -0.87643385
C        0.96100276      -0.69732614      -0.81449192
C        1.71242022      -0.43013174       0.44963404
O        2.46615729       0.63195865       0.58105184
H       -2.64175034      -0.22100611       1.18075155
H       -1.33489055      -1.31040086       0.74283328
H       -2.61057549      -0.94913221      -0.42839895
H       -1.81118020       1.43859521      -0.57838821
H        1.78058901       1.47762784       0.46494384
H        0.31951980       0.64729070       1.45993071
H        0.25870732       1.22516354      -1.70686604
H        1.64860849      -0.79584061      -1.66080896
H        0.39179747      -1.62599014      -0.74013233
H        1.89241182      -1.21772498       1.18166487
17
Frame=4 idx=010102 GeodesicLength=0.42264469682003974 rxn_smarts="[C:1]([C@@:2]1([H:11])[C:3]([H:12])([H:13])[C@:4]1([C:5]([C:6](=[O:7])[H:17])([H:15])[H:16])[H:14])([H:8])([H:9])[H:10]>>[C:1]([C@@:2]1([H:11])[C@:3]2([H:13])[C@@:4]1([H:14])[C:5]([H:15])([H:16])[C@:6]2([O:7][H:12])[H:17])([H:8])([H:9])[H:10]"
C       -1.98618202      -0.52405774       0.35676712
C       -1.19064430       0.65590739      -0.13723901
C        0.04516436       1.14285312       0.51986420
C        0.11240025       0.53994334      -0.88047319
C        0.95745232      -0.70130896      -0.81413544
C        1.71545187      -0.42951064       0.44738387
O        2.47690512       0.62771542       0.57341252
H       -2.64027677      -0.22525255       1.17827840
H       -1.33719026      -1.31661032       0.73505196
H       -2.61080342      -0.94535820      -0.43453634
H       -1.80704344       1.44357786      -0.56523113
H        1.76970100       1.49394086       0.47339277
H        0.30388914       0.67201189       1.47799684
H        0.26046974       1.22226914      -1.71058172
H        1.64272877      -0.80374863      -1.66163313
H        0.39060874      -1.63092305      -0.73349167
H        1.89736891      -1.22144893       1.17517396
17
Frame=5 idx=010102 GeodesicLength=0.5282843855596552 rxn_smarts="[C:1]([C@@:2]1([H:11])[C:3]([H:12])([H:13])[C@:4]1([C:5]([C:6](=[O:7])[H:17])([H:15])[H:16])[H:14])([H:8])([H:9])[H:10]>>[C:1]([C@@:2]1([H:11])[C@:3]2([H:13])[C@@:4]1([H:14])[C:5]([H:15])([H:16])[C@:6]2([O:7][H:12])[H:17])([H:8])([H:9])[H:10]"
C       -1.98531518      -0.52616324       0.35293802
C       -1.18689604       0.65437865      -0.13514288
C        0.05572504       1.13578902       0.51675663
C        0.11109251       0.53766136      -0.88435212
C        0.95394142      -0.70532066      -0.81388866
C        1.71855912      -0.42917932       0.44502758
O        2.48803724       0.62281599       0.56575500
H       -2.63880417      -0.22969397       1.17579245
H       -1.33939892      -1.32290803       0.72730743
H       -2.61087062      -0.94170128      -0.44064294
H       -1.80269802       1.44841035      -0.55177151
H        1.75857235       1.51043036       0.48168351
H        0.28751885       0.69878861       1.49558015
H        0.26234132       1.21954738      -1.71399311
H        1.63685979      -0.81154456      -1.66258029
H        0.38944898      -1.63584620      -0.72713034
H        1.90188632      -1.22546445       1.16866108
17
Frame=6 idx=010102 GeodesicLength=0.6339116110770705 rxn_smarts="[C:1]([C@@:2]1([H:11])[C:3]([H:12])([H:13])[C@:4]1([C:5]([C:6](=[O:7])[H:17])([H:15])[H:16])[H:14])([H:8])([H:9])[H:10]>>[C:1]([C@@:2]1([H:11])[C@:3]2([H:13])[C@@:4]1([H:14])[C:5]([H:15])([H:16])[C@:6]2([O:7][H:12])[H:17])([H:8])([H:9])[H:10]"
C       -1.98435693      -0.52841353       0.34916089
C       -1.18306017       0.65270787      -0.13292156
C        0.06634673       1.12822167       0.51401606
C        0.10987842       0.53540229      -0.88804144
C        0.95047315      -0.70936739      -0.81375576
C        1.72176033      -0.42916637       0.44255854
O        2.49959289       0.61720151       0.55807661
H       -2.63733524      -0.23434366       1.17329658
H       -1.34151795      -1.32930911       0.71959687
H       -2.61077466      -0.93816311      -0.44671934
H       -1.79813188       1.45308552      -0.53798774
H        1.74713982       1.52713482       0.48983308
H        0.27035406       0.72779468       1.51256094
H        0.26433962       1.21701864      -1.71705705
H        1.63099405      -0.81922467      -1.66366587
H        0.38831633      -1.64076743      -0.72106275
H        1.90598142      -1.22981176       1.16211192
17
Frame=7 idx=010102 GeodesicLength=0.739524058180941 rxn_smarts="[C:1]([C@@:2]1([H:11])[C:3]([H:12])([H:13])[C@:4]1([C:5]([C:6](=[O:7])[H:17])([H:15])[H:16])[H:14])([H:8])([H:9])[H:10]>>[C:1]([C@@:2]1([H:11])[C@:3]2([H:13])[C@@:4]1([H:14])[C:5]([H:15])([H:16])[C@:6]2([O:7][H:12])[H:17])([H:8])([H:9])[H:10]"
C       -1.98330839      -0.53081917       0.34543921
C       -1.17913216       0.65088514      -0.13055716
C        0.07703277       1.12009819       0.51170238
C        0.10877297       0.53317136      -0.89150521
C        0.94704996      -0.71345671      -0.81373881
C        1.72507807      -0.42950280       0.43996942
O        2.51161500       0.61081005       0.55036809
H       -2.63587731      -0.23921773       1.17079114
H       -1.34355275      -1.33583140       0.71191581
H       -2.61051296      -0.93474405      -0.45276972
H       -1.79333086       1.45759666      -0.52385285
H        1.73533221       1.54409494       0.49786318
H        0.25233771       0.75922446       1.52879255
H        0.26648609       1.21470723      -1.71972043
H        1.62512019      -0.82678662      -1.66490572
H        0.38720829      -1.64569596      -0.71530011
H        1.90968116      -1.23453357       1.15550823
17
Frame=8 idx=010102 GeodesicLength=0.8451212880709454 rxn_smarts="[C:1]([C@@:2]1([H:11])[C:3]([H:12])([H:13])[C@:4]1([C:5]([C:6](=[O:7])[H:17])([H:15])[H:16])[H:14])([H:8])([H:9])[H:10]>>[C:1]([C@@:2]1([H:11])[C@:3]2([H:13])[C@@:4]1([H:14])[C:5]([H:15])([H:16])[C@:6]2([O:7][H:12])[H:17])([H:8])([H:9])[H:10]"
C       -1.98217322      -0.53339223       0.34177553
C       -1.17510720       0.64889994      -0.12802675
C        0.08778646       1.11135617       0.50988970
C        0.10779350       0.53097511      -0.89469956
C        0.94367374      -0.71759831      -0.81383754
C        1.72854053      -0.43022275       0.43725240
O        2.52415071       0.60357671       0.54261309
H       -2.63444310      -0.24433539       1.16827435
H       -1.34551369      -1.34249689       0.70425806
H       -2.61008292      -0.93144302      -0.45880298
H       -1.78827847       1.46193856      -0.50933401
H        1.72306794       1.56135475       0.50580092
H        0.23341030       0.79329516       1.54409482
H        0.26880659       1.21264285      -1.72191908
H        1.61922214      -0.83423033      -1.66631691
H        0.38612189      -1.65064358      -0.70984971
H        1.91302481      -1.23967675       1.14882768
17
Frame=9 idx=010102 GeodesicLength=0.9506988802008647 rxn_smarts="[C:1]([C@@:2]1([H:11])[C:3]([H:12])([H:13])[C@:4]1([C:5]([C:6](=[O:7])[H:17])([H:15])[H:16])[H:14])([H:8])([H:9])[H:10]>>[C:1]([C@@:2]1([H:11])[C@:3]2([H:13])[C@@:4]1([H:14])[C:5]([H:15])([H:16])[C@:6]2([O:7][H:12])[H:17])([H:8])([H:9])[H:10]"
C       -1.98095802      -0.53614587       0.33817145
C       -1.17098035       0.64674041      -0.12530035
C        0.09861037       1.10192111       0.50866809
C        0.10696014       0.52882189      -0.89756929
C        0.94034629      -0.72180239      -0.81404796
C        1.73218185      -0.43136356       0.43439947
O        2.53725101       0.59543243       0.53479415
H       -2.63305182      -0.24971928       1.16574145
H       -1.34741658      -1.34933120       0.69661446
H       -2.60948193      -0.92825535      -0.46483263
H       -1.78295584       1.46610489      -0.49438887
H        1.71025315       1.57895994       0.51366924
H        0.21351250       0.83024774       1.55824170
H        0.27133135       1.21085985      -1.72357302
H        1.61328000      -0.84155438      -1.66791580
H        0.38505436      -1.65562280      -0.70471485
H        1.91606351      -1.24529345       1.14204276
17
Frame=10 idx=010102 GeodesicLength=1.056246391709607 rxn_smarts="[C:1]([C@@:2]1([H:11])[C:3]([H:12])([H:13])[C@:4]1([C:5]([C:6](=[O:7])[H:17])([H:15])[H:16])[H:14])([H:8])([H:9])[H:10]>>[C:1]([C@@:2]1([H:11])[C@:3]2([H:13])[C@@:4]1([H:14])[C:5]([H:15])([H:16])[C@:6]2([O:7][H:12])[H:17])([H:8])([H:9])[H:10]"
C       -1.97967101      -0.53909483       0.33462960
C       -1.16674609       0.64439279      -0.12234135
C        0.10950650       1.09170785       0.50814654
C        0.10629704       0.52672336      -0.90004609
C        0.93706788      -0.72607849      -0.81436209
C        1.73603967      -0.43296711       0.43140312
O        2.55097071       0.58630090       0.52688797
H       -2.63172682      -0.25539560       1.16318624
H       -1.34928090      -1.35636193       0.68897574
H       -2.60870582      -0.92517656      -0.47087326
H       -1.77734273       1.47008461      -0.47897353
H        1.69677952       1.59695630       0.52149892
H        0.19258528       0.87035002       1.57094769
H        0.27409833       1.20940108      -1.72458319
H        1.60726838      -0.84875433      -1.66971692
H        0.38400043      -1.66064455      -0.69989667
H        1.91885961      -1.25144350       1.13511728
17
Frame=11 idx=010102 GeodesicLength=1.1617535855204593 rxn_smarts="[C:1]([C@@:2]1([H:11])[C:3]([H:12])([H:13])[C@:4]1([C:5]([C:6](=[O:7])[H:17])([H:15])[H:16])[H:14])([H:8])([H:9])[H:10]>>[C:1]([C@@:2]1([H:11])[C@:3]2([H:13])[C@@:4]1([H:14])[C:5]([H:15])([H:16])[C@:6]2([O:7][H:12])[H:17])([H:8])([H:9])[H:10]"
C       -1.97832489      -0.54225645       0.33115128
C       -1.16239851       0.64184129      -0.11910225
C        0.12047534       1.08061543       0.50846044
C        0.10583282       0.52469456      -0.90204365
C        0.93383747      -0.73043668      -0.81476562
C        1.74015892      -0.43508015       0.42825685
O        2.56537052       0.57610030       0.51886484
H       -2.63050087      -0.26139722       1.16059839
H       -1.35113486      -1.36362299       0.68132801
H       -2.60775040      -0.92219816      -0.47694661
H       -1.77141600       1.47386521      -0.46303365
H        1.68251970       1.61539253       0.52932170
H        0.17057722       0.91390395       1.58185313
H        0.27715269       1.20831790      -1.72482667
H        1.60115451      -0.85582362      -1.67173306
H        0.38295352      -1.66572057      -0.69539021
H        1.92149281      -1.25819532       1.12800707
17
Frame=12 idx=010102 GeodesicLength=1.267211116027235 rxn_smarts="[C:1]([C@@:2]1([H:11])[C:3]([H:12])([H:13])[C@:4]1([C:5]([C:6](=[O:7])[H:17])([H:15])[H:16])[H:14])([H:8])([H:9])[H:10]>>[C:1]([C@@:2]1([H:11])[C@:3]2([H:13])[C@@:4]1([H:14])[C:5]([H:15])([H:16])[C@:6]2([O:7][H:12])[H:17])([H:8])([H:9])[H:10]"
C       -1.97693818      -0.54565508       0.32773775
C       -1.15792981       0.63906844      -0.11552244
C        0.13151797       1.06853023       0.50977905
C        0.10560256       0.52275745      -0.90345558
C        0.93065013      -0.73488726      -0.81523863
C        1.74458926      -0.43775512       0.42495890
O        2.58051843       0.56474496       0.51069350
H       -2.62941687      -0.26776925       1.15796695
H       -1.35301868      -1.37116080       0.67365398
H       -2.60661338      -0.91931289      -0.48308351
H       -1.76514719       1.47743294      -0.44650653
H        1.66732858       1.63432686       0.53717009
H        0.14745596       0.96125171       1.59050639
H        0.28054964       1.20767629      -1.72415686
H        1.59489524      -0.86275069      -1.67397805
H        0.38190061      -1.67086649      -0.69118783
H        1.92405574      -1.26563131       1.12066281
17
Frame=13 idx=010102 GeodesicLength=1.372589560450886 rxn_smarts="[C:1]([C@@:2]1([H:11])[C:3]([H:12])([H:13])[C@:4]1([C:5]([C:6](=[O:7])[H:17])([H:15])[H:16])[H:14])([H:8])([H:9])[H:10]>>[C:1]([C@@:2]1([H:11])[C@:3]2([H:13])[C@@:4]1([H:14])[C:5]([H:15])([H:16])[C@:6]2([O:7][H:12])[H:17])([H:8])([H:9])[H:10]"
C       -1.97552729      -0.54929776       0.32438876
C       -1.15333907       0.63604913      -0.11152240
C        0.14261914       1.05530596       0.51229821
C        0.10564496       0.52093452      -0.90413130
C        0.92751054      -0.73942527      -0.81573819
C        1.74939158      -0.44104968       0.42150571
O        2.59648294       0.55211576       0.50233568
H       -2.62852271      -0.27454751       1.15526407
H       -1.35496479      -1.37899609       0.66592238
H       -2.60528099      -0.91647942      -0.48930551
H       -1.75852685       1.48074761      -0.42930890
H        1.65101250       1.65377988       0.54505584
H        0.12318715       1.01273103       1.59629228
H        0.28433909       1.20753216      -1.72236183
H        1.58845464      -0.86950136      -1.67643288
H        0.38084741      -1.67606406      -0.68726626
H        1.92667176      -1.27383489       1.11300433
17
Frame=14 idx=010102 GeodesicLength=1.4779059992758181 rxn_smarts="[C:1]([C@@:2]1([H:11])[C:3]([H:12])([H:13])[C@:4]1([C:5]([C:6](=[O:7])[H:17])([H:15])[H:16])[H:14])([H:8])([H:9])[H:10]>>[C:1]([C@@:2]1([H:11])[C@:3]2([H:13])[C@@:4]1([H:14])[C:5]([H:15])([H:16])[C@:6]2([O:7][H:12])[H:17])([H:8])([H:9])[H:10]"
C       -1.97412072      -0.55323043       0.32111203
C       -1.14861681       0.63276677      -0.10700278
C        0.15377428       1.04081730       0.51628305
C        0.10601027       0.51927596      -0.90391093
C        0.92440470      -0.74405730      -0.81623375
C        1.75461417      -0.44503791       0.41792271
O        2.61334675       0.53810553       0.49377719
H       -2.62788543      -0.28181354       1.15248763
H       -1.35703287      -1.38721238       0.65811470
H       -2.60374686      -0.91370220      -0.49566512
H       -1.75152735       1.48379404      -0.41136685
H        1.63337842       1.67384047       0.55300173
H        0.09782752       1.06877517       1.59848725
H        0.28859314       1.20800025      -1.71924069
H        1.58177169      -0.87603830      -1.67911820
H        0.37976557      -1.68134043      -0.68362977
H        1.92944354      -1.28294302       1.10498180
17
Frame=15 idx=010102 GeodesicLength=1.583164460604315 rxn_smarts="[C:1]([C@@:2]1([H:11])[C:3]([H:12])([H:13])[C@:4]1([C:5]([C:6](=[O:7])[H:17])([H:15])[H:16])[H:14])([H:8])([H:9])[H:10]>>[C:1]([C@@:2]1([H:11])[C@:3]2([H:13])[C@@:4]1([H:14])[C:5]([H:15])([H:16])[C@:6]2([O:7][H:12])[H:17])([H:8])([H:9])[H:10]"
C       -1.97273697      -0.55747718       0.31791926
C       -1.14376329       0.62920209      -0.10183615
C        0.16495055       1.02492601       0.52203992
C        0.10675262       0.51784616      -0.90257273
C        0.92132852      -0.74876246      -0.81666359
C        1.76030456      -0.44980126       0.41424838
O        2.63118741       0.52255564       0.48501167
H       -2.62757188      -0.28963678       1.14962056
H       -1.35926064      -1.39586019       0.65020507
H       -2.60197715      -0.91094929      -0.50219971
H       -1.74415766       1.48652450      -0.39259461
H        1.61416657       1.69455911       0.56098993
H        0.07147607       1.12974338       1.59610940
H        0.29336603       1.20919228      -1.71451417
H        1.57479680      -0.88228150      -1.68201022
H        0.37864885      -1.68667638      -0.68027198
H        1.93248961      -1.29310415       1.09651897
17
Frame=16 idx=010102 GeodesicLength=1.6883674661176367 rxn_smarts="[C:1]([C@@:2]1([H:11])[C:3]([H:12])([H:13])[C@:4]1([C:5]([C:6](=[O:7])[H:17])([H:15])[H:16])[H:14])([H:8])([H:9])[H:10]>>[C:1]([C@@:2]1([H:11])[C@:3]2([H:13])[C@@:4]1([H:14])[C:5]([H:15])([H:16])[C@:6]2([O:7][H:12])[H:17])([H:8])([H:9])[H:10]"
C       -1.97140261      -0.56207441       0.31483098
C       -1.13877708       0.62534307      -0.09586289
C        0.17610538       1.00754671       0.52993493
C        0.10793860       0.51674514      -0.89984848
C        0.91826249      -0.75349256      -0.81694545
C        1.76648420      -0.45540982       0.41055850
O        2.65009238       0.50530018       0.47605485
H       -2.62767590      -0.29810782       1.14664525
H       -1.36170053      -1.40499876       0.64218590
H       -2.59992294      -0.90821133      -0.50895882
H       -1.73643797       1.48887556      -0.37292435
H        1.59309845       1.71602819       0.56895850
H        0.04440110       1.19582669       1.58794588
H        0.29871534       1.21124741      -1.70787665
H        1.56746647      -0.88810573      -1.68506927
H        0.37746481      -1.69203722      -0.67718790
H        1.93588782      -1.30447530       1.08755902
