12
Frame=0 idx=002160 GeodesicLength=0.0 rxn_smarts="[O:1]=[C:2]([C:3]1([H:8])[C:4]([H:9])([H:10])[O:5][C:6]1([H:11])[H:12])[H:7]>>[O:1]([C:2](=[C:3]1[C:4]([H:9])([H:10])[O:5][C:6]1([H:11])[H:12])[H:7])[H:8]"
O        1.77644911      -1.59689925      -0.14883910
C        1.32222430      -0.60593901       0.51095811
C        0.32857792       0.04418379      -0.23992274
C       -1.12234861      -0.50486231      -0.25944536
O       -1.62845797       0.76624185       0.15812548
C       -0.32985842       1.37453429       0.06009411
H        1.74395552      -0.37337240       1.49131832
H        1.08312784      -0.99059195      -1.01162998
H       -1.50354929      -0.77420273      -1.24826450
H       -1.34702948      -1.30633224       0.45037379
H       -0.02705213       1.86367595       0.99250464
H       -0.29603883       2.10356402      -0.75527280
12
Frame=1 idx=002160 GeodesicLength=0.035815753074941864 rxn_smarts="[O:1]=[C:2]([C:3]1([H:8])[C:4]([H:9])([H:10])[O:5][C:6]1([H:11])[H:12])[H:7]>>[O:1]([C:2](=[C:3]1[C:4]([H:9])([H:10])[O:5][C:6]1([H:11])[H:12])[H:7])[H:8]"
O        1.79029376      -1.58869920      -0.15374151
C        1.32142862      -0.60850036       0.51309388
C        0.32479115       0.03777662      -0.23798532
C       -1.12618233      -0.50525693      -0.25749028
O       -1.62967989       0.77022942       0.15025681
C       -0.32740621       1.37177883       0.06124912
H        1.73941834      -0.36586775       1.49243202
H        1.08154828      -0.99009577      -1.02357728
H       -1.50533047      -0.78021237      -1.24565273
H       -1.35575542      -1.30116673       0.45710545
H       -0.02987448       1.85801386       0.99679467
H       -0.28325136       2.10200039      -0.75248481
12
Frame=2 idx=002160 GeodesicLength=0.07162514985045504 rxn_smarts="[O:1]=[C:2]([C:3]1([H:8])[C:4]([H:9])([H:10])[O:5][C:6]1([H:11])[H:12])[H:7]>>[O:1]([C:2](=[C:3]1[C:4]([H:9])([H:10])[O:5][C:6]1([H:11])[H:12])[H:7])[H:8]"
O        1.80438825      -1.57993493      -0.15880677
C        1.32057105      -0.61122880       0.51535513
C        0.32099885       0.03125406      -0.23595332
C       -1.13005320      -0.50565769      -0.25548456
O       -1.63077381       0.77422322       0.14231494
C       -0.32489000       1.36894678       0.06237285
H        1.73470141      -0.35853616       1.49361661
H        1.07983231      -0.98949895      -1.03563212
H       -1.50716771      -0.78626873      -1.24293487
H       -1.36459836      -1.29588833       0.46388500
H       -0.03268042       1.85236247       1.00097359
H       -0.27032835       2.10022705      -0.74970648
12
Frame=3 idx=002160 GeodesicLength=0.1074308630683026 rxn_smarts="[O:1]=[C:2]([C:3]1([H:8])[C:4]([H:9])([H:10])[O:5][C:6]1([H:11])[H:12])[H:7]>>[O:1]([C:2](=[C:3]1[C:4]([H:9])([H:10])[O:5][C:6]1([H:11])[H:12])[H:7])[H:8]"
O        1.81875951      -1.57054579      -0.16405890
C        1.31965189      -0.61413242       0.51773875
C        0.31719680       0.02460911      -0.23382693
C       -1.13396426      -0.50606496      -0.25342006
O       -1.63173981       0.77823140       0.13425683
C       -0.32230441       1.36603129       0.06346234
H        1.72978168      -0.35140330       1.49487437
H        1.07796917      -0.98879659      -1.04779937
H       -1.50906626      -0.79240236      -1.24009147
H       -1.37356896      -1.29046623       0.47074460
H       -0.03548252       1.84670059       1.00505206
H       -0.25723283       2.09823925      -0.74693221
12
Frame=4 idx=002160 GeodesicLength=0.14322460727965847 rxn_smarts="[O:1]=[C:2]([C:3]1([H:8])[C:4]([H:9])([H:10])[O:5][C:6]1([H:11])[H:12])[H:7]>>[O:1]([C:2](=[C:3]1[C:4]([H:9])([H:10])[O:5][C:6]1([H:11])[H:12])[H:7])[H:8]"
O        1.83336725      -1.56052298      -0.16946632
C        1.31868859      -0.61719879       0.52023321
C        0.31339362       0.01784587      -0.23161674
C       -1.13790726      -0.50647901      -0.25130146
O       -1.63256197       0.78223643       0.12613719
C       -0.31964587       1.36303516       0.06451217
H        1.72463218      -0.34448917       1.49622764
H        1.07595948      -0.98800025      -1.06007725
H       -1.51103069      -0.79858297      -1.23713169
H       -1.38263954      -1.28492827       0.47765321
H       -0.03824852       1.84105233       1.00900688
H       -0.24400728       2.09603164      -0.74417684
12
Frame=5 idx=002160 GeodesicLength=0.17899496562211645 rxn_smarts="[O:1]=[C:2]([C:3]1([H:8])[C:4]([H:9])([H:10])[O:5][C:6]1([H:11])[H:12])[H:7]>>[O:1]([C:2](=[C:3]1[C:4]([H:9])([H:10])[O:5][C:6]1([H:11])[H:12])[H:7])[H:8]"
O        1.84816035      -1.54986913      -0.17499402
C        1.31769560      -0.62041482       0.52283539
C        0.30959708       0.01096927      -0.22932821
C       -1.14187350      -0.50689877      -0.24913492
O       -1.63322799       0.78622033       0.11800777
C       -0.31691270       1.35995929       0.06551809
H        1.71924216      -0.33780779       1.49768238
H        1.07380702      -0.98711331      -1.07245820
H       -1.51306204      -0.80477792      -1.23406844
H       -1.39178256      -1.27930103       0.48457855
H       -0.04095038       1.83543823       1.01281872
H       -0.23069304       2.09359565      -0.74145712
12
Frame=6 idx=002160 GeodesicLength=0.21473573514047192 rxn_smarts="[O:1]=[C:2]([C:3]1([H:8])[C:4]([H:9])([H:10])[O:5][C:6]1([H:11])[H:12])[H:7]>>[O:1]([C:2](=[C:3]1[C:4]([H:9])([H:10])[O:5][C:6]1([H:11])[H:12])[H:7])[H:8]"
O        1.86305964      -1.53863489      -0.18059095
C        1.31669538      -0.62375261       0.52553286
C        0.30581633       0.00399100      -0.22697261
C       -1.14584781      -0.50732009      -0.24692964
O       -1.63372859       0.79016208       0.10992333
C       -0.31411010       1.35680586       0.06647522
H        1.71361659      -0.33136195       1.49924728
H        1.07152167      -0.98613834      -1.08493257
H       -1.51515505      -0.81094420      -1.23091393
H       -1.40095459      -1.27361441       0.49147895
H       -0.04356443       1.82987416       1.01646295
H       -0.21734903       2.09093339      -0.73878089
12
Frame=7 idx=002160 GeodesicLength=0.25045694416083464 rxn_smarts="[O:1]=[C:2]([C:3]1([H:8])[C:4]([H:9])([H:10])[O:5][C:6]1([H:11])[H:12])[H:7]>>[O:1]([C:2](=[C:3]1[C:4]([H:9])([H:10])[O:5][C:6]1([H:11])[H:12])[H:7])[H:8]"
O        1.87810463      -1.52673365      -0.18628609
C        1.31569430      -0.62721797       0.52831041
C        0.30204875      -0.00309515      -0.22455546
C       -1.14983349      -0.50774791      -0.24467230
O       -1.63406172       0.79407079       0.10185514
C       -0.31122795       1.35357468       0.06737816
H        1.70769153      -0.32520992       1.50095132
H        1.06909196      -0.98507246      -1.09751814
H       -1.51731769      -0.81712002      -1.22764721
H       -1.41016325      -1.26784704       0.49839639
H       -0.04608757       1.82435647       1.01994536
H       -0.20393949       2.08804217      -0.73615757
12
Frame=8 idx=002160 GeodesicLength=0.2861349490628491 rxn_smarts="[O:1]=[C:2]([C:3]1([H:8])[C:4]([H:9])([H:10])[O:5][C:6]1([H:11])[H:12])[H:7]>>[O:1]([C:2](=[C:3]1[C:4]([H:9])([H:10])[O:5][C:6]1([H:11])[H:12])[H:7])[H:8]"
O        1.89329519      -1.51409433      -0.19208806
C        1.31469921      -0.63082157       0.53115441
C        0.29829281      -0.01029770      -0.22208000
C       -1.15383319      -0.50818342      -0.24235825
O       -1.63423060       0.79795437       0.09376162
C       -0.30826064       1.35025792       0.06822583
H        1.70145814      -0.31937135       1.50279761
H        1.06650791      -0.98392025      -1.11021989
H       -1.51954934      -0.82333684      -1.22425460
H       -1.41942056      -1.26196933       0.50536029
H       -0.04852937       1.81886153       1.02327707
H       -0.19042955       2.08492098      -0.73357604
12
Frame=9 idx=002160 GeodesicLength=0.3217935941508795 rxn_smarts="[O:1]=[C:2]([C:3]1([H:8])[C:4]([H:9])([H:10])[O:5][C:6]1([H:11])[H:12])[H:7]>>[O:1]([C:2](=[C:3]1[C:4]([H:9])([H:10])[O:5][C:6]1([H:11])[H:12])[H:7])[H:8]"
O        1.90855396      -1.50078181      -0.19794721
C        1.31372844      -0.63453445       0.53405763
C        0.29455724      -0.01760375      -0.21955655
C       -1.15783536      -0.50862721      -0.23999580
O       -1.63422881       0.80179372       0.08570200
C       -0.30521214       1.34686535       0.06901647
H        1.69492317      -0.31384425       1.50479157
H        1.06378714      -0.98268244      -1.12303715
H       -1.52184721      -0.82955949      -1.22075402
H       -1.42868830      -1.25602265       0.51233112
H       -0.05086679       1.81341902       1.02644308
H       -0.17687133       2.08157797      -0.73105115
12
Frame=10 idx=002160 GeodesicLength=0.3574070168921071 rxn_smarts="[O:1]=[C:2]([C:3]1([H:8])[C:4]([H:9])([H:10])[O:5][C:6]1([H:11])[H:12])[H:7]>>[O:1]([C:2](=[C:3]1[C:4]([H:9])([H:10])[O:5][C:6]1([H:11])[H:12])[H:7])[H:8]"
O        1.92377308      -1.48688354      -0.20379956
C        1.31279640      -0.63831999       0.53702387
C        0.29084850      -0.02499716      -0.21698727
C       -1.16182250      -0.50907132      -0.23760075
O       -1.63404920       0.80556176       0.07772431
C       -0.30208996       1.34339035       0.06974948
H        1.68813063      -0.30860745       1.50690473
H        1.06093773      -0.98133303      -1.13594088
H       -1.52420205      -0.83573643      -1.21716796
H       -1.43791728      -1.25003366       0.51925753
H       -0.05308144       1.80803324       1.02942917
H       -0.16332391       2.07799723      -0.72859265
12
Frame=11 idx=002160 GeodesicLength=0.3929825375986288 rxn_smarts="[O:1]=[C:2]([C:3]1([H:8])[C:4]([H:9])([H:10])[O:5][C:6]1([H:11])[H:12])[H:7]>>[O:1]([C:2](=[C:3]1[C:4]([H:9])([H:10])[O:5][C:6]1([H:11])[H:12])[H:7])[H:8]"
O        1.93898607      -1.47229328      -0.20967027
C        1.31192713      -0.64218228       0.54000925
C        0.28716995      -0.03248397      -0.21439158
C       -1.16579657      -0.50952551      -0.23515270
O       -1.63369409       0.80927371       0.06980476
C       -0.29888385       1.33984372       0.07041417
H        1.68098230      -0.30375145       1.50920824
H        1.05796168      -0.97988551      -1.14897606
H       -1.52662204      -0.84191897      -1.21346500
H       -1.44711170      -1.24398550       0.52619804
H       -0.05516555       1.80271030       1.03223219
H       -0.14975333       2.07419874      -0.72621105
12
Frame=12 idx=002160 GeodesicLength=0.42852062615718284 rxn_smarts="[O:1]=[C:2]([C:3]1([H:8])[C:4]([H:9])([H:10])[O:5][C:6]1([H:11])[H:12])[H:7]>>[O:1]([C:2](=[C:3]1[C:4]([H:9])([H:10])[O:5][C:6]1([H:11])[H:12])[H:7])[H:8]"
O        1.95406081      -1.45716462      -0.21548234
C        1.31113302      -0.64608069       0.54302282
C        0.28352923      -0.04004496      -0.21176922
C       -1.16974168      -0.50998712      -0.23267079
O       -1.63316501       0.81290332       0.06199568
C       -0.29560618       1.33622811       0.07101662
H        1.67355750      -0.29921902       1.51165304
H        1.05488298      -0.97830453      -1.16212177
H       -1.52908807      -0.84806093      -1.20967964
H       -1.45623067      -1.23791957       0.53309594
H       -0.05711285       1.79746578       1.03484972
H       -0.13621908       2.07018424      -0.72391005
12
Frame=13 idx=002160 GeodesicLength=0.46402338875220017 rxn_smarts="[O:1]=[C:2]([C:3]1([H:8])[C:4]([H:9])([H:10])[O:5][C:6]1([H:11])[H:12])[H:7]>>[O:1]([C:2](=[C:3]1[C:4]([H:9])([H:10])[O:5][C:6]1([H:11])[H:12])[H:7])[H:8]"
O        1.96902590      -1.44142746      -0.22126259
C        1.31042516      -0.65001456       0.54604280
C        0.27992511      -0.04768294      -0.20912914
C       -1.17365769      -0.51045817      -0.23014119
O       -1.63246369       0.81646009       0.05425737
C       -0.29225154       1.33254246       0.07154745
H        1.66579738      -0.29508054       1.51427959
H        1.05169693      -0.97658014      -1.17539725
H       -1.53160577      -0.85420124      -1.20578340
H       -1.46527366      -1.23180258       0.53999966
H       -0.05892607       1.79228890       1.03728130
H       -0.12269206       2.06595618      -0.72169460
12
Frame=14 idx=002160 GeodesicLength=0.49950862372934185 rxn_smarts="[O:1]=[C:2]([C:3]1([H:8])[C:4]([H:9])([H:10])[O:5][C:6]1([H:11])[H:12])[H:7]>>[O:1]([C:2](=[C:3]1[C:4]([H:9])([H:10])[O:5][C:6]1([H:11])[H:12])[H:7])[H:8]"
O        1.98387151      -1.42505704      -0.22701742
C        1.30980859      -0.65398533       0.54906098
C        0.27635531      -0.05540180      -0.20647450
C       -1.17755263      -0.51094519      -0.22755992
O       -1.63159977       0.81995176       0.04652527
C       -0.28881637       1.32878421       0.07201069
H        1.65772056      -0.29133587       1.51708081
H        1.04840139      -0.97469640      -1.18882046
H       -1.53417538      -0.86039175      -1.20176533
H       -1.47426436      -1.22560315       0.54694985
H       -0.06062982       1.78715539       1.03955658
H       -0.10911902       2.06152516      -0.71954655
12
Frame=15 idx=002160 GeodesicLength=0.534987789433062 rxn_smarts="[O:1]=[C:2]([C:3]1([H:8])[C:4]([H:9])([H:10])[O:5][C:6]1([H:11])[H:12])[H:7]>>[O:1]([C:2](=[C:3]1[C:4]([H:9])([H:10])[O:5][C:6]1([H:11])[H:12])[H:7])[H:8]"
O        1.99861614      -1.40801239      -0.23274244
C        1.30928473      -0.65798880       0.55204533
C        0.27281601      -0.06320261      -0.20381761
C       -1.18141353      -0.51144343      -0.22491478
O       -1.63056380       0.82339078       0.03876178
C       -0.28530281       1.32495288       0.07240145
H        1.64927599      -0.28804777       1.52005724
H        1.04498487      -0.97265087      -1.20239707
H       -1.53678446      -0.86666001      -1.19758749
H       -1.48318391      -1.21928257       0.55397675
H       -0.06224149       1.78205136       1.04166774
H       -0.09548773       2.05689344      -0.71745091
12
Frame=16 idx=002160 GeodesicLength=0.5704227209788313 rxn_smarts="[O:1]=[C:2]([C:3]1([H:8])[C:4]([H:9])([H:10])[O:5][C:6]1([H:11])[H:12])[H:7]>>[O:1]([C:2](=[C:3]1[C:4]([H:9])([H:10])[O:5][C:6]1([H:11])[H:12])[H:7])[H:8]"
O        2.01305520      -1.39054262      -0.23833462
C        1.30887058      -0.66198732       0.55502236
C        0.26931880      -0.07106484      -0.20114964
C       -1.18522751      -0.51195242      -0.22223551
O       -1.62936844       0.82674253       0.03102061
C       -0.28172974       1.32104776       0.07273420
H        1.64062580      -0.28506432       1.52312902
H        1.04149292      -0.97037908      -1.21610853
H       -1.53941333      -0.87294414      -1.19330590
H       -1.49199613      -1.21290434       0.56100003
H       -0.06376856       1.77697991       1.04362921
H       -0.08185960       2.05206889      -0.71540121
