12
Frame=0 idx=000609 GeodesicLength=0.0 rxn_smarts="[C:1]1([H:7])([H:8])[C@@:2]2([H:9])[C@:3]3([H:10])[O:4][C@@:5]2([H:11])[C@:6]13[H:12]>>[C:1]([C@@:2]1([H:9])[C@:3]2([H:10])[O:4][C@@:5]1([H:11])[C:6]2)([H:7])([H:8])[H:12]"
C        1.17837259      -0.52616495      -0.03845981
C       -0.18547658      -0.50364635       0.61923598
C       -0.47251949       0.99926974       0.55184706
O       -1.83104325       0.80737285       0.07169072
C       -1.05357879      -0.21511385      -0.60916612
C        0.05329508       0.83766933      -0.90325446
H        1.42864163      -1.40100725      -0.63617376
H        2.01972433      -0.16132595       0.54823498
H       -0.46717515      -1.16198424       1.44783839
H       -0.28058015       1.78842963       1.27482197
H       -1.56510215      -0.89211455      -1.28918348
H        1.17544189       0.42861560      -1.03743146
12
Frame=1 idx=000609 GeodesicLength=0.06071097453632716 rxn_smarts="[C:1]1([H:7])([H:8])[C@@:2]2([H:9])[C@:3]3([H:10])[O:4][C@@:5]2([H:11])[C@:6]13[H:12]>>[C:1]([C@@:2]1([H:9])[C@:3]2([H:10])[O:4][C@@:5]1([H:11])[C:6]2)([H:7])([H:8])[H:12]"
C        1.18043578      -0.52395089      -0.04183549
C       -0.18333852      -0.50434424       0.61887778
C       -0.47313306       0.99820671       0.55599636
O       -1.82849912       0.81365286       0.06385025
C       -1.05537080      -0.21860766      -0.60736127
C        0.04311242       0.84027186      -0.90086173
H        1.42970961      -1.40493937      -0.63113374
H        2.02013085      -0.16648184       0.55199403
H       -0.46559950      -1.16206904       1.44716506
H       -0.28247706       1.78811368       1.27831190
H       -1.56796613      -0.89437554      -1.28760041
H        1.18299556       0.43452349      -1.04740275
12
Frame=2 idx=000609 GeodesicLength=0.12141734088217374 rxn_smarts="[C:1]1([H:7])([H:8])[C@@:2]2([H:9])[C@:3]3([H:10])[O:4][C@@:5]2([H:11])[C@:6]13[H:12]>>[C:1]([C@@:2]1([H:9])[C@:3]2([H:10])[O:4][C@@:5]1([H:11])[C:6]2)([H:7])([H:8])[H:12]"
C        1.18249347      -0.52170579      -0.04524250
C       -0.18119986      -0.50500213       0.61847847
C       -0.47381053       0.99717079       0.56009206
O       -1.82597480       0.81975525       0.05620615
C       -1.05720166      -0.22202385      -0.60556049
C        0.03290783       0.84286801      -0.89845169
H        1.43076911      -1.40884370      -0.62595351
H        2.02045918      -0.17176038       0.55575222
H       -0.46397234      -1.16213962       1.44645011
H       -0.28442722       1.78782040       1.28174838
H       -1.57085745      -0.89656600      -1.28602082
H        1.19081427       0.44042701      -1.05749838
12
Frame=3 idx=000609 GeodesicLength=0.18212470678008663 rxn_smarts="[C:1]1([H:7])([H:8])[C@@:2]2([H:9])[C@:3]3([H:10])[O:4][C@@:5]2([H:11])[C@:6]13[H:12]>>[C:1]([C@@:2]1([H:9])[C@:3]2([H:10])[O:4][C@@:5]1([H:11])[C:6]2)([H:7])([H:8])[H:12]"
C        1.18454708      -0.51943040      -0.04867994
C       -0.17906248      -0.50562023       0.61803763
C       -0.47455126       0.99616243       0.56413406
O       -1.82348162       0.82567996       0.04876377
C       -1.05907221      -0.22536173      -0.60376547
C        0.02268078       0.84545976      -0.89602599
H        1.43182366      -1.41271552      -0.62063207
H        2.02070951      -0.17715788       0.55950371
H       -0.46229742      -1.16219552       1.44569496
H       -0.28643267       1.78754694       1.28513526
H       -1.57378118      -0.89868569      -1.28444264
H        1.19891780       0.44631788      -1.06772325
12
Frame=4 idx=000609 GeodesicLength=0.24283398189850897 rxn_smarts="[C:1]1([H:7])([H:8])[C@@:2]2([H:9])[C@:3]3([H:10])[O:4][C@@:5]2([H:11])[C@:6]13[H:12]>>[C:1]([C@@:2]1([H:9])[C@:3]2([H:10])[O:4][C@@:5]1([H:11])[C:6]2)([H:7])([H:8])[H:12]"
C        1.18659524      -0.51712453      -0.05214834
C       -0.17692778      -0.50619685       0.61755424
C       -0.47535435       0.99518307       0.56812203
O       -1.82102833       0.83142760       0.04152653
C       -1.06098266      -0.22862208      -0.60197753
C        0.01242898       0.84804852      -0.89358518
H        1.43287208      -1.41655072      -0.61516951
H        2.02087927      -0.18267270       0.56324278
H       -0.46057642      -1.16223220       1.44490058
H       -0.28849371       1.78728866       1.28847978
H       -1.57673675      -0.90073900      -1.28286465
H        1.20732444       0.45219023      -1.07808073
12
Frame=5 idx=000609 GeodesicLength=0.30354113037243236 rxn_smarts="[C:1]1([H:7])([H:8])[C@@:2]2([H:9])[C@:3]3([H:10])[O:4][C@@:5]2([H:11])[C@:6]13[H:12]>>[C:1]([C@@:2]1([H:9])[C@:3]2([H:10])[O:4][C@@:5]1([H:11])[C:6]2)([H:7])([H:8])[H:12]"
C        1.18863657      -0.51479027      -0.05564425
C       -0.17479789      -0.50673224       0.61702970
C       -0.47621921       0.99423183       0.57205845
O       -1.81862331       0.83699432       0.03450383
C       -1.06293212      -0.23180659      -0.60019613
C        0.00215046       0.85063379      -0.89112751
H        1.43391117      -1.42034105      -0.60957217
H        2.02096404      -0.18829734       0.56696419
H       -0.45881325      -1.16225152       1.44406593
H       -0.29060742       1.78705030       1.29177743
H       -1.57972240      -0.90272480      -1.28128924
H        1.21605336       0.45803356      -1.08857023
12
Frame=6 idx=000609 GeodesicLength=0.3642475287012381 rxn_smarts="[C:1]1([H:7])([H:8])[C@@:2]2([H:9])[C@:3]3([H:10])[O:4][C@@:5]2([H:11])[C@:6]13[H:12]>>[C:1]([C@@:2]1([H:9])[C@:3]2([H:10])[O:4][C@@:5]1([H:11])[C:6]2)([H:7])([H:8])[H:12]"
C        1.19066976      -0.51242972      -0.05916434
C       -0.17267552      -0.50722690       0.61646569
C       -0.47714547       0.99330835       0.57594513
O       -1.81627728       0.84237818       0.02770229
C       -1.06492164      -0.23491715      -0.59842086
C       -0.00815753       0.85321608      -0.88865171
H        1.43493883      -1.42407884      -0.60384675
H        2.02096244      -0.19402375       0.57066141
H       -0.45701279      -1.16225350       1.44319289
H       -0.29277003       1.78683323       1.29502732
H       -1.58273710      -0.90464380      -1.27971923
H        1.22512632       0.46383782      -1.09919184
12
Frame=7 idx=000609 GeodesicLength=0.4249528678486571 rxn_smarts="[C:1]1([H:7])([H:8])[C@@:2]2([H:9])[C@:3]3([H:10])[O:4][C@@:5]2([H:11])[C@:6]13[H:12]>>[C:1]([C@@:2]1([H:9])[C@:3]2([H:10])[O:4][C@@:5]1([H:11])[C:6]2)([H:7])([H:8])[H:12]"
C        1.19269387      -0.51004218      -0.06270768
C       -0.17056206      -0.50767985       0.61586304
C       -0.47813233       0.99241324       0.57978406
O       -1.81399827       0.84758003       0.02112629
C       -1.06695130      -0.23795515      -0.59665102
C       -0.01849845       0.85579656      -0.88615701
H        1.43595368      -1.42775824      -0.59799437
H        2.02087215      -0.19984531       0.57432909
H       -0.45517871      -1.16224043       1.44227888
H       -0.29498116       1.78663715       1.29823264
H       -1.58578095      -0.90649778      -1.27815360
H        1.23456354       0.46959195      -1.10995031
12
Frame=8 idx=000609 GeodesicLength=0.4856608197987866 rxn_smarts="[C:1]1([H:7])([H:8])[C@@:2]2([H:9])[C@:3]3([H:10])[O:4][C@@:5]2([H:11])[C@:6]13[H:12]>>[C:1]([C@@:2]1([H:9])[C@:3]2([H:10])[O:4][C@@:5]1([H:11])[C:6]2)([H:7])([H:8])[H:12]"
C        1.19470776      -0.50762714      -0.06627456
C       -0.16845925      -0.50809137       0.61522106
C       -0.47917960       0.99154667       0.58357688
O       -1.81179531       0.85260210       0.01477810
C       -1.06902280      -0.24092212      -0.59488732
C       -0.02887703       0.85837623      -0.88364378
H        1.43695645      -1.43137598      -0.59201571
H        2.02068932      -0.20575478       0.57796290
H       -0.45331123      -1.16221241       1.44132426
H       -0.29723893       1.78645962       1.30139847
H       -1.58885798      -0.90828888      -1.27659152
H        1.24438858       0.47528806      -1.12084878
12
Frame=9 idx=000609 GeodesicLength=0.5463707731874567 rxn_smarts="[C:1]1([H:7])([H:8])[C@@:2]2([H:9])[C@:3]3([H:10])[O:4][C@@:5]2([H:11])[C@:6]13[H:12]>>[C:1]([C@@:2]1([H:9])[C@:3]2([H:10])[O:4][C@@:5]1([H:11])[C:6]2)([H:7])([H:8])[H:12]"
C        1.19670987      -0.50518468      -0.06986530
C       -0.16636924      -0.50846044       0.61453950
C       -0.48028677       0.99070738       0.58732455
O       -1.80967561       0.85744517       0.00866299
C       -1.07113698      -0.24381998      -0.59312860
C       -0.03929703       0.86095520      -0.88111103
H        1.43794452      -1.43492302      -0.58591358
H        2.02040987      -0.21174526       0.58155805
H       -0.45141030      -1.16216863       1.44032853
H       -0.29954530       1.78629771       1.30452657
H       -1.59196982      -0.91001663      -1.27503186
H        1.25462679       0.48091316      -1.13188981
12
Frame=10 idx=000609 GeodesicLength=0.6070802611124827 rxn_smarts="[C:1]1([H:7])([H:8])[C@@:2]2([H:9])[C@:3]3([H:10])[O:4][C@@:5]2([H:11])[C@:6]13[H:12]>>[C:1]([C@@:2]1([H:9])[C@:3]2([H:10])[O:4][C@@:5]1([H:11])[C:6]2)([H:7])([H:8])[H:12]"
C        1.19869872      -0.50271526      -0.07347812
C       -0.16429412      -0.50878534       0.61381851
C       -0.48145441       0.98989604       0.59102840
O       -1.80764867       0.86210788       0.00278239
C       -1.07329301      -0.24664937      -0.59137557
C       -0.04976080       0.86353512      -0.87855640
H        1.43891129      -1.43839247      -0.57970251
H        2.02003292      -0.21781630       0.58510812
H       -0.44947692      -1.16210576       1.43929280
H       -0.30190551       1.78615298       1.30761802
H       -1.59511799      -0.91168757      -1.27346699
H        1.26530850       0.48646006      -1.14306867
12
Frame=11 idx=000609 GeodesicLength=0.6677932106673953 rxn_smarts="[C:1]1([H:7])([H:8])[C@@:2]2([H:9])[C@:3]3([H:10])[O:4][C@@:5]2([H:11])[C@:6]13[H:12]>>[C:1]([C@@:2]1([H:9])[C@:3]2([H:10])[O:4][C@@:5]1([H:11])[C:6]2)([H:7])([H:8])[H:12]"
C        1.20067332      -0.50022003      -0.07711316
C       -0.16223470      -0.50906656       0.61305942
C       -0.48268301       0.98911399       0.59469123
O       -1.80572397       0.86659339      -0.00286178
C       -1.07549234      -0.24941279      -0.58962892
C       -0.06027472       0.86611827      -0.87598047
H        1.43985481      -1.44177750      -0.57339169
H        2.01955814      -0.22396293       0.58860864
H       -0.44751396      -1.16202286       1.43822080
H       -0.30432087       1.78602622       1.31067885
H       -1.59830489      -0.91330785      -1.27189625
H        1.27646217       0.49191865      -1.15438666
12
Frame=12 idx=000609 GeodesicLength=0.7285145869237247 rxn_smarts="[C:1]1([H:7])([H:8])[C@@:2]2([H:9])[C@:3]3([H:10])[O:4][C@@:5]2([H:11])[C@:6]13[H:12]>>[C:1]([C@@:2]1([H:9])[C@:3]2([H:10])[O:4][C@@:5]1([H:11])[C:6]2)([H:7])([H:8])[H:12]"
C        1.20263130      -0.49769640      -0.08077117
C       -0.16019329      -0.50930310       0.61226182
C       -0.48397400       0.98835975       0.59831572
O       -1.80390728       0.87090247      -0.00826653
C       -1.07773744      -0.25211215      -0.58788666
C       -0.07084480       0.86870553      -0.87338084
H        1.44077227      -1.44507153      -0.56698453
H        2.01898233      -0.23017455       0.59205279
H       -0.44552290      -1.16191835       1.43711140
H       -0.30679279       1.78591315       1.31371389
H       -1.60153274      -0.91487824      -1.27031781
H        1.28811933       0.49727342      -1.16584806
12
Frame=13 idx=000609 GeodesicLength=0.7892384548096849 rxn_smarts="[C:1]1([H:7])([H:8])[C@@:2]2([H:9])[C@:3]3([H:10])[O:4][C@@:5]2([H:11])[C@:6]13[H:12]>>[C:1]([C@@:2]1([H:9])[C@:3]2([H:10])[O:4][C@@:5]1([H:11])[C:6]2)([H:7])([H:8])[H:12]"
C        1.20457006      -0.49514575      -0.08444930
C       -0.15817290      -0.50949564       0.61142779
C       -0.48532815       0.98763277       0.60190532
O       -1.80220995       0.87503536      -0.01342675
C       -1.08003000      -0.25474986      -0.58614723
C       -0.08147718       0.87129765      -0.87075480
H        1.44166056      -1.44826602      -0.56049305
H        2.01830388      -0.23643753       0.59543253
H       -0.44350784      -1.16179311       1.43596677
H       -0.30931865       1.78581497       1.31672379
H       -1.60480028      -0.91639989      -1.26873367
H        1.30031046       0.50250705      -1.17745139
12
Frame=14 idx=000609 GeodesicLength=0.8499636812321781 rxn_smarts="[C:1]1([H:7])([H:8])[C@@:2]2([H:9])[C@:3]3([H:10])[O:4][C@@:5]2([H:11])[C@:6]13[H:12]>>[C:1]([C@@:2]1([H:9])[C@:3]2([H:10])[O:4][C@@:5]1([H:11])[C:6]2)([H:7])([H:8])[H:12]"
C        1.20648615      -0.49256874      -0.08814519
C       -0.15617688      -0.50964449       0.61055937
C       -0.48674735       0.98693211       0.60546380
O       -1.80064103       0.87899131      -0.01833703
C       -1.08237273      -0.25732859      -0.58440849
C       -0.09217909       0.87389518      -0.86809940
H        1.44251511      -1.45135197      -0.55393118
H        2.01752130      -0.24273707       0.59873986
H       -0.44147240      -1.16164721       1.43478900
H       -0.31189689       1.78573279       1.31970924
H       -1.60810700      -0.91787415      -1.26714542
H        1.31307080       0.50760084      -1.18919456
12
Frame=15 idx=000609 GeodesicLength=0.9106879164741134 rxn_smarts="[C:1]1([H:7])([H:8])[C@@:2]2([H:9])[C@:3]3([H:10])[O:4][C@@:5]2([H:11])[C@:6]13[H:12]>>[C:1]([C@@:2]1([H:9])[C@:3]2([H:10])[O:4][C@@:5]1([H:11])[C:6]2)([H:7])([H:8])[H:12]"
C        1.20837568      -0.48996528      -0.09185696
C       -0.15420857      -0.50974983       0.60965844
C       -0.48823366       0.98625678       0.60899520
O       -1.79920994       0.88276955      -0.02299181
C       -1.08476851      -0.25985104      -0.58266808
C       -0.10295856       0.87649884      -0.86541129
H        1.44333114      -1.45432044      -0.54731330
H        2.01663301      -0.24905762       0.60196688
H       -0.43941982      -1.16148080       1.43357975
H       -0.31452580       1.78566763       1.32267114
H       -1.61145240      -0.91930246      -1.26555461
H        1.32643745       0.51253467      -1.20107536
12
Frame=16 idx=000609 GeodesicLength=0.9714117032288695 rxn_smarts="[C:1]1([H:7])([H:8])[C@@:2]2([H:9])[C@:3]3([H:10])[O:4][C@@:5]2([H:11])[C@:6]13[H:12]>>[C:1]([C@@:2]1([H:9])[C@:3]2([H:10])[O:4][C@@:5]1([H:11])[C:6]2)([H:7])([H:8])[H:12]"
C        1.21023553      -0.48733365      -0.09558488
C       -0.15227066      -0.50981126       0.60872592
C       -0.48978965       0.98560641       0.61250314
O       -1.79792641       0.88637066      -0.02738683
C       -1.08722075      -0.26231934      -0.58092404
C       -0.11382452       0.87911051      -0.86268800
H        1.44410489      -1.45716357      -0.54065167
H        2.01563783      -0.25538608       0.60510648
H       -0.43735127      -1.16129428       1.43234005
H       -0.31720708       1.78561927       1.32561281
H       -1.61483913      -0.92068704      -1.26395984
H        1.34045122       0.51728838      -1.21309314
