10
Frame=0 idx=003746 GeodesicLength=0.0 rxn_smarts="[C:1]1([H:5])([H:6])[C:2]([H:7])([H:8])[O:3][C:4]1([H:9])[H:10]>>[C:1]1([H:5])([H:6])[C:2]([H:7])([H:8])[O+:3]=[C-:4]1.[H:9][H:10]"
C        0.12122203       0.84471298      -0.06581789
C        1.00133040      -0.40546154      -0.02046900
O       -0.01913162      -1.12011292      -0.75224527
C       -0.92941979      -0.12371799      -0.62055017
H        0.41461446       1.54620279      -0.84737989
H       -0.07000380       1.38015505       0.85869097
H        1.95764796      -0.40626926      -0.54449368
H        1.10101508      -0.84025708       0.97964222
H       -1.94960475      -0.39789531       0.07365793
H       -1.62766997      -0.47735672       0.93896478
10
Frame=1 idx=003746 GeodesicLength=0.057918049057998265 rxn_smarts="[C:1]1([H:5])([H:6])[C:2]([H:7])([H:8])[O:3][C:4]1([H:9])[H:10]>>[C:1]1([H:5])([H:6])[C:2]([H:7])([H:8])[O+:3]=[C-:4]1.[H:9][H:10]"
C        0.12701785       0.84220304      -0.06329711
C        1.01236532      -0.40449266      -0.02156543
O       -0.01379751      -1.12853500      -0.73581628
C       -0.92454229      -0.13097294      -0.60603674
H        0.41215562       1.54771463      -0.84421052
H       -0.06066517       1.37466373       0.86392520
H        1.96045196      -0.40218012      -0.56058060
H        1.13208195      -0.83320445       0.97874214
H       -1.98380670      -0.38965390       0.05898529
H       -1.66126102      -0.47554233       0.92985405
10
Frame=2 idx=003746 GeodesicLength=0.11575971771391358 rxn_smarts="[C:1]1([H:5])([H:6])[C:2]([H:7])([H:8])[O:3][C:4]1([H:9])[H:10]>>[C:1]1([H:5])([H:6])[C:2]([H:7])([H:8])[O+:3]=[C-:4]1.[H:9][H:10]"
C        0.13286616       0.83945935      -0.06035582
C        1.02380927      -0.40347092      -0.02275740
O       -0.00827431      -1.13737536      -0.71803047
C       -0.91962869      -0.13876905      -0.59026693
H        0.40904073       1.54898247      -0.84076135
H       -0.05094430       1.36886576       0.86965096
H        1.96287226      -0.39813132      -0.57755362
H        1.16460460      -0.82558431       0.97737500
H       -2.01802243      -0.38060362       0.04285068
H       -1.69632328      -0.47337299       0.91984896
10
Frame=3 idx=003746 GeodesicLength=0.17341283347112546 rxn_smarts="[C:1]1([H:5])([H:6])[C:2]([H:7])([H:8])[O:3][C:4]1([H:9])[H:10]>>[C:1]1([H:5])([H:6])[C:2]([H:7])([H:8])[O+:3]=[C-:4]1.[H:9][H:10]"
C        0.13876076       0.83647571      -0.05696278
C        1.03561383      -0.40238108      -0.02404212
O       -0.00258437      -1.14656002      -0.69881247
C       -0.91470134      -0.14708311      -0.57309737
H        0.40523109       1.54993937      -0.83701256
H       -0.04076477       1.36277789       0.87587157
H        1.96476943      -0.39414366      -0.59539730
H        1.19857683      -0.81737143       0.97545431
H       -2.05209479      -0.37086910       0.02513795
H       -1.73280666      -0.47078458       0.90886077
10
Frame=4 idx=003746 GeodesicLength=0.23103682005019385 rxn_smarts="[C:1]1([H:5])([H:6])[C:2]([H:7])([H:8])[O:3][C:4]1([H:9])[H:10]>>[C:1]1([H:5])([H:6])[C:2]([H:7])([H:8])[O+:3]=[C-:4]1.[H:9][H:10]"
C        0.14470169       0.83329059      -0.05308241
C        1.04778718      -0.40123889      -0.02544818
O        0.00330862      -1.15615410      -0.67808374
C       -0.90977099      -0.15595350      -0.55438606
H        0.40070800       1.55063924      -0.83296491
H       -0.03010724       1.35649195       0.88264850
H        1.96611660      -0.39027905      -0.61418966
H        1.23400950      -0.80854043       0.97291191
H       -2.08594182      -0.36045157       0.00575189
H       -1.77081152      -0.46780424       0.89684266
10
Frame=5 idx=003746 GeodesicLength=0.28857212803074134 rxn_smarts="[C:1]1([H:5])([H:6])[C:2]([H:7])([H:8])[O:3][C:4]1([H:9])[H:10]>>[C:1]1([H:5])([H:6])[C:2]([H:7])([H:8])[O+:3]=[C-:4]1.[H:9][H:10]"
C        0.15067912       0.82988444      -0.04865592
C        1.06030789      -0.40003357      -0.02698495
O        0.00939731      -1.16613773      -0.65566537
C       -0.90484806      -0.16538865      -0.53393861
H        0.39538305       1.55102206      -0.82856298
H       -0.01888150       1.35000149       0.89002218
H        1.96675427      -0.38657505      -0.63399503
H        1.27098636      -0.79901638       0.96963722
H       -2.11940972      -0.34938737      -0.01549349
H       -1.81036872      -0.46436924       0.88363697
10
Frame=6 idx=003746 GeodesicLength=0.34601035244591183 rxn_smarts="[C:1]1([H:5])([H:6])[C:2]([H:7])([H:8])[O:3][C:4]1([H:9])[H:10]>>[C:1]1([H:5])([H:6])[C:2]([H:7])([H:8])[O+:3]=[C-:4]1.[H:9][H:10]"
C        0.15668572       0.82626618      -0.04362719
C        1.07314809      -0.39876472      -0.02866876
O        0.01568430      -1.17650001      -0.63141065
C       -0.89995242      -0.17539352      -0.51153393
H        0.38917724       1.55106342      -0.82377234
H       -0.00699552       1.34335743       0.89803711
H        1.96653971      -0.38309265      -0.65486762
H        1.30954737      -0.78874961       0.96551149
H       -2.15231645      -0.33773114      -0.03876725
H       -1.85151805      -0.46045539       0.86909912
10
Frame=7 idx=003746 GeodesicLength=0.4032908917883502 rxn_smarts="[C:1]1([H:5])([H:6])[C:2]([H:7])([H:8])[O:3][C:4]1([H:9])[H:10]>>[C:1]1([H:5])([H:6])[C:2]([H:7])([H:8])[O+:3]=[C-:4]1.[H:9][H:10]"
C        0.16271142       0.82243449      -0.03793417
C        1.08624029      -0.39742467      -0.03051008
O        0.02216159      -1.18717731      -0.60515983
C       -0.89509145      -0.18594936      -0.48690847
H        0.38200614       1.55070233      -0.81855584
H        0.00567569       1.33659537       0.90673415
H        1.96524648      -0.37988470      -0.67685230
H        1.34969124      -0.77768880       0.96040074
H       -2.18441209      -0.32559369      -0.06426635
H       -1.89422932      -0.45601367       0.85305214
10
Frame=8 idx=003746 GeodesicLength=0.46044630536276343 rxn_smarts="[C:1]1([H:5])([H:6])[C:2]([H:7])([H:8])[O:3][C:4]1([H:9])[H:10]>>[C:1]1([H:5])([H:6])[C:2]([H:7])([H:8])[O+:3]=[C-:4]1.[H:9][H:10]"
C        0.16874750       0.81842128      -0.03150803
C        1.09954202      -0.39602155      -0.03253249
O        0.02882859      -1.19814862      -0.57677353
C       -0.89030801      -0.19704721      -0.45975084
H        0.37377180       1.54992362      -0.81287516
H        0.01926292       1.32982871       0.91615822
H        1.96271333      -0.37704520      -0.69999130
H        1.39143171      -0.76579842       0.95414302
H       -2.21544517      -0.31306226      -0.09217846
H       -1.93854469      -0.45105034       0.83530858
10
Frame=9 idx=003746 GeodesicLength=0.5174943755610736 rxn_smarts="[C:1]1([H:5])([H:6])[C:2]([H:7])([H:8])[O:3][C:4]1([H:9])[H:10]>>[C:1]1([H:5])([H:6])[C:2]([H:7])([H:8])[O+:3]=[C-:4]1.[H:9][H:10]"
C        0.17478031       0.81425336      -0.02426016
C        1.11298229      -0.39455954      -0.03475574
O        0.03566946      -1.20936320      -0.54606615
C       -0.88563681      -0.20865987      -0.42967910
H        0.36434894       1.54868709      -0.80667495
H        0.03394711       1.32316792       0.92636641
H        1.95868186      -0.37466808      -0.72434523
H        1.43478566      -0.75304235       0.94655238
H       -2.24509363      -0.30028004      -0.12275286
H       -1.98446521      -0.44553529       0.81561540
10
Frame=10 idx=003746 GeodesicLength=0.5744355731935197 rxn_smarts="[C:1]1([H:5])([H:6])[C:2]([H:7])([H:8])[O:3][C:4]1([H:9])[H:10]>>[C:1]1([H:5])([H:6])[C:2]([H:7])([H:8])[O+:3]=[C-:4]1.[H:9][H:10]"
C        0.18081409       0.80998561      -0.01609194
C        1.12646895      -0.39304637      -0.03723385
O        0.04268471      -1.22080249      -0.51286013
C       -0.88108745      -0.22077217      -0.39620337
H        0.35365716       1.54699525      -0.79992573
H        0.04989244       1.31678876       0.93743495
H        1.95293373      -0.37286222      -0.75002698
H        1.47965478      -0.73938983       0.93739902
H       -2.27290110      -0.28738225      -0.15622017
H       -2.03211731      -0.43951428       0.79372821
10
Frame=11 idx=003746 GeodesicLength=0.6311797915656695 rxn_smarts="[C:1]1([H:5])([H:6])[C:2]([H:7])([H:8])[O:3][C:4]1([H:9])[H:10]>>[C:1]1([H:5])([H:6])[C:2]([H:7])([H:8])[O+:3]=[C-:4]1.[H:9][H:10]"
C        0.18677823       0.80559249      -0.00685756
C        1.13984739      -0.39147556      -0.03991819
O        0.04973913      -1.23220256      -0.47679050
C       -0.87676311      -0.23322424      -0.35871152
H        0.34126531       1.54465686      -0.79245310
H        0.06758529       1.31071857       0.94934864
H        1.94477151      -0.37172615      -0.77697775
H        1.52627331      -0.72484972       0.92640916
H       -2.29835804      -0.27468641      -0.19308258
H       -2.08113902      -0.43280327       0.76903341
10
Frame=12 idx=003746 GeodesicLength=0.687448346303604 rxn_smarts="[C:1]1([H:5])([H:6])[C:2]([H:7])([H:8])[O:3][C:4]1([H:9])[H:10]>>[C:1]1([H:5])([H:6])[C:2]([H:7])([H:8])[O+:3]=[C-:4]1.[H:9][H:10]"
C        0.19266397       0.80113321       0.00353858
C        1.15287263      -0.38984468      -0.04294852
O        0.05687519      -1.24346840      -0.43797944
C       -0.87260373      -0.24599547      -0.31651386
H        0.32722834       1.54154054      -0.78430360
H        0.08702231       1.30528028       0.96221036
H        1.93412130      -0.37141836      -0.80528877
H        1.57401201      -0.70934228       0.91325167
H       -2.32049938      -0.26221975      -0.23333542
H       -2.13169263      -0.42566508       0.74136900
10
Frame=13 idx=003746 GeodesicLength=0.7437149570447086 rxn_smarts="[C:1]1([H:5])([H:6])[C:2]([H:7])([H:8])[O:3][C:4]1([H:9])[H:10]>>[C:1]1([H:5])([H:6])[C:2]([H:7])([H:8])[O+:3]=[C-:4]1.[H:9][H:10]"
C        0.19838093       0.79695267       0.01526656
C        1.16520524      -0.38833156      -0.04626039
O        0.06382985      -1.25471699      -0.39624237
C       -0.86871595      -0.25884713      -0.26876912
H        0.31104520       1.53820387      -0.77551573
H        0.10897725       1.30099046       0.97620515
H        1.91994788      -0.37210454      -0.83505610
H        1.62284711      -0.69334504       0.89792992
H       -2.33839060      -0.25091276      -0.27778847
H       -2.18312691      -0.41788897       0.71023054
10
Frame=14 idx=003746 GeodesicLength=0.7992759086502557 rxn_smarts="[C:1]1([H:5])([H:6])[C:2]([H:7])([H:8])[O:3][C:4]1([H:9])[H:10]>>[C:1]1([H:5])([H:6])[C:2]([H:7])([H:8])[O+:3]=[C-:4]1.[H:9][H:10]"
C        0.20384139       0.79275853       0.02840982
C        1.17662345      -0.38676881      -0.04996971
O        0.07047971      -1.26495835      -0.35146082
C       -0.86522577      -0.27132181      -0.21449147
H        0.29273288       1.53363671      -0.76559032
H        0.13328450       1.29774659       0.99069397
H        1.90227681      -0.37392441      -0.86584880
H        1.67217210      -0.67666313       0.87939217
H       -2.35089548      -0.24064141      -0.32591729
H       -2.23528958      -0.40986393       0.67478244
10
Frame=15 idx=003746 GeodesicLength=0.8545665810063335 rxn_smarts="[C:1]1([H:5])([H:6])[C:2]([H:7])([H:8])[O:3][C:4]1([H:9])[H:10]>>[C:1]1([H:5])([H:6])[C:2]([H:7])([H:8])[O+:3]=[C-:4]1.[H:9][H:10]"
C        0.20895223       0.78881999       0.04336685
C        1.18657783      -0.38522487      -0.05408391
O        0.07613927      -1.27435241      -0.30285224
C       -0.86229742      -0.28317859      -0.15252232
H        0.27163123       1.52820740      -0.75418043
H        0.16116367       1.29604808       1.00602266
H        1.87934006      -0.37712402      -0.89801451
H        1.72223423      -0.65935486       0.85729916
H       -2.35631659      -0.23233432      -0.37880062
H       -2.28742450      -0.40150639       0.63376534
10
Frame=16 idx=003746 GeodesicLength=0.9092388103146957 rxn_smarts="[C:1]1([H:5])([H:6])[C:2]([H:7])([H:8])[O:3][C:4]1([H:9])[H:10]>>[C:1]1([H:5])([H:6])[C:2]([H:7])([H:8])[O+:3]=[C-:4]1.[H:9][H:10]"
C        0.21336378       0.78542646       0.06007554
C        1.19418832      -0.38388839      -0.05867439
O        0.08040439      -1.28257883      -0.25065803
C       -0.85992948      -0.29363282      -0.08289431
H        0.24794654       1.52233887      -0.74127355
H        0.19196930       1.29623208       1.02201502
H        1.85050129      -0.38209026      -0.93134586
H        1.77136410      -0.64198218       0.83140947
H       -2.35234252      -0.22646878      -0.43577563
H       -2.33746572      -0.39335616       0.58712175
