11
Frame=0 idx=004888 GeodesicLength=0.0 rxn_smarts="[O:1]([C:2]1([H:7])[C:3]([H:8])([H:9])[O:4][C:5]1([H:10])[H:11])[H:6]>>[O:1]([C@@:2]([C:3][H:8])([C:5]([O:4][H:9])([H:10])[H:11])[H:7])[H:6]"
O        1.51802702      -0.93041018       0.51777137
C        0.25046025      -0.32823354       0.61839642
C        0.26815672       1.15937257       0.34390097
O       -0.98466043       0.80515188      -0.89403443
C       -0.72395229      -0.58114514      -0.53605221
H        2.05225750      -0.35906294      -0.04288437
H       -0.15367995      -0.63739984       1.58425101
H       -0.26074534       1.79698753       1.05013412
H       -0.00361773       1.23697652      -1.02085246
H       -1.67643869      -1.02490701      -0.25316405
H       -0.28580701      -1.13732989      -1.36746638
11
Frame=1 idx=004888 GeodesicLength=0.05187569542546084 rxn_smarts="[O:1]([C:2]1([H:7])[C:3]([H:8])([H:9])[O:4][C:5]1([H:10])[H:11])[H:6]>>[O:1]([C@@:2]([C:3][H:8])([C:5]([O:4][H:9])([H:10])[H:11])[H:7])[H:6]"
O        1.51909178      -0.92905289       0.51346795
C        0.25084640      -0.32966658       0.61901539
C        0.25961492       1.15855298       0.34435831
O       -0.97647209       0.80575405      -0.89073454
C       -0.72543366      -0.58218503      -0.53315354
H        2.05164213      -0.35647461      -0.04738894
H       -0.15049272      -0.63887793       1.58602257
H       -0.27355034       1.79221199       1.05123936
H        0.01490778       1.24139763      -1.02880842
H       -1.67984604      -1.02123562      -0.24908648
H       -0.29030815      -1.14042398      -1.36493167
11
Frame=2 idx=004888 GeodesicLength=0.10375436468442853 rxn_smarts="[O:1]([C:2]1([H:7])[C:3]([H:8])([H:9])[O:4][C:5]1([H:10])[H:11])[H:6]>>[O:1]([C@@:2]([C:3][H:8])([C:5]([O:4][H:9])([H:10])[H:11])[H:7])[H:6]"
O        1.52009868      -0.92772908       0.50919866
C        0.25122987      -0.33105436       0.61960788
C        0.25115213       1.15771385       0.34468167
O       -0.96844179       0.80622213      -0.88750207
C       -0.72691266      -0.58325021      -0.53026784
H        2.05101025      -0.35401457      -0.05190825
H       -0.14732745      -0.64020935       1.58778267
H       -0.28626999       1.78742286       1.05216707
H        0.03339900       1.24604354      -1.03631135
H       -1.68317785      -1.01768655      -0.24502016
H       -0.29476020      -1.14345826      -1.36242831
11
Frame=3 idx=004888 GeodesicLength=0.15563128630509493 rxn_smarts="[O:1]([C:2]1([H:7])[C:3]([H:8])([H:9])[O:4][C:5]1([H:10])[H:11])[H:6]>>[O:1]([C@@:2]([C:3][H:8])([C:5]([O:4][H:9])([H:10])[H:11])[H:7])[H:6]"
O        1.52104446      -0.92644151       0.50497054
C        0.25160733      -0.33239758       0.62017477
C        0.24276972       1.15685552       0.34486687
O       -0.96059104       0.80655887      -0.88431773
C       -0.72838860      -0.58434466      -0.52739622
H        2.05035931      -0.35168827      -0.05643851
H       -0.14418962      -0.64139114       1.58953232
H       -0.29888228       1.78263198       1.05291669
H        0.05185618       1.25092189      -1.04337583
H       -1.68642825      -1.01428112      -0.24096995
H       -0.29915720      -1.14642398      -1.35996294
11
Frame=4 idx=004888 GeodesicLength=0.2075114015558377 rxn_smarts="[O:1]([C:2]1([H:7])[C:3]([H:8])([H:9])[O:4][C:5]1([H:10])[H:11])[H:6]>>[O:1]([C@@:2]([C:3][H:8])([C:5]([O:4][H:9])([H:10])[H:11])[H:7])[H:6]"
O        1.52193517      -0.92518744       0.50077226
C        0.25198112      -0.33369789       0.62071517
C        0.23445987       1.15597898       0.34492356
O       -0.95291019       0.80676663      -0.88119003
C       -0.72986733      -0.58546862      -0.52453467
H        2.04969296      -0.34948484      -0.06098693
H       -0.14106919      -0.64242961       1.59127360
H       -0.31141711       1.77783015       1.05349230
H        0.07031868       1.25603356      -1.05001212
H       -1.68961039      -1.01100549      -0.23692408
H       -0.30351359      -1.14933544      -1.35752906
11
Frame=5 idx=004888 GeodesicLength=0.2593886863200968 rxn_smarts="[O:1]([C:2]1([H:7])[C:3]([H:8])([H:9])[O:4][C:5]1([H:10])[H:11])[H:6]>>[O:1]([C@@:2]([C:3][H:8])([C:5]([O:4][H:9])([H:10])[H:11])[H:7])[H:6]"
O        1.52277666      -0.92396146       0.49658994
C        0.25235292      -0.33495626       0.62123022
C        0.22621486       1.15508990       0.34486408
O       -0.94538223       0.80684620      -0.87813574
C       -0.73135421      -0.58662453      -0.52167991
H        2.04901228      -0.34739092      -0.06557069
H       -0.13795903      -0.64333532       1.59301068
H       -0.32390928       1.77301023       1.05390221
H        0.08883145       1.26137846      -1.05622469
H       -1.69273958      -1.00784262      -0.23286748
H       -0.30784384      -1.15221368      -1.35511861
11
Frame=6 idx=004888 GeodesicLength=0.3113031713159676 rxn_smarts="[O:1]([C:2]1([H:7])[C:3]([H:8])([H:9])[O:4][C:5]1([H:10])[H:11])[H:6]>>[O:1]([C@@:2]([C:3][H:8])([C:5]([O:4][H:9])([H:10])[H:11])[H:7])[H:6]"
O        1.52357427      -0.92275503       0.49241357
C        0.25272733      -0.33617573       0.62171454
C        0.21801567       1.15417787       0.34469240
O       -0.93799010       0.80680244      -0.87515750
C       -0.73285107      -0.58780578      -0.51882100
H        2.04830536      -0.34539724      -0.07019924
H       -0.13483852      -0.64411766       1.59473125
H       -0.33640538       1.76814176       1.05413108
H        0.10744598       1.26695909      -1.06201466
H       -1.69581958      -1.00475872      -0.22878121
H       -0.31216396      -1.15507099      -1.35270922
11
Frame=7 idx=004888 GeodesicLength=0.36320628875428107 rxn_smarts="[O:1]([C:2]1([H:7])[C:3]([H:8])([H:9])[O:4][C:5]1([H:10])[H:11])[H:6]>>[O:1]([C@@:2]([C:3][H:8])([C:5]([O:4][H:9])([H:10])[H:11])[H:7])[H:6]"
O        1.52432088      -0.92158220       0.48823868
C        0.25310046      -0.33735534       0.62216862
C        0.20987173       1.15325133       0.34440349
O       -0.93075676       0.80663381      -0.87224837
C       -0.73435993      -0.58902031      -0.51596283
H        2.04758224      -0.34350621      -0.07485934
H       -0.13171655      -0.64476968       1.59644306
H       -0.34887469       1.76325260       1.05418468
H        0.12614821       1.27278306      -1.06738202
H       -1.69884927      -1.00178581      -0.22467236
H       -0.31646633      -1.15790125      -1.35031361
11
Frame=8 idx=004888 GeodesicLength=0.41511377452055964 rxn_smarts="[O:1]([C:2]1([H:7])[C:3]([H:8])([H:9])[O:4][C:5]1([H:10])[H:11])[H:6]>>[O:1]([C@@:2]([C:3][H:8])([C:5]([O:4][H:9])([H:10])[H:11])[H:7])[H:6]"
O        1.52502368      -0.92043385       0.48405718
C        0.25347372      -0.33849592       0.62259298
C        0.20177274       1.15231073       0.34400501
O       -0.92367010       0.80633879      -0.86941829
C       -0.73588732      -0.59026951      -0.51310210
H        2.04684256      -0.34170569      -0.07956713
H       -0.12858314      -0.64529911       1.59814970
H       -0.36134545       1.75833312       1.05406184
H        0.14498344       1.27885089      -1.07232245
H       -1.70184217      -0.99890883      -0.22053221
H       -0.32076798      -1.16072062      -1.34792452
11
Frame=9 idx=004888 GeodesicLength=0.46705674920112195 rxn_smarts="[O:1]([C:2]1([H:7])[C:3]([H:8])([H:9])[O:4][C:5]1([H:10])[H:11])[H:6]>>[O:1]([C@@:2]([C:3][H:8])([C:5]([O:4][H:9])([H:10])[H:11])[H:7])[H:6]"
O        1.52568622      -0.91930339       0.47986625
C        0.25384870      -0.33959788       0.62298525
C        0.19370939       1.15135355       0.34349796
O       -0.91672196       0.80591766      -0.86667146
C       -0.73743435      -0.59155510      -0.51023346
H        2.04607831      -0.33999801      -0.08434095
H       -0.12543131      -0.64570691       1.59984609
H       -0.37384533       1.75337038       1.05375674
H        0.16398895       1.28518095      -1.07682773
H       -1.70480320      -0.99611605      -0.21634652
H       -0.32507541      -1.16354520      -1.34553218
11
Frame=10 idx=004888 GeodesicLength=0.51901270695535 rxn_smarts="[O:1]([C:2]1([H:7])[C:3]([H:8])([H:9])[O:4][C:5]1([H:10])[H:11])[H:6]>>[O:1]([C@@:2]([C:3][H:8])([C:5]([O:4][H:9])([H:10])[H:11])[H:7])[H:6]"
O        1.52631186      -0.91818614       0.47566015
C        0.25422618      -0.34066023       0.62334667
C        0.18567372       1.15038433       0.34288733
O       -0.90990351       0.80537001      -0.86401870
C       -0.73900266      -0.59287819      -0.50735461
H        2.04528451      -0.33838205      -0.08920058
H       -0.12225555      -0.64599543       1.60153682
H       -0.38639434       1.74836107       1.05326984
H        0.18319356       1.29177226      -1.08088725
H       -1.70773701      -0.99340117      -0.21211012
H       -0.32939677      -1.16638448      -1.34312954
11
Frame=11 idx=004888 GeodesicLength=0.5709614389940196 rxn_smarts="[O:1]([C:2]1([H:7])[C:3]([H:8])([H:9])[O:4][C:5]1([H:10])[H:11])[H:6]>>[O:1]([C@@:2]([C:3][H:8])([C:5]([O:4][H:9])([H:10])[H:11])[H:7])[H:6]"
O        1.52690779      -0.91706908       0.47142604
C        0.25461135      -0.34168380       0.62367446
C        0.17765241       1.14940149       0.34219652
O       -0.90317918       0.80470072      -0.86147175
C       -0.74059656      -0.59423263      -0.50445918
H        2.04445457      -0.33684035      -0.09415991
H       -0.11903885      -0.64617770       1.60321479
H       -0.39904188       1.74328208       1.05261083
H        0.20263869       1.29860679      -1.08452479
H       -1.71065599      -0.99072763      -0.20780795
H       -0.33375235      -1.16925990      -1.34069906
11
Frame=12 idx=004888 GeodesicLength=0.6229312031667947 rxn_smarts="[O:1]([C:2]1([H:7])[C:3]([H:8])([H:9])[O:4][C:5]1([H:10])[H:11])[H:6]>>[O:1]([C@@:2]([C:3][H:8])([C:5]([O:4][H:9])([H:10])[H:11])[H:7])[H:6]"
O        1.52746460      -0.91596694       0.46717451
C        0.25499677      -0.34266688       0.62396759
C        0.16965364       1.14840561       0.34138959
O       -0.89660363       0.80390091      -0.85901014
C       -0.74221524      -0.59563195      -0.50155275
H        2.04359335      -0.33539426      -0.09920961
H       -0.11579732      -0.64623094       1.60488616
H       -0.41172967       1.73816200       1.05175887
H        0.22230916       1.30572459      -1.08769441
H       -1.71354664      -0.98814751      -0.20345047
H       -0.33812501      -1.17215463      -1.33825934
11
Frame=13 idx=004888 GeodesicLength=0.6749230088849634 rxn_smarts="[O:1]([C:2]1([H:7])[C:3]([H:8])([H:9])[O:4][C:5]1([H:10])[H:11])[H:6]>>[O:1]([C@@:2]([C:3][H:8])([C:5]([O:4][H:9])([H:10])[H:11])[H:7])[H:6]"
O        1.52797802      -0.91488303       0.46291026
C        0.25537990      -0.34360860       0.62422440
C        0.16167926       1.14739453       0.34045704
O       -0.89019791       0.80297076      -0.85661884
C       -0.74385889      -0.59708007      -0.49863648
H        2.04270053      -0.33404958      -0.10434158
H       -0.11253558      -0.64614735       1.60654869
H       -0.42443302       1.73300989       1.05071118
H        0.24220089       1.31313609      -1.09039719
H       -1.71640414      -0.98568054      -0.19904047
H       -0.34250905      -1.17506210      -1.33581700
11
Frame=14 idx=004888 GeodesicLength=0.7269251459402979 rxn_smarts="[O:1]([C:2]1([H:7])[C:3]([H:8])([H:9])[O:4][C:5]1([H:10])[H:11])[H:6]>>[O:1]([C@@:2]([C:3][H:8])([C:5]([O:4][H:9])([H:10])[H:11])[H:7])[H:6]"
O        1.52844471      -0.91382026       0.45863633
C        0.25575837      -0.34450796       0.62444356
C        0.15373085       1.14636782       0.33939011
O       -0.88398092       0.80191028      -0.85428756
C       -0.74552807      -0.59858092      -0.49571188
H        2.04177666      -0.33281057      -0.10955049
H       -0.10925813      -0.64592028       1.60820158
H       -0.43712935       1.72783598       1.04946623
H        0.26231086       1.32084800      -1.09262943
H       -1.71922481      -0.98334465      -0.19458097
H       -0.34690018      -1.17797743      -1.33337747
11
Frame=15 idx=004888 GeodesicLength=0.778933591492161 rxn_smarts="[O:1]([C:2]1([H:7])[C:3]([H:8])([H:9])[O:4][C:5]1([H:10])[H:11])[H:6]>>[O:1]([C@@:2]([C:3][H:8])([C:5]([O:4][H:9])([H:10])[H:11])[H:7])[H:6]"
O        1.52886139      -0.91278149       0.45435546
C        0.25612957      -0.34536399       0.62462327
C        0.14580953       1.14532485       0.33817912
O       -0.87797246       0.80071896      -0.85200582
C       -0.74722348      -0.60013868      -0.49278026
H        2.04082226      -0.33168120      -0.11483091
H       -0.10596949      -0.64554313       1.60984334
H       -0.44979600       1.72265068       1.04802242
H        0.28263821       1.32886838      -1.09438636
H       -1.72200505      -0.98115767      -0.19007429
H       -0.35129448      -1.18089671      -1.33094597
11
Frame=16 idx=004888 GeodesicLength=0.8309443716462733 rxn_smarts="[O:1]([C:2]1([H:7])[C:3]([H:8])([H:9])[O:4][C:5]1([H:10])[H:11])[H:6]>>[O:1]([C@@:2]([C:3][H:8])([C:5]([O:4][H:9])([H:10])[H:11])[H:7])[H:6]"
O        1.52922491      -0.91176930       0.45006996
C        0.25649085      -0.34617572       0.62476156
C        0.13791631       1.14426508       0.33681393
O       -0.87219266       0.79939615      -0.84976436
C       -0.74894597      -0.60175774      -0.48984292
H        2.03983796      -0.33066485      -0.12017765
H       -0.10267414      -0.64500948       1.61147226
H       -0.46241020       1.71746474       1.04637860
H        0.30318307       1.33720525      -1.09566160
H       -1.72474170      -0.97913721      -0.18552239
H       -0.35568842      -1.18381693      -1.32852739
