12
Frame=0 idx=005873 GeodesicLength=0.0 rxn_smarts="[C:1]([C:2]([C:3](=[O:4])[H:11])([C:5](=[O:6])[H:12])[H:10])([H:7])([H:8])[H:9]>>[C:1](/[C:2](=[C:3](/[O:4][H:10])[H:11])[C:5](=[O:6])[H:12])([H:7])([H:8])[H:9]"
C       -1.42568990      -0.29634537      -0.29890792
C        0.03513669       0.00058757      -0.09755093
C        0.57508941       1.31629797      -0.11148061
O        1.71316826       1.32947158      -0.65817919
C        0.81759317      -0.94775334       0.72784205
O        0.42568636      -2.04447985       1.03914663
H       -1.60587683      -1.34772298      -0.07826562
H       -2.04952901       0.29720426       0.37511066
H       -1.74511035      -0.09228179      -1.32131340
H        1.29603288       0.13137904      -0.89702071
H        0.14612272       2.24106588       0.27941272
H        1.81737664      -0.58742293       1.04120636
12
Frame=1 idx=005873 GeodesicLength=0.04266022163638618 rxn_smarts="[C:1]([C:2]([C:3](=[O:4])[H:11])([C:5](=[O:6])[H:12])[H:10])([H:7])([H:8])[H:9]>>[C:1](/[C:2](=[C:3](/[O:4][H:10])[H:11])[C:5](=[O:6])[H:12])([H:7])([H:8])[H:9]"
C       -1.42102420      -0.29398649      -0.29730850
C        0.04175057      -0.00397854      -0.09903244
C        0.57754585       1.31444275      -0.10624658
O        1.71373646       1.33386994      -0.65863606
C        0.81488945      -0.94854941       0.74037744
O        0.41344078      -2.03756261       1.06542507
H       -1.60022486      -1.35463453      -0.12567785
H       -2.03821441       0.26605808       0.41043482
H       -1.75140136      -0.04252241      -1.30560963
H        1.30799889       0.12365094      -0.90013602
H        0.11795909       2.24285941       0.23796550
H        1.82354374      -0.59964713       1.03844424
12
Frame=2 idx=005873 GeodesicLength=0.08533501187571495 rxn_smarts="[C:1]([C:2]([C:3](=[O:4])[H:11])([C:5](=[O:6])[H:12])[H:10])([H:7])([H:8])[H:9]>>[C:1](/[C:2](=[C:3](/[O:4][H:10])[H:11])[C:5](=[O:6])[H:12])([H:7])([H:8])[H:9]"
C       -1.41634640      -0.29158715      -0.29557998
C        0.04824425      -0.00806256      -0.10006513
C        0.57973264       1.31319141      -0.10015270
O        1.71391088       1.33874827      -0.65846864
C        0.81209061      -0.94920078       0.75266186
O        0.40132358      -2.03077752       1.08982812
H       -1.59483858      -1.35888743      -0.17071065
H       -2.02694495       0.23512929       0.44260440
H       -1.75679168       0.00437185      -1.28834198
H        1.31956002       0.11658912      -0.90319910
H        0.09057665       2.24295730       0.19619102
H        1.82948298      -0.61247180       1.03523278
12
Frame=3 idx=005873 GeodesicLength=0.12800465136487627 rxn_smarts="[C:1]([C:2]([C:3](=[O:4])[H:11])([C:5](=[O:6])[H:12])[H:10])([H:7])([H:8])[H:9]>>[C:1](/[C:2](=[C:3](/[O:4][H:10])[H:11])[C:5](=[O:6])[H:12])([H:7])([H:8])[H:9]"
C       -1.41165306      -0.28926259      -0.29392104
C        0.05459410      -0.01175392      -0.10097725
C        0.58142507       1.31247619      -0.09397648
O        1.71357646       1.34407028      -0.65827641
C        0.80918085      -0.94950660       0.76469611
O        0.38917166      -2.02357833       1.11339864
H       -1.58960243      -1.36093166      -0.21359925
H       -2.01584920       0.20447541       0.47162327
H       -1.76139705       0.04847516      -1.26998595
H        1.33076363       0.11009493      -0.90654961
H        0.06472259       2.24096367       0.15610395
H        1.83506738      -0.62552253       1.03146402
12
Frame=4 idx=005873 GeodesicLength=0.17066602970722183 rxn_smarts="[C:1]([C:2]([C:3](=[O:4])[H:11])([C:5](=[O:6])[H:12])[H:10])([H:7])([H:8])[H:9]>>[C:1](/[C:2](=[C:3](/[O:4][H:10])[H:11])[C:5](=[O:6])[H:12])([H:7])([H:8])[H:9]"
C       -1.40706009      -0.28693833      -0.29223958
C        0.06079758      -0.01509183      -0.10171691
C        0.58267688       1.31223339      -0.08776348
O        1.71291178       1.34961515      -0.65784344
C        0.80619483      -0.94942159       0.77667726
O        0.37748691      -2.01646742       1.13533337
H       -1.58470499      -1.36100070      -0.25456742
H       -2.00491177       0.17413881       0.49803742
H       -1.76556553       0.09014172      -1.25056004
H        1.34169441       0.10395043      -0.90996334
H        0.04027890       2.23732190       0.11680294
H        1.84020110      -0.63848153       1.02780323
12
Frame=5 idx=005873 GeodesicLength=0.2133919529126712 rxn_smarts="[C:1]([C:2]([C:3](=[O:4])[H:11])([C:5](=[O:6])[H:12])[H:10])([H:7])([H:8])[H:9]>>[C:1](/[C:2](=[C:3](/[O:4][H:10])[H:11])[C:5](=[O:6])[H:12])([H:7])([H:8])[H:9]"
C       -1.40251863      -0.28471475      -0.29067425
C        0.06685829      -0.01814735      -0.10243118
C        0.58344571       1.31246032      -0.08189535
O        1.71182359       1.35543462      -0.65763657
C        0.80309574      -0.94888639       0.78860090
O        0.36605193      -2.00916293       1.15637270
H       -1.58012413      -1.35946448      -0.29358590
H       -1.99422592       0.14429294       0.52178359
H       -1.76914106       0.12926184      -1.23052234
H        1.35235964       0.09807173      -0.91367618
H        0.01750428       2.23215561       0.07970664
H        1.84487056      -0.65130117       1.02395793
12
Frame=6 idx=005873 GeodesicLength=0.256214561943876 rxn_smarts="[C:1]([C:2]([C:3](=[O:4])[H:11])([C:5](=[O:6])[H:12])[H:10])([H:7])([H:8])[H:9]>>[C:1](/[C:2](=[C:3](/[O:4][H:10])[H:11])[C:5](=[O:6])[H:12])([H:7])([H:8])[H:9]"
C       -1.39803788      -0.28256563      -0.28920935
C        0.07279837      -0.02096565      -0.10312138
C        0.58376716       1.31306945      -0.07637893
O        1.71036693       1.36140965      -0.65764840
C        0.79993160      -0.94791526       0.80050234
O        0.35490582      -2.00166297       1.17661145
H       -1.57581185      -1.35650286      -0.33106840
H       -1.98375532       0.11480079       0.54325761
H       -1.77229862       0.16622772      -1.20987737
H        1.36281476       0.09235204      -0.91765481
H       -0.00378128       2.22570292       0.04450231
H        1.84910029      -0.66395020       1.02008493
12
Frame=7 idx=005873 GeodesicLength=0.2991380150720843 rxn_smarts="[C:1]([C:2]([C:3](=[O:4])[H:11])([C:5](=[O:6])[H:12])[H:10])([H:7])([H:8])[H:9]>>[C:1](/[C:2](=[C:3](/[O:4][H:10])[H:11])[C:5](=[O:6])[H:12])([H:7])([H:8])[H:9]"
C       -1.39359387      -0.28049902      -0.28784726
C        0.07863801      -0.02358291      -0.10377579
C        0.58368788       1.31399620      -0.07122439
O        1.70856218       1.36748799      -0.65792695
C        0.79671223      -0.94652450       0.81240195
O        0.34398697      -1.99390610       1.19628385
H       -1.57168349      -1.35228757      -0.36730554
H       -1.97348065       0.08556210       0.56269426
H       -1.77510093       0.20130201      -1.18865462
H        1.37307886       0.08672846      -0.92189717
H       -0.02371799       2.21819783       0.01110970
H        1.85291081      -0.67647447       1.01614196
12
Frame=8 idx=005873 GeodesicLength=0.3421832867309169 rxn_smarts="[C:1]([C:2]([C:3](=[O:4])[H:11])([C:5](=[O:6])[H:12])[H:10])([H:7])([H:8])[H:9]>>[C:1](/[C:2](=[C:3](/[O:4][H:10])[H:11])[C:5](=[O:6])[H:12])([H:7])([H:8])[H:9]"
C       -1.38916684      -0.27851106      -0.28658200
C        0.08439311      -0.02601293      -0.10435939
C        0.58326464       1.31521944      -0.06640619
O        1.70642672       1.37363955      -0.65848989
C        0.79344956      -0.94473703       0.82432685
O        0.33326345      -1.98588083       1.21553146
H       -1.56768455      -1.34693483      -0.40249014
H       -1.96340018       0.05648553       0.58027810
H       -1.77756584       0.23469175      -1.16687870
H        1.38314911       0.08115664      -0.92638817
H       -0.04245586       2.20983665      -0.02063855
H        1.85632668      -0.68895287       1.01209659
12
Frame=9 idx=005873 GeodesicLength=0.3853638836163624 rxn_smarts="[C:1]([C:2]([C:3](=[O:4])[H:11])([C:5](=[O:6])[H:12])[H:10])([H:7])([H:8])[H:9]>>[C:1](/[C:2](=[C:3](/[O:4][H:10])[H:11])[C:5](=[O:6])[H:12])([H:7])([H:8])[H:9]"
C       -1.38475253      -0.27659948      -0.28539849
C        0.09007973      -0.02827757      -0.10485978
C        0.58252890       1.31668835      -0.06189892
O        1.70400126       1.37981405      -0.65932588
C        0.79016701      -0.94257418       0.83627866
O        0.32272306      -1.97756832       1.23443913
H       -1.56376932      -1.34051548      -0.43685103
H       -1.95349572       0.02747751       0.59619620
H       -1.77978090       0.26659602      -1.14450625
H        1.39305902       0.07559693      -0.93111501
H       -0.06011730       2.20075740      -0.05095143
H        1.85935677      -0.70139523       1.00799281
12
Frame=10 idx=005873 GeodesicLength=0.4287567468014971 rxn_smarts="[C:1]([C:2]([C:3](=[O:4])[H:11])([C:5](=[O:6])[H:12])[H:10])([H:7])([H:8])[H:9]>>[C:1](/[C:2](=[C:3](/[O:4][H:10])[H:11])[C:5](=[O:6])[H:12])([H:7])([H:8])[H:9]"
C       -1.38033441      -0.27477083      -0.28429971
C        0.09571259      -0.03038460      -0.10526010
C        0.58151869       1.31840879      -0.05768836
O        1.70130570       1.38601260      -0.66046005
C        0.78687737      -0.94006520       0.84827659
O        0.31231078      -1.96893631       1.25318703
H       -1.55987840      -1.33310203      -0.47055551
H       -1.94376597      -0.00153677       0.61056228
H       -1.78177336       0.29715219      -1.12153239
H        1.40281851       0.07002253      -0.93609017
H       -0.07681887       2.19109361      -0.07991779
H        1.86202738      -0.71389397       1.00377817
12
Frame=11 idx=005873 GeodesicLength=0.4723415872832983 rxn_smarts="[C:1]([C:2]([C:3](=[O:4])[H:11])([C:5](=[O:6])[H:12])[H:10])([H:7])([H:8])[H:9]>>[C:1](/[C:2](=[C:3](/[O:4][H:10])[H:11])[C:5](=[O:6])[H:12])([H:7])([H:8])[H:9]"
C       -1.37592563      -0.27302919      -0.28326142
C        0.10129696      -0.03233688      -0.10552399
C        0.58027834       1.32034829      -0.05370515
O        1.69839268       1.39220644      -0.66182828
C        0.78359564      -0.93720553       0.86032638
O        0.30202565      -1.95997598       1.27176997
H       -1.55600352      -1.32471179      -0.50375491
H       -1.93420618      -0.03067843       0.62350708
H       -1.78362622       0.32647752      -1.09789143
H        1.41243072       0.06442919      -0.94128766
H       -0.09260785       2.18093280      -0.10783046
H        1.86434942      -0.72645645       0.99947988
12
Frame=12 idx=005873 GeodesicLength=0.5162553842745448 rxn_smarts="[C:1]([C:2]([C:3](=[O:4])[H:11])([C:5](=[O:6])[H:12])[H:10])([H:7])([H:8])[H:9]>>[C:1](/[C:2](=[C:3](/[O:4][H:10])[H:11])[C:5](=[O:6])[H:12])([H:7])([H:8])[H:9]"
C       -1.37150923      -0.27139611      -0.28229295
C        0.10686113      -0.03415027      -0.10568076
C        0.57880044       1.32254092      -0.04992815
O        1.69533230       1.39846339      -0.66332155
C        0.78032283      -0.93401009       0.87245470
O        0.29179681      -1.95063661       1.29037967
H       -1.55215882      -1.31542673      -0.53650085
H       -1.92480964      -0.05992605       0.63512689
H       -1.78534837       0.35459179      -1.07360771
H        1.42198097       0.05885875      -0.94671063
H       -0.10763127       2.17037713      -0.13481893
H        1.86636285      -0.73928611       0.99490027
12
Frame=13 idx=005873 GeodesicLength=0.5600335310397817 rxn_smarts="[C:1]([C:2]([C:3](=[O:4])[H:11])([C:5](=[O:6])[H:12])[H:10])([H:7])([H:8])[H:9]>>[C:1](/[C:2](=[C:3](/[O:4][H:10])[H:11])[C:5](=[O:6])[H:12])([H:7])([H:8])[H:9]"
C       -1.36698069      -0.26975151      -0.28138219
C        0.11238163      -0.03582526      -0.10567470
C        0.57705823       1.32483076      -0.04646722
O        1.69182172       1.40451513      -0.66523137
C        0.77710674      -0.93054462       0.88457031
O        0.28185972      -1.94100604       1.30877464
H       -1.54812682      -1.30506690      -0.56874266
H       -1.91546336      -0.08918109       0.64528320
H       -1.78681308       0.38164221      -1.04869656
H        1.43124671       0.05309269      -0.95228227
H       -0.12197709       2.15940062      -0.16062305
H        1.86788629      -0.75210597       0.99047188
12
Frame=14 idx=005873 GeodesicLength=0.6043853810957996 rxn_smarts="[C:1]([C:2]([C:3](=[O:4])[H:11])([C:5](=[O:6])[H:12])[H:10])([H:7])([H:8])[H:9]>>[C:1](/[C:2](=[C:3](/[O:4][H:10])[H:11])[C:5](=[O:6])[H:12])([H:7])([H:8])[H:9]"
C       -1.36250721      -0.26826285      -0.28051150
C        0.11788393      -0.03734884      -0.10550826
C        0.57527698       1.32742930      -0.04320555
O        1.68829400       1.41062840      -0.66758429
C        0.77392048      -0.92680361       0.89672309
O        0.27187326      -1.93103535       1.32730736
H       -1.54409414      -1.29387560      -0.60088340
H       -1.90640578      -0.11880965       0.65429005
H       -1.78827628       0.40758364      -1.02304372
H        1.44047452       0.04721888      -0.95823918
H       -0.13550176       2.14822122      -0.18541130
H        1.86906200      -0.76494552       0.98606670
12
Frame=15 idx=005873 GeodesicLength=0.6483161976274981 rxn_smarts="[C:1]([C:2]([C:3](=[O:4])[H:11])([C:5](=[O:6])[H:12])[H:10])([H:7])([H:8])[H:9]>>[C:1](/[C:2](=[C:3](/[O:4][H:10])[H:11])[C:5](=[O:6])[H:12])([H:7])([H:8])[H:9]"
C       -1.35789855      -0.26676910      -0.27974712
C        0.12337138      -0.03878584      -0.10526072
C        0.57316469       1.32997008      -0.04012039
O        1.68432386       1.41653757      -0.66993858
C        0.77084297      -0.92274254       0.90886117
O        0.26222019      -1.92059850       1.34569529
H       -1.54006888      -1.28159192      -0.63236987
H       -1.89721468      -0.14823694       0.66189205
H       -1.78949797       0.43234809      -0.99696547
H        1.44943024       0.04132352      -0.96425296
H       -0.14851793       2.13656562      -0.20931163
H        1.86984470      -0.77802004       0.98151824
12
Frame=16 idx=005873 GeodesicLength=0.6926142687675055 rxn_smarts="[C:1]([C:2]([C:3](=[O:4])[H:11])([C:5](=[O:6])[H:12])[H:10])([H:7])([H:8])[H:9]>>[C:1](/[C:2](=[C:3](/[O:4][H:10])[H:11])[C:5](=[O:6])[H:12])([H:7])([H:8])[H:9]"
C       -1.35330424      -0.26540187      -0.27903153
C        0.12885698      -0.04011443      -0.10489507
C        0.57098411       1.33275982      -0.03725795
O        1.68026378       1.42247658      -0.67276006
C        0.76780668      -0.91846339       0.92100258
O        0.25266513      -1.91000215       1.36400458
H       -1.53610210      -1.26854251      -0.66343976
H       -1.88825671      -0.17771115       0.66832296
H       -1.79060621       0.45593913      -0.97037106
H        1.45837018       0.03526411      -0.97060535
H       -0.16088720       2.12485984      -0.23211296
H        1.87020960      -0.79106400       0.97714363
