9
Frame=0 idx=002126 GeodesicLength=0.0 rxn_smarts="[C:1]([C:2]#[C:3][C:4]#[C:5][H:9])([H:6])([H:7])[H:8]>>[C:1](=[C:2]=[C:3]=[C:4]=[C:5]([H:8])[H:9])([H:6])[H:7]"
C       -1.33996973      -0.06040375       0.02119575
C       -0.58323787      -1.20578509       0.00781281
C        0.60319859      -1.58692459      -0.01158866
C        1.46686289      -0.56462376      -0.02424932
C        1.47369865       0.68958206      -0.02272228
H       -1.83970142       0.22454422       0.94332288
H       -1.86999695       0.22600773      -0.88341019
H        0.02949018       0.69161156      -0.00009666
H        2.05965567       1.58599163      -0.03026429
9
Frame=1 idx=002126 GeodesicLength=0.10516243756928603 rxn_smarts="[C:1]([C:2]#[C:3][C:4]#[C:5][H:9])([H:6])([H:7])[H:8]>>[C:1](=[C:2]=[C:3]=[C:4]=[C:5]([H:8])[H:9])([H:6])[H:7]"
C       -1.35659421      -0.06204083       0.02225479
C       -0.58821814      -1.20152268       0.01369507
C        0.60251348      -1.57081100      -0.00920286
C        1.47801416      -0.55806058      -0.03200439
C        1.49850189       0.69686374      -0.03746493
H       -1.87010062       0.20551977       0.94244552
H       -1.90883097       0.19335937      -0.87878376
H        0.02616850       0.72646121      -0.01328554
H        2.11854591       1.57023100      -0.00765388
9
Frame=2 idx=002126 GeodesicLength=0.20985835602206565 rxn_smarts="[C:1]([C:2]#[C:3][C:4]#[C:5][H:9])([H:6])([H:7])[H:8]>>[C:1](=[C:2]=[C:3]=[C:4]=[C:5]([H:8])[H:9])([H:6])[H:7]"
C       -1.37336547      -0.06342439       0.02323513
C       -0.59327104      -1.19667725       0.01950141
C        0.60155092      -1.55381129      -0.00729723
C        1.48939963      -0.55139726      -0.03924923
C        1.52424207       0.70413818      -0.05159458
H       -1.89986837       0.18614454       0.94147473
H       -1.94750812       0.15980394      -0.87296504
H        0.02307024       0.76248690      -0.02855434
H        2.17575015       1.55273662       0.01544916
9
Frame=3 idx=002126 GeodesicLength=0.3146294249663216 rxn_smarts="[C:1]([C:2]#[C:3][C:4]#[C:5][H:9])([H:6])([H:7])[H:8]>>[C:1](=[C:2]=[C:3]=[C:4]=[C:5]([H:8])[H:9])([H:6])[H:7]"
C       -1.39067799      -0.06472449       0.02403740
C       -0.59837592      -1.19135082       0.02591631
C        0.60059464      -1.53592692      -0.00356268
C        1.50085935      -0.54454615      -0.05139113
C        1.55089002       0.71146661      -0.06116516
H       -1.93092722       0.16591818       0.93968389
H       -1.98480928       0.12565792      -0.86715443
H        0.01993151       0.79979839      -0.04274541
H        2.23251490       1.53370727       0.03638121
9
Frame=4 idx=002126 GeodesicLength=0.4192931843124736 rxn_smarts="[C:1]([C:2]#[C:3][C:4]#[C:5][H:9])([H:6])([H:7])[H:8]>>[C:1](=[C:2]=[C:3]=[C:4]=[C:5]([H:8])[H:9])([H:6])[H:7]"
C       -1.40866780      -0.06609280       0.02450924
C       -0.60380351      -1.18571982       0.02949687
C        0.59929216      -1.51728207      -0.00273096
C        1.51260634      -0.53743233      -0.05570471
C        1.57829557       0.71870700      -0.06697688
H       -1.96264513       0.14246713       0.93772119
H       -2.02129269       0.09315754      -0.86075820
H        0.01669557       0.83840755      -0.05453468
H        2.28951949       1.51378780       0.04897811
9
Frame=5 idx=002126 GeodesicLength=0.5239353036862795 rxn_smarts="[C:1]([C:2]#[C:3][C:4]#[C:5][H:9])([H:6])([H:7])[H:8]>>[C:1](=[C:2]=[C:3]=[C:4]=[C:5]([H:8])[H:9])([H:6])[H:7]"
C       -1.42729880      -0.06758555       0.02496292
C       -0.60937964      -1.17966262       0.03406026
C        0.59781948      -1.49769059      -0.00041866
C        1.52439578      -0.53022759      -0.06382664
C        1.60663663       0.72592207      -0.07240494
H       -1.99451723       0.11894783       0.93532435
H       -2.05699612       0.05938599      -0.85405370
H        0.01343111       0.87839066      -0.06682846
H        2.34590878       1.49251980       0.06318488
9
Frame=6 idx=002126 GeodesicLength=0.6285516704462568 rxn_smarts="[C:1]([C:2]#[C:3][C:4]#[C:5][H:9])([H:6])([H:7])[H:8]>>[C:1](=[C:2]=[C:3]=[C:4]=[C:5]([H:8])[H:9])([H:6])[H:7]"
C       -1.44677826      -0.06935256       0.02520960
C       -0.61531617      -1.17336852       0.03701176
C        0.59596712      -1.47731271       0.00047165
C        1.53642095      -0.52287207      -0.06743546
C        1.63581728       0.73300356      -0.07594445
H       -2.02671687       0.09328546       0.93270114
H       -2.09196086       0.02631905      -0.84710057
H        0.01002468       0.91981186      -0.07747770
H        2.40254214       1.47048593       0.07256403
9
Frame=7 idx=002126 GeodesicLength=0.7331331776179022 rxn_smarts="[C:1]([C:2]#[C:3][C:4]#[C:5][H:9])([H:6])([H:7])[H:8]>>[C:1](=[C:2]=[C:3]=[C:4]=[C:5]([H:8])[H:9])([H:6])[H:7]"
C       -1.46722134      -0.07152055       0.02527160
C       -0.62164739      -1.16685217       0.03872817
C        0.59371278      -1.45604752       0.00071290
C        1.54860449      -0.51533679      -0.06791252
C        1.66585009       0.73996698      -0.07766029
H       -2.05945622       0.06553611       0.92964258
H       -2.12602454      -0.00622586      -0.84025906
H        0.00642166       0.96281456      -0.08593111
H        2.45976047       1.44766523       0.07740773
9
Frame=8 idx=002126 GeodesicLength=0.8377566037841404 rxn_smarts="[C:1]([C:2]#[C:3][C:4]#[C:5][H:9])([H:6])([H:7])[H:8]>>[C:1](=[C:2]=[C:3]=[C:4]=[C:5]([H:8])[H:9])([H:6])[H:7]"
C       -1.48871876      -0.07419556       0.02519144
C       -0.62839913      -1.16012186       0.03956552
C        0.59102763      -1.43381218       0.00080516
C        1.56087808      -0.50764801      -0.06627167
C        1.69680938       0.74683153      -0.07788574
H       -2.09273525       0.03587779       0.92609656
H       -2.15922008      -0.03853258      -0.83372792
H        0.00258385       1.00756080      -0.09221237
H        2.51777429       1.42404006       0.07843903
9
Frame=9 idx=002126 GeodesicLength=0.9421779924188396 rxn_smarts="[C:1]([C:2]#[C:3][C:4]#[C:5][H:9])([H:6])([H:7])[H:8]>>[C:1](=[C:2]=[C:3]=[C:4]=[C:5]([H:8])[H:9])([H:6])[H:7]"
C       -1.51089480      -0.07717964       0.02537477
C       -0.63501879      -1.15273968       0.04263764
C        0.58838115      -1.41019732       0.00179709
C        1.57332037      -0.49970038      -0.07043842
C        1.72908945       0.75337035      -0.08109238
H       -2.12450453       0.00804886       0.92313549
H       -2.19268277      -0.07379800      -0.82604017
H       -0.00128582       1.05401659      -0.10296557
H        2.57359574       1.39817923       0.08759155
9
Frame=10 idx=002126 GeodesicLength=1.0466231591383985 rxn_smarts="[C:1]([C:2]#[C:3][C:4]#[C:5][H:9])([H:6])([H:7])[H:8]>>[C:1](=[C:2]=[C:3]=[C:4]=[C:5]([H:8])[H:9])([H:6])[H:7]"
C       -1.53432215      -0.08087683       0.02534435
C       -0.64219617      -1.14518132       0.04424271
C        0.58513310      -1.38550844       0.00221000
C        1.58588721      -0.49166623      -0.07033383
C        1.76243069       0.75965362      -0.08249692
H       -2.15695846      -0.02225284       0.91969004
H       -2.22527777      -0.10843424      -0.81891902
H       -0.00543345       1.10247444      -0.11089629
H        2.63073700       1.37179184       0.09115896
9
Frame=11 idx=002126 GeodesicLength=1.1510261110343514 rxn_smarts="[C:1]([C:2]#[C:3][C:4]#[C:5][H:9])([H:6])([H:7])[H:8]>>[C:1](=[C:2]=[C:3]=[C:4]=[C:5]([H:8])[H:9])([H:6])[H:7]"
C       -1.55914998      -0.08539929       0.02498680
C       -0.64992005      -1.13737655       0.04407981
C        0.58133626      -1.35943561       0.00225540
C        1.59861090      -0.48321353      -0.06468226
C        1.79682685       0.76576475      -0.08109274
H       -2.19065504      -0.05579619       0.91522863
H       -2.25676314      -0.14213590      -0.81304793
H       -0.00997093       1.15332733      -0.11404616
H        2.68968512       1.34426498       0.08631843
9
Frame=12 idx=002126 GeodesicLength=1.2555429365280464 rxn_smarts="[C:1]([C:2]#[C:3][C:4]#[C:5][H:9])([H:6])([H:7])[H:8]>>[C:1](=[C:2]=[C:3]=[C:4]=[C:5]([H:8])[H:9])([H:6])[H:7]"
C       -1.58511424      -0.09057721       0.02476665
C       -0.65782148      -1.12902982       0.04471264
C        0.57726281      -1.33183932       0.00224938
C        1.61157680      -0.47471820      -0.06101887
C        1.83283148       0.77137504      -0.08153339
H       -2.22354211      -0.08915856       0.91131653
H       -2.28853508      -0.17780328      -0.80658493
H       -0.01466519       1.20649209      -0.11929990
H        2.74800699       1.31525926       0.08539190
9
Frame=13 idx=002126 GeodesicLength=1.359890743303508 rxn_smarts="[C:1]([C:2]#[C:3][C:4]#[C:5][H:9])([H:6])([H:7])[H:8]>>[C:1](=[C:2]=[C:3]=[C:4]=[C:5]([H:8])[H:9])([H:6])[H:7]"
C       -1.61252090      -0.09675062       0.02424485
C       -0.66621093      -1.12010651       0.04516185
C        0.57251951      -1.30222594       0.00303535
C        1.62437749      -0.46555916      -0.05508624
C        1.87024250       0.77667426      -0.08301880
H       -2.25745257      -0.12478209       0.90631898
H       -2.31928082      -0.21422249      -0.80124019
H       -0.01969729       1.26257550      -0.12044240
H        2.80802302       1.28439706       0.08102660
9
Frame=14 idx=002126 GeodesicLength=1.4641901733125133 rxn_smarts="[C:1]([C:2]#[C:3][C:4]#[C:5][H:9])([H:6])([H:7])[H:8]>>[C:1](=[C:2]=[C:3]=[C:4]=[C:5]([H:8])[H:9])([H:6])[H:7]"
C       -1.64180466      -0.10418729       0.02284817
C       -0.67519110      -1.11074078       0.04368414
C        0.56722959      -1.27026225       0.00521763
C        1.63714636      -0.45540048      -0.04243205
C        1.90870281       0.78239851      -0.07273225
H       -2.29422026      -0.16546069       0.89843848
H       -2.34803837      -0.24938558      -0.79942452
H       -0.02554862       1.32232357      -0.11271280
H        2.87172425       1.25071498       0.05711320
9
Frame=15 idx=002126 GeodesicLength=1.5688763177429417 rxn_smarts="[C:1]([C:2]#[C:3][C:4]#[C:5][H:9])([H:6])([H:7])[H:8]>>[C:1](=[C:2]=[C:3]=[C:4]=[C:5]([H:8])[H:9])([H:6])[H:7]"
C       -1.67273801      -0.11269984       0.02134584
C       -0.68473774      -1.10067613       0.04145145
C        0.56109364      -1.23606351       0.00621304
C        1.65016006      -0.44506365      -0.02511416
C        1.94900953       0.78741307      -0.06354440
H       -2.33088282      -0.20824929       0.89028279
H       -2.37705735      -0.28561282      -0.79800196
H       -0.03178125       1.38535249      -0.10344980
H        2.93693394       1.21559967       0.03081720
9
Frame=16 idx=002126 GeodesicLength=1.6730987816058254 rxn_smarts="[C:1]([C:2]#[C:3][C:4]#[C:5][H:9])([H:6])([H:7])[H:8]>>[C:1](=[C:2]=[C:3]=[C:4]=[C:5]([H:8])[H:9])([H:6])[H:7]"
C       -1.70473882      -0.12229250       0.02022354
C       -0.69385670      -1.08916342       0.04306005
C        0.55502941      -1.19832961       0.01021029
C        1.66288945      -0.43352288      -0.02465279
C        1.99180143       0.79234246      -0.05096714
H       -2.36626900      -0.24943251       0.88325636
H       -2.40593171      -0.32705614      -0.79521034
H       -0.03822070       1.45226929      -0.10041058
H        2.99929663       1.17518530       0.01449061
