12
Frame=0 idx=004346 GeodesicLength=0.0 rxn_smarts="[C:1]([C:2]([O:3][C:4]([H:10])([H:11])[H:12])([H:8])[H:9])([H:5])([H:6])[H:7]>>[C-:2](=[O+:3][C:4]([H:10])([H:11])[H:12])[H:9].[C:1]([H:5])([H:6])([H:7])[H:8]"
C       -1.64712886       0.10215846      -0.43581626
C       -0.03379955      -0.95302614       0.51971653
O        0.75367346       0.02958252       0.97334135
C        1.79258012       0.40357348       0.08469936
H       -1.57047685       0.42350454      -1.47536327
H       -2.55428752      -0.47186328      -0.26628617
H       -1.55543572       0.94393335       0.24163889
H       -0.61564115      -0.77331154      -0.53904423
H       -0.73991425      -1.22893683       1.30485344
H        2.28883070      -0.48327198      -0.31374453
H        1.38628891       0.99364866      -0.74324616
H        2.49531071       1.01400879       0.64925109
12
Frame=1 idx=004346 GeodesicLength=0.06140151509421373 rxn_smarts="[C:1]([C:2]([O:3][C:4]([H:10])([H:11])[H:12])([H:8])[H:9])([H:5])([H:6])[H:7]>>[C-:2](=[O+:3][C:4]([H:10])([H:11])[H:12])[H:9].[C:1]([H:5])([H:6])([H:7])[H:8]"
C       -1.65579154       0.10024848      -0.43585592
C       -0.03561565      -0.93801482       0.52395348
O        0.75291874       0.04730720       0.97067620
C        1.80047216       0.40072182       0.08368227
H       -1.57260655       0.44870098      -1.46622347
H       -2.56103311      -0.48395734      -0.29093553
H       -1.59515347       0.93535798       0.25401656
H       -0.61907911      -0.77568193      -0.55490151
H       -0.71584299      -1.23443993       1.32486529
H        2.29027878      -0.49566185      -0.30163148
H        1.40463190       0.98562985      -0.75288703
H        2.50682083       1.00978956       0.64524115
12
Frame=2 idx=004346 GeodesicLength=0.12269057866950316 rxn_smarts="[C:1]([C:2]([O:3][C:4]([H:10])([H:11])[H:12])([H:8])[H:9])([H:5])([H:6])[H:7]>>[C-:2](=[O+:3][C:4]([H:10])([H:11])[H:12])[H:9].[C:1]([H:5])([H:6])([H:7])[H:8]"
C       -1.66468392       0.09844661      -0.43593654
C       -0.03780510      -0.92245768       0.52826836
O        0.75209149       0.06547526       0.96769796
C        1.80837591       0.39771476       0.08278966
H       -1.57539406       0.47384206      -1.45638314
H       -2.56757729      -0.49550760      -0.31609189
H       -1.63536731       0.92585925       0.26593996
H       -0.62262561      -0.77762498      -0.57094397
H       -0.69008828      -1.23995958       1.34477501
H        2.29138911      -0.50821421      -0.28900873
H        1.42330514       0.97714331      -0.76251346
H        2.51837993       1.00528280       0.64140678
12
Frame=3 idx=004346 GeodesicLength=0.1838591194533015 rxn_smarts="[C:1]([C:2]([O:3][C:4]([H:10])([H:11])[H:12])([H:8])[H:9])([H:5])([H:6])[H:7]>>[C-:2](=[O+:3][C:4]([H:10])([H:11])[H:12])[H:9].[C:1]([H:5])([H:6])([H:7])[H:8]"
C       -1.67378376       0.09675824      -0.43605914
C       -0.04039070      -0.90635533       0.53274237
O        0.75120331       0.08407592       0.96442898
C        1.81624471       0.39454591       0.08202187
H       -1.57877891       0.49892159      -1.44584459
H       -2.57390546      -0.50646191      -0.34178419
H       -1.67602092       0.91543033       0.27737654
H       -0.62628412      -0.77916314      -0.58713020
H       -0.66255579      -1.24548393       1.36452019
H        2.29208894      -0.52091551      -0.27589886
H        1.44222168       0.96816654      -0.77209759
H        2.52996101       1.00048129       0.63772461
12
Frame=4 idx=004346 GeodesicLength=0.24489289003990522 rxn_smarts="[C:1]([C:2]([O:3][C:4]([H:10])([H:11])[H:12])([H:8])[H:9])([H:5])([H:6])[H:7]>>[C-:2](=[O+:3][C:4]([H:10])([H:11])[H:12])[H:9].[C:1]([H:5])([H:6])([H:7])[H:8]"
C       -1.68306221       0.09519036      -0.43622578
C       -0.04339448      -0.88971117       0.53746183
O        0.75026616       0.10308944       0.96089982
C        1.82402444       0.39121161       0.08138255
H       -1.58270143       0.52391006      -1.43461879
H       -2.58000148      -0.51674928      -0.36801588
H       -1.71703357       0.90408443       0.28827200
H       -0.63005740      -0.78032854      -0.60341250
H       -0.63315028      -1.25101549       1.38401439
H        2.29230346      -0.53374428      -0.26232737
H        1.46127780       0.95868314      -0.78160334
H        2.54152899       0.99537972       0.63417307
12
Frame=5 idx=004346 GeodesicLength=0.30577494347163775 rxn_smarts="[C:1]([C:2]([O:3][C:4]([H:10])([H:11])[H:12])([H:8])[H:9])([H:5])([H:6])[H:7]>>[C-:2](=[O+:3][C:4]([H:10])([H:11])[H:12])[H:9].[C:1]([H:5])([H:6])([H:7])[H:8]"
C       -1.69247891       0.09375116      -0.43643970
C       -0.04683884      -0.87253496       0.54252783
O        0.74929515       0.12248365       0.95715511
C        1.83165012       0.38771131       0.08087446
H       -1.58708181       0.54876674      -1.42272294
H       -2.58584321      -0.52628607      -0.39478303
H       -1.75830806       0.89185216       0.29855756
H       -0.63394624      -0.78117060      -0.61972960
H       -0.60178204      -1.25656391       1.40315745
H        2.29194959      -0.54667104      -0.24833524
H        1.48034234       0.94868718      -0.79098650
H        2.55304190       0.98997437       0.63072460
12
Frame=6 idx=004346 GeodesicLength=0.36648638516189097 rxn_smarts="[C:1]([C:2]([O:3][C:4]([H:10])([H:11])[H:12])([H:8])[H:9])([H:5])([H:6])[H:7]>>[C-:2](=[O+:3][C:4]([H:10])([H:11])[H:12])[H:9].[C:1]([H:5])([H:6])([H:7])[H:8]"
C       -1.70197240       0.09244955      -0.43670622
C       -0.05074884      -0.85485057       0.54806415
O        0.74831029       0.14220453       0.95326172
C        1.83903970       0.38405014       0.08049638
H       -1.59179815       0.57344076      -1.41018667
H       -2.59139965      -0.53497842      -0.42208008
H       -1.79972275       0.87879021       0.30815263
H       -0.63794786      -0.78177001      -0.63600131
H       -0.56837814      -1.26214108       1.42184526
H        2.29092877      -0.55965168      -0.23399734
H        1.49923797       0.93819587      -0.80018996
H        2.56445106       0.98426070       0.62734144
12
Frame=7 idx=004346 GeodesicLength=0.4270015580224603 rxn_smarts="[C:1]([C:2]([O:3][C:4]([H:10])([H:11])[H:12])([H:8])[H:9])([H:5])([H:6])[H:7]>>[C-:2](=[O+:3][C:4]([H:10])([H:11])[H:12])[H:9].[C:1]([H:5])([H:6])([H:7])[H:8]"
C       -1.71146909       0.09129681      -0.43703186
C       -0.05514723      -0.83668651       0.55421105
O        0.74733392       0.16218432       0.94930914
C        1.84609989       0.38023908       0.08024795
H       -1.59671290       0.59785037      -1.39705438
H       -2.59663738      -0.54271236      -0.44987467
H       -1.84112902       0.86498725       0.31694825
H       -0.64205691      -0.78222754      -0.65212815
H       -0.53287611      -1.26778124       1.43994421
H        2.28913780      -0.57263324      -0.21940758
H        1.51775777       0.92724714      -0.80914634
H        2.57569925       0.97823592       0.62398238
12
Frame=8 idx=004346 GeodesicLength=0.48729809351878384 rxn_smarts="[C:1]([C:2]([O:3][C:4]([H:10])([H:11])[H:12])([H:8])[H:9])([H:5])([H:6])[H:7]>>[C-:2](=[O+:3][C:4]([H:10])([H:11])[H:12])[H:9].[C:1]([H:5])([H:6])([H:7])[H:8]"
C       -1.72086940       0.09030459      -0.43742396
C       -0.06005946      -0.81809065       0.56113796
O        0.74639356       0.18232762       0.94541627
C        1.85271749       0.37629709       0.08012101
H       -1.60162666       0.62191016      -1.38338757
H       -2.60150865      -0.54937184      -0.47813827
H       -1.88235821       0.85056732       0.32482750
H       -0.64626316      -0.78268789      -0.66798477
H       -0.49524366      -1.27351977       1.45732417
H        2.28645759      -0.58554612      -0.20470568
H        1.53563719       0.91591300      -0.81777632
H        2.58672337       0.97189650       0.62058967
12
Frame=9 idx=004346 GeodesicLength=0.5473556003144616 rxn_smarts="[C:1]([C:2]([O:3][C:4]([H:10])([H:11])[H:12])([H:8])[H:9])([H:5])([H:6])[H:7]>>[C-:2](=[O+:3][C:4]([H:10])([H:11])[H:12])[H:9].[C:1]([H:5])([H:6])([H:7])[H:8]"
C       -1.73006239       0.08948967      -0.43789084
C       -0.06550883      -0.79911434       0.56903277
O        0.74551446       0.20252682       0.94173956
C        1.85876829       0.37225465       0.08011232
H       -1.60633431       0.64547534      -1.36928913
H       -2.60597291      -0.55481754      -0.50677595
H       -1.92319521       0.83572686       0.33162498
H       -0.65055605      -0.78332151      -0.68342331
H       -0.45545654      -1.27945397       1.47380249
H        2.28276986      -0.59831459      -0.19005065
H        1.55258485       0.90430229      -0.82599183
H        2.59744877       0.96524630       0.61710960
12
Frame=10 idx=004346 GeodesicLength=0.6071515717380436 rxn_smarts="[C:1]([C:2]([O:3][C:4]([H:10])([H:11])[H:12])([H:8])[H:9])([H:5])([H:6])[H:7]>>[C-:2](=[O+:3][C:4]([H:10])([H:11])[H:12])[H:9].[C:1]([H:5])([H:6])([H:7])[H:8]"
C       -1.73888828       0.08886042      -0.43844098
C       -0.07151809      -0.77984242       0.57813484
O        0.74473727       0.22262897       0.93847116
C        1.86409493       0.36815114       0.08019226
H       -1.61048826       0.66844081      -1.35485212
H       -2.60994750      -0.55892774      -0.53577776
H       -1.96343431       0.82065859       0.33720188
H       -0.65490840      -0.78437811      -0.69824550
H       -0.41357316      -1.28561187       1.48926189
H        2.27791625      -0.61083184      -0.17571006
H        1.56820434       0.89258834      -0.83368183
H        2.60780523       0.95826371       0.61344621
12
Frame=11 idx=004346 GeodesicLength=0.6666856858664292 rxn_smarts="[C:1]([C:2]([O:3][C:4]([H:10])([H:11])[H:12])([H:8])[H:9])([H:5])([H:6])[H:7]>>[C-:2](=[O+:3][C:4]([H:10])([H:11])[H:12])[H:9].[C:1]([H:5])([H:6])([H:7])[H:8]"
C       -1.74718897       0.08843022      -0.43908016
C       -0.07810415      -0.76035209       0.58869276
O        0.74409583       0.24248812       0.93583742
C        1.86854105       0.36403673       0.08033868
H       -1.61376443       0.69064704      -1.34021230
H       -2.61335711      -0.56157473      -0.56505604
H       -2.00283873       0.80562900       0.34137845
H       -0.65929570      -0.78612071      -0.71223722
H       -0.36966057      -1.29209660       1.50351573
H        2.27175467      -0.62300240      -0.16194318
H        1.58210582       0.88097148      -0.84074701
H        2.61771229       0.95094394       0.60951288
12
Frame=12 idx=004346 GeodesicLength=0.7259535037430288 rxn_smarts="[C:1]([C:2]([O:3][C:4]([H:10])([H:11])[H:12])([H:8])[H:9])([H:5])([H:6])[H:7]>>[C-:2](=[O+:3][C:4]([H:10])([H:11])[H:12])[H:9].[C:1]([H:5])([H:6])([H:7])[H:8]"
C       -1.75477517       0.08820693      -0.43980902
C       -0.08527889      -0.74073897       0.60098075
O        0.74362783       0.26192752       0.93409693
C        1.87192927       0.35997270       0.08051792
H       -1.61576153       0.71192410      -1.32551818
H       -2.61610182      -0.56264132      -0.59452938
H       -2.04115191       0.79094244       0.34396942
H       -0.66368820      -0.78886741      -0.72514437
H       -0.32384847      -1.29899510       1.51637665
H        2.26412932      -0.63470970      -0.14906927
H        1.59383556       0.86970633      -0.84707233
H        2.62708401       0.94327249       0.60520088
12
Frame=13 idx=004346 GeodesicLength=0.784890445434696 rxn_smarts="[C:1]([C:2]([O:3][C:4]([H:10])([H:11])[H:12])([H:8])[H:9])([H:5])([H:6])[H:7]>>[C-:2](=[O+:3][C:4]([H:10])([H:11])[H:12])[H:9].[C:1]([H:5])([H:6])([H:7])[H:8]"
C       -1.76144199       0.08818478      -0.44061113
C       -0.09305346      -0.72109210       0.61526678
O        0.74336889       0.28075954       0.93350426
C        1.87407800       0.35602619       0.08069058
H       -1.61603187       0.73208357      -1.31089284
H       -2.61806004      -0.56203144      -0.62410811
H       -2.07810939       0.77690511       0.34478558
H       -0.66806133      -0.79295119      -0.73667365
H       -0.27633463      -1.30635998       1.52760406
H        2.25488093      -0.64581690      -0.13741671
H        1.60293145       0.85906250      -0.85252619
H        2.63583344       0.93522991       0.60037737
12
Frame=14 idx=004346 GeodesicLength=0.8435832722815759 rxn_smarts="[C:1]([C:2]([O:3][C:4]([H:10])([H:11])[H:12])([H:8])[H:9])([H:5])([H:6])[H:7]>>[C-:2](=[O+:3][C:4]([H:10])([H:11])[H:12])[H:9].[C:1]([H:5])([H:6])([H:7])[H:8]"
C       -1.76696472       0.08836957      -0.44147825
C       -0.10141902      -0.70152615       0.63185460
O        0.74335405       0.29879636       0.93439254
C        1.87478916       0.35228619       0.08081605
H       -1.61411954       0.75089804      -1.29655108
H       -2.61910434      -0.55965674      -0.65364636
H       -2.11338598       0.76393857       0.34361980
H       -0.67239399      -0.79876052      -0.74652650
H       -0.22735040      -1.31434572       1.53695977
H        2.24385017      -0.65621216      -0.12735254
H        1.60889257       0.84938650      -0.85700835
H        2.64385202       0.92682605       0.59492032
12
Frame=15 idx=004346 GeodesicLength=0.9020214349925321 rxn_smarts="[C:1]([C:2]([O:3][C:4]([H:10])([H:11])[H:12])([H:8])[H:9])([H:5])([H:6])[H:7]>>[C-:2](=[O+:3][C:4]([H:10])([H:11])[H:12])[H:9].[C:1]([H:5])([H:6])([H:7])[H:8]"
C       -1.77111258       0.08874162      -0.44236937
C       -0.11036829      -0.68214013       0.65100666
O        0.74360633       0.31584774       0.93703831
C        1.87387284       0.34883831       0.08084514
H       -1.60952229       0.76815069      -1.28261738
H       -2.61907420      -0.55546748      -0.68302756
H       -2.14667974       0.75239955       0.34029455
H       -0.67667604      -0.80666012      -0.75437128
H       -0.17721499      -1.32300985       1.54414264
H        2.23088774      -0.66575762      -0.11920421
H        1.61125262       0.84098885      -0.86040142
H        2.65102861       0.91806844       0.58866392
12
Frame=16 idx=004346 GeodesicLength=0.9604144899801983 rxn_smarts="[C:1]([C:2]([O:3][C:4]([H:10])([H:11])[H:12])([H:8])[H:9])([H:5])([H:6])[H:7]>>[C-:2](=[O+:3][C:4]([H:10])([H:11])[H:12])[H:9].[C:1]([H:5])([H:6])([H:7])[H:8]"
C       -1.77364008       0.08929119      -0.44324739
C       -0.11986212      -0.66308442       0.67300467
O        0.74414238       0.33172728       0.94177453
C        1.87113170       0.34578699       0.08072017
H       -1.60174640       0.78363604      -1.26929223
H       -2.61778394      -0.54944454      -0.71210968
H       -2.17765169       0.74272780       0.33466537
H       -0.68089077      -0.81705663      -0.75991182
H       -0.12631995      -1.33248035       1.54891190
H        2.21586158      -0.67435599      -0.11331845
H        1.60953790       0.83423730      -0.86264007
H        2.65722141       0.90901534       0.58144299
