19
Frame=0 idx=009426 GeodesicLength=0.0 rxn_smarts="[C:1]([C:2]([O:3][C@@:4]1([H:13])[C:5]([H:14])([H:15])[C@:6]1([C:7]([H:17])([H:18])[H:19])[H:16])([H:11])[H:12])([H:8])([H:9])[H:10]>>[C:1]([C:2]([O+:3]=[C-:4][C:5]([C:6]([C:7]([H:17])([H:18])[H:19])([H:13])[H:16])([H:14])[H:15])([H:11])[H:12])([H:8])([H:9])[H:10]"
C        2.84962106       0.18624470       0.55675790
C        1.70528239       0.54112845      -0.36746050
O        0.46127044       0.62999374       0.32346460
C       -0.04995119      -0.57436331       0.70370869
C       -1.44542339      -0.37053246       1.24038618
C       -1.72063781      -0.74757539      -0.17666232
C       -2.08872565       0.30519574      -1.17963486
H        2.68192624      -0.79163734       1.00850634
H        2.94208052       0.92660686       1.35286154
H        3.78834160       0.15926031      -0.00031791
H        1.61336279      -0.19196674      -1.17641192
H        1.85173093       1.52415426      -0.81847950
H       -0.44743074      -1.20361856      -0.34599604
H       -1.67311499       0.66154162       1.49246275
H       -1.76463260      -1.06922476       2.00550169
H       -2.15004947      -1.73625767      -0.31815747
H       -2.04169189      -0.07967789      -2.19972544
H       -3.10231654       0.67416375      -1.00423444
H       -1.40964179       1.15656466      -1.09656921
19
Frame=1 idx=009426 GeodesicLength=0.06698791970337224 rxn_smarts="[C:1]([C:2]([O:3][C@@:4]1([H:13])[C:5]([H:14])([H:15])[C@:6]1([C:7]([H:17])([H:18])[H:19])[H:16])([H:11])[H:12])([H:8])([H:9])[H:10]>>[C:1]([C:2]([O+:3]=[C-:4][C:5]([C:6]([C:7]([H:17])([H:18])[H:19])([H:13])[H:16])([H:14])[H:15])([H:11])[H:12])([H:8])([H:9])[H:10]"
C        2.86492653       0.20548734       0.56651763
C        1.71558538       0.52394589      -0.36437899
O        0.47495753       0.61333304       0.33217472
C       -0.05692747      -0.58779948       0.68465029
C       -1.44549019      -0.37829542       1.23235580
C       -1.73251438      -0.74777636      -0.18562478
C       -2.10009856       0.31590738      -1.17826629
H        2.71171378      -0.76574296       1.03754859
H        2.94722276       0.96271929       1.34774074
H        3.80417210       0.18150441       0.01019450
H        1.63657444      -0.22599177      -1.15893980
H        1.84685259       1.49909411      -0.83716543
H       -0.46581184      -1.23511601      -0.36484524
H       -1.66666484       0.65276347       1.49441731
H       -1.75601691      -1.08289483       1.99606594
H       -2.19085818      -1.72405733      -0.32253279
H       -2.07066426      -0.06331517      -2.20117489
H       -3.10651131       0.69708518      -0.98818088
H       -1.41044717       1.15914922      -1.10055642
19
Frame=2 idx=009426 GeodesicLength=0.13362464142913616 rxn_smarts="[C:1]([C:2]([O:3][C@@:4]1([H:13])[C:5]([H:14])([H:15])[C@:6]1([C:7]([H:17])([H:18])[H:19])[H:16])([H:11])[H:12])([H:8])([H:9])[H:10]>>[C:1]([C:2]([O+:3]=[C-:4][C:5]([C:6]([C:7]([H:17])([H:18])[H:19])([H:13])[H:16])([H:14])[H:15])([H:11])[H:12])([H:8])([H:9])[H:10]"
C        2.88011968       0.22480726       0.57535306
C        1.72555016       0.50670002      -0.36049906
O        0.48874679       0.59628692       0.34253376
C       -0.06424082      -0.60082019       0.66596505
C       -1.44601944      -0.38607238       1.22431537
C       -1.74423699      -0.74800947      -0.19462231
C       -2.11055640       0.32653182      -1.17708812
H        2.74175068      -0.73930706       1.06550066
H        2.95249124       0.99836004       1.34146157
H        3.81942596       0.20407329       0.01892466
H        1.65913416      -0.25952837      -1.14036614
H        1.84119704       1.47346592      -0.85471534
H       -0.48480716      -1.26705164      -0.38277401
H       -1.66094129       0.64381469       1.49622357
H       -1.74810702      -1.09667491       1.98629204
H       -2.23122817      -1.71106761      -0.32652476
H       -2.09813251      -0.04683838      -2.20254257
H       -3.10956056       0.71973401      -0.97285402
H       -1.41058534       1.16159603      -1.10458340
19
Frame=3 idx=009426 GeodesicLength=0.19994181901454708 rxn_smarts="[C:1]([C:2]([O:3][C@@:4]1([H:13])[C:5]([H:14])([H:15])[C@:6]1([C:7]([H:17])([H:18])[H:19])[H:16])([H:11])[H:12])([H:8])([H:9])[H:10]>>[C:1]([C:2]([O+:3]=[C-:4][C:5]([C:6]([C:7]([H:17])([H:18])[H:19])([H:13])[H:16])([H:14])[H:15])([H:11])[H:12])([H:8])([H:9])[H:10]"
C        2.89523771       0.24425604       0.58327314
C        1.73516829       0.48935034      -0.35579753
O        0.50266801       0.57868843       0.35458434
C       -0.07189475      -0.61347435       0.64761605
C       -1.44701130      -0.39387347       1.21625465
C       -1.75584076      -0.74826919      -0.20367598
C       -2.12011000       0.33709859      -1.17610865
H        2.77221853      -0.71228919       1.09232745
H        2.95784760       1.03358558       1.33405177
H        3.83412747       0.22706767       0.02587992
H        1.68109500      -0.29263758      -1.12067473
H        1.83463689       1.44721366      -0.87107895
H       -0.50448747      -1.29945947      -0.39976537
H       -1.65590630       0.63469629       1.49788944
H       -1.74092146      -1.11056300       1.97617597
H       -2.27119697      -1.69725896      -0.33020111
H       -2.12413145      -0.03021676      -2.20386401
H       -3.11147716       0.74218046      -0.95824337
H       -1.41002189       1.16390492      -1.10864305
19
Frame=4 idx=009426 GeodesicLength=0.2659859907641875 rxn_smarts="[C:1]([C:2]([O:3][C@@:4]1([H:13])[C:5]([H:14])([H:15])[C@:6]1([C:7]([H:17])([H:18])[H:19])[H:16])([H:11])[H:12])([H:8])([H:9])[H:10]>>[C:1]([C:2]([O+:3]=[C-:4][C:5]([C:6]([C:7]([H:17])([H:18])[H:19])([H:13])[H:16])([H:14])[H:15])([H:11])[H:12])([H:8])([H:9])[H:10]"
C        2.91031504       0.26393031       0.59033858
C        1.74449112       0.47176850      -0.35027413
O        0.51676326       0.56030739       0.36828038
C       -0.07988197      -0.62585474       0.62948112
C       -1.44842493      -0.40174257       1.20814009
C       -1.76738488      -0.74853218      -0.21282778
C       -2.12882238       0.34768270      -1.17530256
H        2.80329752      -0.68454553       1.11816152
H        2.96315930       1.06859406       1.32552272
H        3.84830649       0.25062902       0.03114765
H        1.70264770      -0.32554608      -1.09981742
H        1.82706784       1.42016677      -0.88632006
H       -0.52497798      -1.33235014      -0.41589828
H       -1.65144109       0.62536864       1.49943824
H       -1.73442068      -1.12461087       1.96567843
H       -2.31082785      -1.68257647      -0.33365740
H       -2.14880340      -0.01334066      -2.20514706
H       -3.11230182       0.76454601      -0.94424144
H       -1.40876130       1.16610583      -1.11270262
19
Frame=5 idx=009426 GeodesicLength=0.3317671592697313 rxn_smarts="[C:1]([C:2]([O:3][C@@:4]1([H:13])[C:5]([H:14])([H:15])[C@:6]1([C:7]([H:17])([H:18])[H:19])[H:16])([H:11])[H:12])([H:8])([H:9])[H:10]>>[C:1]([C:2]([O+:3]=[C-:4][C:5]([C:6]([C:7]([H:17])([H:18])[H:19])([H:13])[H:16])([H:14])[H:15])([H:11])[H:12])([H:8])([H:9])[H:10]"
C        2.92535698       0.28385669       0.59651134
C        1.75348880       0.45395177      -0.34389461
O        0.53106354       0.54095691       0.38370759
C       -0.08820720      -0.63797774       0.61157125
C       -1.45027677      -0.40966247       1.19997520
C       -1.77888247      -0.74879290      -0.22208164
C       -2.13666031       0.35828905      -1.17469369
H        2.83513585      -0.65605941       1.14280846
H        2.96836906       1.10332696       1.31589783
H        3.86194346       0.27486705       0.03470326
H        1.72379158      -0.35820215      -1.07778470
H        1.81835755       1.39228630      -0.90027986
H       -0.54632183      -1.36574581      -0.43110692
H       -1.64753751       0.61586393       1.50086150
H       -1.72865346      -1.13877894       1.95481680
H       -2.35011672      -1.66700463      -0.33692681
H       -2.17209809       0.00377845      -2.20642538
H       -3.11201080       0.78686374      -0.93088884
H       -1.40674166       1.16818321      -1.11677079
19
Frame=6 idx=009426 GeodesicLength=0.3973466875535212 rxn_smarts="[C:1]([C:2]([O:3][C@@:4]1([H:13])[C:5]([H:14])([H:15])[C@:6]1([C:7]([H:17])([H:18])[H:19])[H:16])([H:11])[H:12])([H:8])([H:9])[H:10]>>[C:1]([C:2]([O+:3]=[C-:4][C:5]([C:6]([C:7]([H:17])([H:18])[H:19])([H:13])[H:16])([H:14])[H:15])([H:11])[H:12])([H:8])([H:9])[H:10]"
C        2.94035559       0.30416879       0.60188211
C        1.76226731       0.43570351      -0.33667290
O        0.54561531       0.52035275       0.40074002
C       -0.09684987      -0.64994668       0.59370766
C       -1.45248781      -0.41769098       1.19170976
C       -1.79040033      -0.74901692      -0.23148516
C       -2.14372237       0.36902009      -1.17422996
H        2.86789713      -0.62661806       1.16648740
H        2.97321510       1.13803265       1.30519612
H        3.87503223       0.29998362       0.03667027
H        1.74482962      -0.39093630      -1.05448466
H        1.80849441       1.36328913      -0.91309814
H       -0.56867514      -1.39961987      -0.44554868
H       -1.64401721       0.60612087       1.50218582
H       -1.72352732      -1.15314409       1.94352986
H       -2.38912553      -1.65046213      -0.34009277
H       -2.19423570       0.02130786      -2.20768676
H       -3.11066257       0.80927053      -0.91800458
H       -1.40400286       1.17018522      -1.12080542
19
Frame=7 idx=009426 GeodesicLength=0.462740254293147 rxn_smarts="[C:1]([C:2]([O:3][C@@:4]1([H:13])[C:5]([H:14])([H:15])[C@:6]1([C:7]([H:17])([H:18])[H:19])[H:16])([H:11])[H:12])([H:8])([H:9])[H:10]>>[C:1]([C:2]([O+:3]=[C-:4][C:5]([C:6]([C:7]([H:17])([H:18])[H:19])([H:13])[H:16])([H:14])[H:15])([H:11])[H:12])([H:8])([H:9])[H:10]"
C        2.95528072       0.32491580       0.60644560
C        1.77085182       0.41695574      -0.32859084
O        0.56045700       0.49825016       0.41937048
C       -0.10579517      -0.66179924       0.57583753
C       -1.45502963      -0.42582437       1.18333184
C       -1.80195917      -0.74918125      -0.24104835
C       -2.15001282       0.37990740      -1.17390406
H        2.90169557      -0.59612480       1.18909166
H        2.97749486       1.17270308       1.29345134
H        3.88751507       0.32613941       0.03709057
H        1.76587980      -0.42380653      -1.02987565
H        1.79742619       1.33303940      -0.92470174
H       -0.59210889      -1.43395161      -0.45924759
H       -1.64079546       0.59615154       1.50340726
H       -1.71903046      -1.16769052       1.93181245
H       -2.42784996      -1.63291211      -0.34317638
H       -2.21524741       0.03929103      -2.20893799
H       -3.10825208       0.83182054      -0.90554942
H       -1.40051998       1.17211634      -1.12480672
19
Frame=8 idx=009426 GeodesicLength=0.5280080797730111 rxn_smarts="[C:1]([C:2]([O:3][C@@:4]1([H:13])[C:5]([H:14])([H:15])[C@:6]1([C:7]([H:17])([H:18])[H:19])[H:16])([H:11])[H:12])([H:8])([H:9])[H:10]>>[C:1]([C:2]([O+:3]=[C-:4][C:5]([C:6]([C:7]([H:17])([H:18])[H:19])([H:13])[H:16])([H:14])[H:15])([H:11])[H:12])([H:8])([H:9])[H:10]"
C        2.97007333       0.34622689       0.61027456
C        1.77938458       0.39748790      -0.31966960
O        0.57563239       0.47435035       0.43943293
C       -0.11500751      -0.67359360       0.55776630
C       -1.45780190      -0.43411379       1.17478813
C       -1.81360853      -0.74923493      -0.25081284
C       -2.15563535       0.39106045      -1.17364502
H        2.93659445      -0.56432018       1.21085553
H        2.98083494       1.20755963       1.28064780
H        3.89933297       0.35352781       0.03608325
H        1.78729250      -0.45715963      -1.00380221
H        1.78523717       1.30117458      -0.93524782
H       -0.61676212      -1.46865677      -0.47240811
H       -1.63767961       0.58589164       1.50455284
H       -1.71503252      -1.18250286       1.91959292
H       -2.46630216      -1.61428445      -0.34623395
H       -2.23535002       0.05791299      -2.21013539
H       -3.10483863       0.85462651      -0.89331584
H       -1.39636399       1.17404744      -1.12872348
19
Frame=9 idx=009426 GeodesicLength=0.5930335477537133 rxn_smarts="[C:1]([C:2]([O:3][C@@:4]1([H:13])[C:5]([H:14])([H:15])[C@:6]1([C:7]([H:17])([H:18])[H:19])[H:16])([H:11])[H:12])([H:8])([H:9])[H:10]>>[C:1]([C:2]([O+:3]=[C-:4][C:5]([C:6]([C:7]([H:17])([H:18])[H:19])([H:13])[H:16])([H:14])[H:15])([H:11])[H:12])([H:8])([H:9])[H:10]"
C        2.98454387       0.36827061       0.61347304
C        1.78794862       0.37713490      -0.30994924
O        0.59120932       0.44825365       0.46066298
C       -0.12442071      -0.68557856       0.53926429
C       -1.46063579      -0.44260924       1.16603174
C       -1.82540178      -0.74913865      -0.26078674
C       -2.16064996       0.40256029      -1.17336989
H        2.97233733      -0.53078571       1.23196872
H        2.98297390       1.24267129       1.26675755
H        3.91035586       0.38238106       0.03386240
H        1.80930404      -0.49123944      -0.97614418
H        1.77221447       1.26742820      -0.94485394
H       -0.64276732      -1.50362362      -0.48536019
H       -1.63430721       0.57531201       1.50562284
H       -1.71140127      -1.19761153       1.90683802
H       -2.50460224      -1.59454324      -0.34919163
H       -2.25474417       0.07730028      -2.21119717
H       -3.10043012       0.87781518      -0.88108182
H       -1.39152683       1.17600253      -1.13254678
19
Frame=10 idx=009426 GeodesicLength=0.6579480140414942 rxn_smarts="[C:1]([C:2]([O:3][C@@:4]1([H:13])[C:5]([H:14])([H:15])[C@:6]1([C:7]([H:17])([H:18])[H:19])[H:16])([H:11])[H:12])([H:8])([H:9])[H:10]>>[C:1]([C:2]([O+:3]=[C-:4][C:5]([C:6]([C:7]([H:17])([H:18])[H:19])([H:13])[H:16])([H:14])[H:15])([H:11])[H:12])([H:8])([H:9])[H:10]"
C        2.99862549       0.39105816       0.61595062
C        1.79658946       0.35576185      -0.29938716
O        0.60720681       0.41974061       0.48317457
C       -0.13401938      -0.69756752       0.52038872
C       -1.46355406      -0.45129894       1.15705922
C       -1.83728351      -0.74883500      -0.27099410
C       -2.16499833       0.41447618      -1.17307365
H        3.00920155      -0.49552523       1.25224559
H        2.98343768       1.27807323       1.25176335
H        3.92043671       0.41283413       0.03026523
H        1.83210022      -0.52619137      -0.94673793
H        1.75810615       1.23150064      -0.95347481
H       -0.67011802      -1.53880760      -0.49795553
H       -1.63074771       0.56438629       1.50664337
H       -1.70815047      -1.21304691       1.89349779
H       -2.54256281      -1.57359459      -0.35216873
H       -2.27331983       0.09757492      -2.21213810
H       -3.09496519       0.90140631      -0.86884994
H       -1.38598476       1.17805484      -1.13620851
19
Frame=11 idx=009426 GeodesicLength=0.7227341617559118 rxn_smarts="[C:1]([C:2]([O:3][C@@:4]1([H:13])[C:5]([H:14])([H:15])[C@:6]1([C:7]([H:17])([H:18])[H:19])[H:16])([H:11])[H:12])([H:8])([H:9])[H:10]>>[C:1]([C:2]([O+:3]=[C-:4][C:5]([C:6]([C:7]([H:17])([H:18])[H:19])([H:13])[H:16])([H:14])[H:15])([H:11])[H:12])([H:8])([H:9])[H:10]"
C        3.01216629       0.41455873       0.61765192
C        1.80527701       0.33337712      -0.28799702
O        0.62366414       0.38854845       0.50697180
C       -0.14374795      -0.70952029       0.50118334
C       -1.46651010      -0.46012008       1.14788651
C       -1.84919567      -0.74829679      -0.28140684
C       -2.16859660       0.42679640      -1.17276467
H        3.04715232      -0.45856887       1.27138163
H        2.98190323       1.31352483       1.23579747
H        3.92934956       0.44504837       0.02526962
H        1.85568703      -0.56190029      -0.91562153
H        1.74290107       1.19337787      -0.96096429
H       -0.69878065      -1.57415564      -0.51012179
H       -1.62691736       0.55318957       1.50758711
H       -1.70527211      -1.22871249       1.87960755
H       -2.58008980      -1.55142493      -0.35511770
H       -2.29096348       0.11870363      -2.21295898
H       -3.08836806       0.92538258      -0.85665140
H       -1.37965889       1.18019184      -1.13973273
19
Frame=12 idx=009426 GeodesicLength=0.7874014294640794 rxn_smarts="[C:1]([C:2]([O:3][C@@:4]1([H:13])[C:5]([H:14])([H:15])[C@:6]1([C:7]([H:17])([H:18])[H:19])[H:16])([H:11])[H:12])([H:8])([H:9])[H:10]>>[C:1]([C:2]([O+:3]=[C-:4][C:5]([C:6]([C:7]([H:17])([H:18])[H:19])([H:13])[H:16])([H:14])[H:15])([H:11])[H:12])([H:8])([H:9])[H:10]"
C        3.02492347       0.43884946       0.61862898
C        1.81416111       0.30976989      -0.27584350
O        0.64062828       0.35435785       0.53180911
C       -0.15350647      -0.72142662       0.48148650
C       -1.46933819      -0.46907744       1.13847367
C       -1.86111092      -0.74744756      -0.29203288
C       -2.17149047       0.43961451      -1.17235914
H        3.08600547      -0.41967718       1.28949724
H        2.97778214       1.34906994       1.21888281
H        3.93683365       0.47920753       0.01899144
H        1.88038023      -0.59864153      -0.88264438
H        1.72681739       1.15268434      -0.96748520
H       -0.72878914      -1.60952393      -0.52202933
H       -1.62255931       0.54169687       1.50846438
H       -1.70257326      -1.24463509       1.86511080
H       -2.61710582      -1.52796292      -0.35801137
H       -2.30782285       0.14083484      -2.21357562
H       -3.08063898       0.94981407      -0.84427615
H       -1.37259633       1.18249297      -1.14308736
19
Frame=13 idx=009426 GeodesicLength=0.8519140492345081 rxn_smarts="[C:1]([C:2]([O:3][C@@:4]1([H:13])[C:5]([H:14])([H:15])[C@:6]1([C:7]([H:17])([H:18])[H:19])[H:16])([H:11])[H:12])([H:8])([H:9])[H:10]>>[C:1]([C:2]([O+:3]=[C-:4][C:5]([C:6]([C:7]([H:17])([H:18])[H:19])([H:13])[H:16])([H:14])[H:15])([H:11])[H:12])([H:8])([H:9])[H:10]"
C        3.03666705       0.46372427       0.61876182
C        1.82307516       0.28519672      -0.26295824
O        0.65812533       0.31691505       0.55781226
C       -0.16321060      -0.73316781       0.46154130
C       -1.47202185      -0.47797737       1.12890133
C       -1.87288260      -0.74629578      -0.30277967
C       -2.17345237       0.45277909      -1.17195919
H        3.12568272      -0.37928433       1.30585152
H        2.97083185       1.38402974       1.20146056
H        3.94250940       0.51545544       0.01126075
H        1.90590363      -0.63582558      -0.84818294
H        1.70968871       1.10988937      -0.97256353
H       -0.75999488      -1.64490514      -0.53335500
H       -1.61764992       0.53015938       1.50918538
H       -1.70012986      -1.26050833       1.85017460
H       -2.65341564      -1.50325107      -0.36070403
H       -2.32354892       0.16367395      -2.21405763
H       -3.07159080       0.97456830      -0.83197874
H       -1.36458643       1.18482409      -1.14641056
19
Frame=14 idx=009426 GeodesicLength=0.9162714712243072 rxn_smarts="[C:1]([C:2]([O:3][C@@:4]1([H:13])[C:5]([H:14])([H:15])[C@:6]1([C:7]([H:17])([H:18])[H:19])[H:16])([H:11])[H:12])([H:8])([H:9])[H:10]>>[C:1]([C:2]([O+:3]=[C-:4][C:5]([C:6]([C:7]([H:17])([H:18])[H:19])([H:13])[H:16])([H:14])[H:15])([H:11])[H:12])([H:8])([H:9])[H:10]"
C        3.04708102       0.48920746       0.61836570
C        1.83245138       0.25936551      -0.24955282
O        0.67617627       0.27619358       0.58413600
C       -0.17265254      -0.74453733       0.44082924
C       -1.47417433      -0.48680273       1.11904260
C       -1.88452863      -0.74474468      -0.31366270
C       -2.17492700       0.46639749      -1.17138008
H        3.16548326      -0.33708243       1.32109836
H        2.96030738       1.41853887       1.18359715
H        3.94630418       0.55366419       0.00269384
H        1.93295508      -0.67393470      -0.81200306
H        1.69251976       1.06444403      -0.97682331
H       -0.79241126      -1.67994570      -0.54456927
H       -1.61173983       0.51854346       1.50973773
H       -1.69728764      -1.27638777       1.83467897
H       -2.68889194      -1.47730378      -0.36303223
H       -2.33889055       0.18740776      -2.21419110
H       -3.06160704       0.99959567      -0.81923638
H       -1.35616759       1.18738109      -1.14972862
19
Frame=15 idx=009426 GeodesicLength=0.9804283425817989 rxn_smarts="[C:1]([C:2]([O:3][C@@:4]1([H:13])[C:5]([H:14])([H:15])[C@:6]1([C:7]([H:17])([H:18])[H:19])[H:16])([H:11])[H:12])([H:8])([H:9])[H:10]>>[C:1]([C:2]([O+:3]=[C-:4][C:5]([C:6]([C:7]([H:17])([H:18])[H:19])([H:13])[H:16])([H:14])[H:15])([H:11])[H:12])([H:8])([H:9])[H:10]"
C        3.05592129       0.51495866       0.61754424
C        1.84232150       0.23258172      -0.23579827
O        0.69476496       0.23229555       0.61042066
C       -0.18165391      -0.75520284       0.41933433
C       -1.47560616      -0.49529548       1.10891614
C       -1.89593129      -0.74280737      -0.32457921
C       -2.17603493       0.48027073      -1.17068301
H        3.20489323      -0.29363330       1.33489710
H        2.94600832       1.45183754       1.16589914
H        3.94801208       0.59365513      -0.00644759
H        1.96144032      -0.71237503      -0.77457082
H        1.67579637       1.01690883      -0.98009803
H       -0.82581603      -1.71448526      -0.55550630
H       -1.60468532       0.50715474       1.50998130
H       -1.69373564      -1.29192467       1.81877420
H       -2.72326869      -1.45030338      -0.36470004
H       -2.35400053       0.21165892      -2.21396804
H       -3.05085428       1.02460764      -0.80612596
H       -1.34757127       1.19009787      -1.15328986
19
Frame=16 idx=009426 GeodesicLength=1.0444441748084534 rxn_smarts="[C:1]([C:2]([O:3][C@@:4]1([H:13])[C:5]([H:14])([H:15])[C@:6]1([C:7]([H:17])([H:18])[H:19])[H:16])([H:11])[H:12])([H:8])([H:9])[H:10]>>[C:1]([C:2]([O+:3]=[C-:4][C:5]([C:6]([C:7]([H:17])([H:18])[H:19])([H:13])[H:16])([H:14])[H:15])([H:11])[H:12])([H:8])([H:9])[H:10]"
C        3.06304156       0.54071811       0.61685325
C        1.85332850       0.20474806      -0.22204365
O        0.71383903       0.18586191       0.63529672
C       -0.18993010      -0.76449577       0.39626912
C       -1.47580074      -0.50329844       1.09831610
C       -1.90716077      -0.74042329      -0.33553355
C       -2.17773609       0.49438587      -1.16968529
H        3.24273582      -0.24885823       1.34827990
H        2.92765673       1.48381903       1.14853872
H        3.94801330       0.63463314      -0.01494637
H        1.99209231      -0.75141169      -0.73572042
H        1.66129328       0.96692431      -0.98325173
H       -0.86000261      -1.74797515      -0.56672423
H       -1.59608428       0.49609191       1.50980357
H       -1.68837281      -1.30706382       1.80231697
H       -2.75631234      -1.42256882      -0.36533784
H       -2.37025407       0.23639286      -2.21311044
H       -3.04031420       1.04922760      -0.79202055
H       -1.34003253       1.19329239      -1.15730029
