10
Frame=0 idx=002133 GeodesicLength=0.0 rxn_smarts="[O:1]([C:2]1([H:6])[C:3]([H:7])([H:8])[C:4]1([H:9])[H:10])[H:5]>>[C:2]1([H:6])=[C:3]([H:7])[C:4]1([H:9])[H:10].[O:1]([H:5])[H:8]"
O        1.65826944      -0.12303631       0.01694005
C        0.10628274      -0.13187639      -0.65267337
C       -0.42890748       1.00913550      -0.02945985
C       -0.93412500      -0.36130830       0.37425566
H        1.75550896      -0.83384528       0.66394418
H        0.24469969      -0.53320340      -1.64520090
H       -1.01508158       1.76865298      -0.52570952
H        1.15719124       0.73321402       0.45177144
H       -1.87045576      -0.76814829      -0.00722059
H       -0.67338224      -0.75958452       1.35335290
10
Frame=1 idx=002133 GeodesicLength=0.07671355606248913 rxn_smarts="[O:1]([C:2]1([H:6])[C:3]([H:7])([H:8])[C:4]1([H:9])[H:10])[H:5]>>[C:2]1([H:6])=[C:3]([H:7])[C:4]1([H:9])[H:10].[O:1]([H:5])[H:8]"
O        1.67127970      -0.11906643       0.02262495
C        0.10255411      -0.14142348      -0.65465920
C       -0.42813659       1.00127196      -0.03233747
C       -0.94039775      -0.36538680       0.37234824
H        1.77220548      -0.83353669       0.66429906
H        0.23697592      -0.53634449      -1.65021632
H       -1.00466565       1.77213600      -0.52176450
H        1.15074397       0.74863684       0.45440280
H       -1.88220628      -0.76210520      -0.00539834
H       -0.67835291      -0.76418172       1.35070076
10
Frame=2 idx=002133 GeodesicLength=0.153372608981104 rxn_smarts="[O:1]([C:2]1([H:6])[C:3]([H:7])([H:8])[C:4]1([H:9])[H:10])[H:5]>>[C:2]1([H:6])=[C:3]([H:7])[C:4]1([H:9])[H:10].[O:1]([H:5])[H:8]"
O        1.68448752      -0.11497430       0.02852860
C        0.09881359      -0.15107167      -0.65664585
C       -0.42735306       0.99334603      -0.03530635
C       -0.94673597      -0.36944535       0.37039704
H        1.78911907      -0.83339947       0.66444883
H        0.22906177      -0.53953681      -1.65522012
H       -0.99407844       1.77546168      -0.51774877
H        1.14402364       0.76431244       0.45710933
H       -1.89393126      -0.75593329      -0.00357225
H       -0.68340685      -0.76875925       1.34800954
10
Frame=3 idx=002133 GeodesicLength=0.23000646225231847 rxn_smarts="[O:1]([C:2]1([H:6])[C:3]([H:7])([H:8])[C:4]1([H:9])[H:10])[H:5]>>[C:2]1([H:6])=[C:3]([H:7])[C:4]1([H:9])[H:10].[O:1]([H:5])[H:8]"
O        1.69789782      -0.11076181       0.03466423
C        0.09505903      -0.16082212      -0.65863741
C       -0.42655156       0.98535835      -0.03836987
C       -0.95313841      -0.37347943       0.36840035
H        1.80625964      -0.83344723       0.66437484
H        0.22095834      -0.54278948      -1.66020992
H       -0.98332040       1.77861951      -0.51365701
H        1.13700981       0.78026049       0.45989946
H       -1.90562879      -0.74962618      -0.00174282
H       -0.68854548      -0.77331210       1.34527814
10
Frame=4 idx=002133 GeodesicLength=0.306636967469616 rxn_smarts="[O:1]([C:2]1([H:6])[C:3]([H:7])([H:8])[C:4]1([H:9])[H:10])[H:5]>>[C:2]1([H:6])=[C:3]([H:7])[C:4]1([H:9])[H:10].[O:1]([H:5])[H:8]"
O        1.71151427      -0.10642915       0.04104747
C        0.09128823      -0.17067680      -0.66063854
C       -0.42572759       0.97730987      -0.04153517
C       -0.95960466      -0.37748417       0.36635514
H        1.82363781      -0.83369453       0.66405640
H        0.21266818      -0.54611544      -1.66518275
H       -0.97238763       1.78159872      -0.50947516
H        1.12967811       0.79650260       0.46277832
H       -1.91729578      -0.74317914       0.00008830
H       -0.69377095      -0.77783196       1.34250601
10
Frame=5 idx=002133 GeodesicLength=0.3832635552641398 rxn_smarts="[O:1]([C:2]1([H:6])[C:3]([H:7])([H:8])[C:4]1([H:9])[H:10])[H:5]>>[C:2]1([H:6])=[C:3]([H:7])[C:4]1([H:9])[H:10].[O:1]([H:5])[H:8]"
O        1.72534187      -0.10197805       0.04769747
C        0.08749923      -0.18063443      -0.66265191
C       -0.42487353       0.96920262      -0.04480154
C       -0.96613303      -0.38145281       0.36426108
H        1.84126625      -0.83415788       0.66346846
H        0.20419445      -0.54952143      -1.67013519
H       -0.96129192       1.78438530      -0.50520771
H        1.12201253       0.81305309       0.46575608
H       -1.92893088      -0.73658198       0.00192130
H       -0.69908496      -0.78231443       1.33969196
10
Frame=6 idx=002133 GeodesicLength=0.4599187275164806 rxn_smarts="[O:1]([C:2]1([H:6])[C:3]([H:7])([H:8])[C:4]1([H:9])[H:10])[H:5]>>[C:2]1([H:6])=[C:3]([H:7])[C:4]1([H:9])[H:10].[O:1]([H:5])[H:8]"
O        1.73938637      -0.09741439       0.05463031
C        0.08369064      -0.19069566      -0.66468147
C       -0.42398143       0.96103896      -0.04817386
C       -0.97272219      -0.38537847       0.36211591
H        1.85915769      -0.83485274       0.66258723
H        0.19553915      -0.55301889      -1.67506435
H       -0.95003681       1.78696418      -0.50084731
H        1.11398447       0.82993446       0.46884354
H       -1.94052948      -0.72982540       0.00375500
H       -0.70448841      -0.78675204       1.33683501
10
Frame=7 idx=002133 GeodesicLength=0.5366018050159888 rxn_smarts="[O:1]([C:2]1([H:6])[C:3]([H:7])([H:8])[C:4]1([H:9])[H:10])[H:5]>>[C:2]1([H:6])=[C:3]([H:7])[C:4]1([H:9])[H:10].[O:1]([H:5])[H:8]"
O        1.75365277      -0.09274088       0.06186701
C        0.07985937      -0.20086089      -0.66673068
C       -0.42304223       0.95282142      -0.05165309
C       -0.97937088      -0.38925411       0.35991863
H        1.87732751      -0.83579382       0.66138479
H        0.18670606      -0.55661625      -1.67996776
H       -0.93863147       1.78931904      -0.49639569
H        1.10557223       0.84716241       0.47205260
H       -1.95209046      -0.72289777       0.00558940
H       -0.70998291      -0.79113914       1.33393479
10
Frame=8 idx=002133 GeodesicLength=0.6133195452188023 rxn_smarts="[O:1]([C:2]1([H:6])[C:3]([H:7])([H:8])[C:4]1([H:9])[H:10])[H:5]>>[C:2]1([H:6])=[C:3]([H:7])[C:4]1([H:9])[H:10].[O:1]([H:5])[H:8]"
O        1.76814653      -0.08796193       0.06943032
C        0.07600260      -0.21113062      -0.66880317
C       -0.42204553       0.94455235      -0.05524076
C       -0.98607799      -0.39307145       0.35766824
H        1.89579204      -0.83699574       0.65982953
H        0.17769841      -0.56032430      -1.68484256
H       -0.92708542       1.79143264      -0.49185467
H        1.09674929       0.86475447       0.47539834
H       -1.96361015      -0.71578547       0.00742488
H       -0.71556978      -0.79546994       1.33098986
10
Frame=9 idx=002133 GeodesicLength=0.6900474784788571 rxn_smarts="[O:1]([C:2]1([H:6])[C:3]([H:7])([H:8])[C:4]1([H:9])[H:10])[H:5]>>[C:2]1([H:6])=[C:3]([H:7])[C:4]1([H:9])[H:10].[O:1]([H:5])[H:8]"
O        1.78287313      -0.08308068       0.07734175
C        0.07211897      -0.22150282      -0.67090153
C       -0.42098281       0.93623284      -0.05893665
C       -0.99284039      -0.39682094       0.35536456
H        1.91456627      -0.83847436       0.65789392
H        0.16852127      -0.56415204      -1.68968546
H       -0.91541519       1.79328962      -0.48722843
H        1.08749581       0.88272236       0.47889193
H       -1.97508649      -0.70847534       0.00926187
H       -0.72125057      -0.79973865       1.32799804
10
Frame=10 idx=002133 GeodesicLength=0.7668117209274703 rxn_smarts="[O:1]([C:2]1([H:6])[C:3]([H:7])([H:8])[C:4]1([H:9])[H:10])[H:5]>>[C:2]1([H:6])=[C:3]([H:7])[C:4]1([H:9])[H:10].[O:1]([H:5])[H:8]"
O        1.79784045      -0.07810999       0.08562989
C        0.06820477      -0.23197851      -0.67302805
C       -0.41983773       0.92786803      -0.06273796
C       -0.99965720      -0.40049438       0.35300758
H        1.93367233      -0.84024378       0.65553717
H        0.15917701      -0.56810563      -1.69449449
H       -0.90363698       1.79486801      -0.48253231
H        1.07777835       0.90108598       0.48255649
H       -1.98651556      -0.70094859       0.01110144
H       -0.72702544      -0.80394115       1.32496024
10
Frame=11 idx=002133 GeodesicLength=0.8436078538954659 rxn_smarts="[O:1]([C:2]1([H:6])[C:3]([H:7])([H:8])[C:4]1([H:9])[H:10])[H:5]>>[C:2]1([H:6])=[C:3]([H:7])[C:4]1([H:9])[H:10].[O:1]([H:5])[H:8]"
O        1.81305599      -0.07306029       0.09432341
C        0.06425701      -0.24255744      -0.67518452
C       -0.41859545       0.91945992      -0.06663898
C       -1.00652529      -0.40408213       0.35059934
H        1.95313242      -0.84231783       0.65271976
H        0.14966906      -0.57219007      -1.69926777
H       -0.89177207       1.79614977      -0.47778873
H        1.06756854       0.91985933       0.48641547
H       -1.99789527      -0.69318521       0.01294635
H       -0.73289494      -0.80807605       1.32187567
10
Frame=12 idx=002133 GeodesicLength=0.9204241323369454 rxn_smarts="[O:1]([C:2]1([H:6])[C:3]([H:7])([H:8])[C:4]1([H:9])[H:10])[H:5]>>[C:2]1([H:6])=[C:3]([H:7])[C:4]1([H:9])[H:10].[O:1]([H:5])[H:8]"
O        1.82852769      -0.06794555       0.10345345
C        0.06027252      -0.25323923      -0.67737135
C       -0.41723825       0.91101236      -0.07063254
C       -1.01344306      -0.40757485       0.34814145
H        1.97296956      -0.84470893       0.64940010
H        0.14000096      -0.57640732      -1.70400277
H       -0.87984680       1.79711404      -0.47302376
H        1.05683830       0.93905456       0.49049172
H       -2.00922056      -0.68516338       0.01479927
H       -0.73886036      -0.81214170       1.31874442
10
Frame=13 idx=002133 GeodesicLength=0.9972393390507486 rxn_smarts="[O:1]([C:2]1([H:6])[C:3]([H:7])([H:8])[C:4]1([H:9])[H:10])[H:5]>>[C:2]1([H:6])=[C:3]([H:7])[C:4]1([H:9])[H:10].[O:1]([H:5])[H:8]"
O        1.84426340      -0.06278074       0.11305261
C        0.05624779      -0.26402463      -0.67958972
C       -0.41575035       0.90252579      -0.07471215
C       -1.02040768      -0.41096334       0.34563576
H        1.99320761      -0.84742306       0.64553748
H        0.13017647      -0.58076277      -1.70869792
H       -0.86788272       1.79774473      -0.46825822
H        1.04555935       0.95868281       0.49480493
H       -2.02049047      -0.67686285       0.01666181
H       -0.74492340      -0.81613595       1.31556542
10
Frame=14 idx=002133 GeodesicLength=1.0740513036885175 rxn_smarts="[O:1]([C:2]1([H:6])[C:3]([H:7])([H:8])[C:4]1([H:9])[H:10])[H:5]>>[C:2]1([H:6])=[C:3]([H:7])[C:4]1([H:9])[H:10].[O:1]([H:5])[H:8]"
O        1.86027153      -0.05758554       0.12315845
C        0.05217844      -0.27491549      -0.68184054
C       -0.41410975       0.89400208      -0.07886929
C       -1.02741775      -0.41423693       0.34308433
H        2.01387583      -0.85046455       0.64108048
H        0.12019663      -0.58526016      -1.71335132
H       -0.85590314       1.79801897      -0.46352515
H        1.03369334       0.97875728       0.49938682
H       -2.03169931      -0.66825597       0.01853800
H       -0.75108583      -0.82005970       1.31233821
10
Frame=15 idx=002133 GeodesicLength=1.1508311309606098 rxn_smarts="[O:1]([C:2]1([H:6])[C:3]([H:7])([H:8])[C:4]1([H:9])[H:10])[H:5]>>[C:2]1([H:6])=[C:3]([H:7])[C:4]1([H:9])[H:10].[O:1]([H:5])[H:8]"
O        1.87656035      -0.05237993       0.13381325
C        0.04805996      -0.28591371      -0.68412318
C       -0.41229548       0.88544092      -0.08309162
C       -1.03447097      -0.41738628       0.34049067
H        2.03500329      -0.85383353       0.63597647
H        0.11006335      -0.58990135      -1.71796106
H       -0.84393424       1.79791885      -0.45886286
H        1.02120877       0.99928616       0.50426481
H       -2.04284466      -0.65931559       0.02043179
H       -0.75735038      -0.82391554       1.30906173
10
Frame=16 idx=002133 GeodesicLength=1.227556956012144 rxn_smarts="[O:1]([C:2]1([H:6])[C:3]([H:7])([H:8])[C:4]1([H:9])[H:10])[H:5]>>[C:2]1([H:6])=[C:3]([H:7])[C:4]1([H:9])[H:10].[O:1]([H:5])[H:8]"
O        1.89313723      -0.04718642       0.14506459
C        0.04388748      -0.29702286      -0.68643664
C       -0.41028472       0.87684274      -0.08736866
C       -1.04156609      -0.42040060       0.33785772
H        2.05662477      -0.85752811       0.63016189
H        0.09977898      -0.59468998      -1.72252494
H       -0.83199865       1.79742267      -0.45431159
H        1.00806522       1.02027876       0.50947320
H       -2.05392267      -0.65001244       0.02234727
H       -0.76372155      -0.82770375       1.30573717
