15
Frame=0 idx=008446 GeodesicLength=0.0 rxn_smarts="[C:1]1([H:8])([H:9])[C@@:2]2([H:10])[C@@:3]3([H:11])[O:4][C:5]([H:12])([H:13])[C@:6]1([H:14])[C@@:7]23[H:15]>>[C:1]([C:2]1([H:10])[C:3]([H:11])=[C:7]1[H:15])([C:6]([C:5](=[O:4])[H:13])([H:12])[H:14])([H:8])[H:9]"
C        0.68116856       1.07887653       0.28243878
C        1.37044983      -0.16525975      -0.22126394
C        0.62160884      -1.43332158      -0.04098557
O       -0.85660095      -0.99157513       1.30179277
C       -1.50147888      -0.14050881       0.60243704
C       -0.73213555       0.77457150      -0.19202544
C        0.43202215      -0.81544995      -1.21012961
H        0.71771427       1.22760196       1.36675595
H        1.06834524       1.97513493      -0.20491487
H        2.45692193      -0.18869987      -0.28952462
H        0.77855261      -2.39460115       0.41152211
H       -1.54450262       1.01165891       1.06041397
H       -2.53150175      -0.33134902       0.26982260
H       -1.25669120       1.43007175      -0.88171675
H        0.29612753      -1.03715033      -2.25462242
15
Frame=1 idx=008446 GeodesicLength=0.042812769219923205 rxn_smarts="[C:1]1([H:8])([H:9])[C@@:2]2([H:10])[C@@:3]3([H:11])[O:4][C:5]([H:12])([H:13])[C@:6]1([H:14])[C@@:7]23[H:15]>>[C:1]([C:2]1([H:10])[C:3]([H:11])=[C:7]1[H:15])([C:6]([C:5](=[O:4])[H:13])([H:12])[H:14])([H:8])[H:9]"
C        0.68171721       1.07944790       0.28491929
C        1.37074846      -0.16605020      -0.21831929
C        0.61628569      -1.43233791      -0.04005522
O       -0.85409155      -0.99440496       1.30484353
C       -1.50460764      -0.13914416       0.61263465
C       -0.73201137       0.77354654      -0.18852390
C        0.42812676      -0.80745532      -1.20901282
H        0.72116835       1.22646014       1.36922901
H        1.06869982       1.97491141      -0.20392624
H        2.45677126      -0.19088706      -0.28869319
H        0.78003157      -2.39822161       0.40030325
H       -1.54777380       1.02975420       1.05492554
H       -2.53149464      -0.33850920       0.27480994
H       -1.25169231       1.41066249      -0.89845595
H        0.29812217      -1.02777227      -2.25467860
15
Frame=2 idx=008446 GeodesicLength=0.0856233851861173 rxn_smarts="[C:1]1([H:8])([H:9])[C@@:2]2([H:10])[C@@:3]3([H:11])[O:4][C:5]([H:12])([H:13])[C@:6]1([H:14])[C@@:7]23[H:15]>>[C:1]([C:2]1([H:10])[C:3]([H:11])=[C:7]1[H:15])([C:6]([C:5](=[O:4])[H:13])([H:12])[H:14])([H:8])[H:9]"
C        0.68222794       1.07999563       0.28736053
C        1.37102460      -0.16685020      -0.21541464
C        0.61099822      -1.43136206      -0.03909791
O       -0.85165156      -0.99729392       1.30776147
C       -1.50769708      -0.13770015       0.62287836
C       -0.73192068       0.77253104      -0.18514554
C        0.42430122      -0.79953183      -1.20787840
H        0.72454475       1.22529149       1.37165051
H        1.06904350       1.97466095      -0.20295096
H        2.45659570      -0.19304627      -0.28787189
H        0.78148666      -2.40169494       0.38898958
H       -1.55111882       1.04796009       1.04891217
H       -2.53136442      -0.34563559       0.27989271
H       -1.24662360       1.39119038      -0.91442272
H        0.30015357      -1.01851461      -2.25466326
15
Frame=3 idx=008446 GeodesicLength=0.12844591420778326 rxn_smarts="[C:1]1([H:8])([H:9])[C@@:2]2([H:10])[C@@:3]3([H:11])[O:4][C:5]([H:12])([H:13])[C@:6]1([H:14])[C@@:7]23[H:15]>>[C:1]([C:2]1([H:10])[C:3]([H:11])=[C:7]1[H:15])([C:6]([C:5](=[O:4])[H:13])([H:12])[H:14])([H:8])[H:9]"
C        0.68270329       1.08052264       0.28976723
C        1.37128514      -0.16766082      -0.21254867
C        0.60575991      -1.43040692      -0.03810881
O       -0.84928301      -1.00025594       1.31054010
C       -1.51074784      -0.13618932       0.63315100
C       -0.73186152       0.77152003      -0.18189538
C        0.42054768      -0.79169335      -1.20672878
H        0.72784647       1.22409845       1.37403055
H        1.06937610       1.97439441      -0.20198037
H        2.45640362      -0.19517079      -0.28706858
H        0.78293890      -2.40502838       0.37760681
H       -1.55452926       1.06625436       1.04236551
H       -2.53112401      -0.35271297       0.28506203
H       -1.24150887       1.37172858      -0.92961292
H        0.30219340      -1.00939999      -2.25457971
15
Frame=4 idx=008446 GeodesicLength=0.17129212415158296 rxn_smarts="[C:1]1([H:8])([H:9])[C@@:2]2([H:10])[C@@:3]3([H:11])[O:4][C:5]([H:12])([H:13])[C@:6]1([H:14])[C@@:7]23[H:15]>>[C:1]([C:2]1([H:10])[C:3]([H:11])=[C:7]1[H:15])([C:6]([C:5](=[O:4])[H:13])([H:12])[H:14])([H:8])[H:9]"
C        0.68314144       1.08102953       0.29214103
C        1.37153471      -0.16848632      -0.20971894
C        0.60057931      -1.42948237      -0.03708860
O       -0.84698498      -1.00329599       1.31318340
C       -1.51375828      -0.13461798       0.64344986
C       -0.73183334       0.77050831      -0.17877466
C        0.41687358      -0.78394677      -1.20557055
H        0.73106880       1.22288392       1.37637594
H        1.06969243       1.97411552      -0.20101482
H        2.45620062      -0.19726573      -0.28627912
H        0.78439711      -2.40823316       0.36616110
H       -1.55799995       1.08462420       1.03528303
H       -2.53078464      -0.35972324       0.29033548
H       -1.23637410       1.35232103      -0.94404158
H        0.30424730      -1.00043095      -2.25444156
15
Frame=5 idx=008446 GeodesicLength=0.21411119739446677 rxn_smarts="[C:1]1([H:8])([H:9])[C@@:2]2([H:10])[C@@:3]3([H:11])[O:4][C:5]([H:12])([H:13])[C@:6]1([H:14])[C@@:7]23[H:15]>>[C:1]([C:2]1([H:10])[C:3]([H:11])=[C:7]1[H:15])([C:6]([C:5](=[O:4])[H:13])([H:12])[H:14])([H:8])[H:9]"
C        0.68354538       1.08150463       0.29447366
C        1.37177314      -0.16932071      -0.20692343
C        0.59545267      -1.42857334      -0.03603596
O       -0.84476586      -1.00641003       1.31567858
C       -1.51672621      -0.13299766       0.65376603
C       -0.73182716       0.76947592      -0.17578087
C        0.41328340      -0.77628309      -1.20438926
H        0.73420905       1.22163554       1.37866412
H        1.06999952       1.97380354      -0.20006015
H        2.45598440      -0.19932037      -0.28550151
H        0.78584445      -2.41128304       0.35465185
H       -1.56151489       1.10302895       1.02764567
H       -2.53035371      -0.36665585       0.29573831
H       -1.23122445       1.33298451      -0.95770488
H        0.30632027      -0.99158902      -2.25422214
15
Frame=6 idx=008446 GeodesicLength=0.2569546219303501 rxn_smarts="[C:1]1([H:8])([H:9])[C@@:2]2([H:10])[C@@:3]3([H:11])[O:4][C:5]([H:12])([H:13])[C@:6]1([H:14])[C@@:7]23[H:15]>>[C:1]([C:2]1([H:10])[C:3]([H:11])=[C:7]1[H:15])([C:6]([C:5](=[O:4])[H:13])([H:12])[H:14])([H:8])[H:9]"
C        0.68391139       1.08195747       0.29677335
C        1.37200582      -0.17017237      -0.20415530
C        0.59038860      -1.42770075      -0.03495744
O       -0.84261330      -1.00960579       1.31804201
C       -1.51964865      -0.13133037       0.66410890
C       -0.73184930       0.76842560      -0.17291103
C        0.40978271      -0.76871114      -1.20320306
H        0.73727053       1.22036816       1.38091711
H        1.07028561       1.97347529      -0.19911555
H        2.45576381      -0.20134841      -0.28471698
H        0.78729026      -2.41421194       0.34307105
H       -1.56507550       1.12147416       1.01946179
H       -2.52984975      -0.37348627       0.30129981
H       -1.22609307       1.31373956      -0.97065550
H        0.30843084      -0.98287321      -2.25395916
15
Frame=7 idx=008446 GeodesicLength=0.29980101693224603 rxn_smarts="[C:1]1([H:8])([H:9])[C@@:2]2([H:10])[C@@:3]3([H:11])[O:4][C:5]([H:12])([H:13])[C@:6]1([H:14])[C@@:7]23[H:15]>>[C:1]([C:2]1([H:10])[C:3]([H:11])=[C:7]1[H:15])([C:6]([C:5](=[O:4])[H:13])([H:12])[H:14])([H:8])[H:9]"
C        0.68424145       1.08238002       0.29903758
C        1.37223321      -0.17103867      -0.20141683
C        0.58538781      -1.42686011      -0.03385420
O       -0.84053646      -1.01288772       1.32026293
C       -1.52252354      -0.12963031       0.67446575
C       -0.73189301       0.76734673      -0.17016373
C        0.40637412      -0.76122725      -1.20200815
H        0.74025095       1.21906938       1.38312741
H        1.07055504       1.97312176      -0.19817927
H        2.45553779      -0.20334265      -0.28392993
H        0.78874293      -2.41699944       0.33143895
H       -1.56866467       1.13992650       1.01072714
H       -2.52929121      -0.38019405       0.30703334
H       -1.22099240       1.29461952      -0.98289847
H        0.31057799      -0.97428372      -2.25364250
15
Frame=8 idx=008446 GeodesicLength=0.34265432682380037 rxn_smarts="[C:1]1([H:8])([H:9])[C@@:2]2([H:10])[C@@:3]3([H:11])[O:4][C:5]([H:12])([H:13])[C@:6]1([H:14])[C@@:7]23[H:15]>>[C:1]([C:2]1([H:10])[C:3]([H:11])=[C:7]1[H:15])([C:6]([C:5](=[O:4])[H:13])([H:12])[H:14])([H:8])[H:9]"
C        0.68453515       1.08277653       0.30126880
C        1.37245965      -0.17192047      -0.19870084
C        0.58045492      -1.42605615      -0.03272734
O       -0.83852897      -1.01625653       1.32234888
C       -1.52534873      -0.12789893       0.68484155
C       -0.73195969       0.76623530      -0.16753329
C        0.40306209      -0.75383236      -1.20080657
H        0.74315310       1.21774767       1.38529922
H        1.07080321       1.97274682      -0.19725394
H        2.45531262      -0.20530587      -0.28312784
H        0.79019064      -2.41966246       0.31973842
H       -1.57228017       1.15837370       1.00143795
H       -2.52868807      -0.38676721       0.31296429
H       -1.21593605       1.27562770      -0.99446912
H        0.31277028      -0.96580773      -2.25328017
15
Frame=9 idx=008446 GeodesicLength=0.3855066486676834 rxn_smarts="[C:1]1([H:8])([H:9])[C@@:2]2([H:10])[C@@:3]3([H:11])[O:4][C:5]([H:12])([H:13])[C@:6]1([H:14])[C@@:7]23[H:15]>>[C:1]([C:2]1([H:10])[C:3]([H:11])=[C:7]1[H:15])([C:6]([C:5](=[O:4])[H:13])([H:12])[H:14])([H:8])[H:9]"
C        0.68479413       1.08314104       0.30347033
C        1.37268760      -0.17281597      -0.19600949
C        0.57559538      -1.42528706      -0.03157720
O       -0.83659942      -1.01971694       1.32429053
C       -1.52812364      -0.12614951       0.69522534
C       -0.73204456       0.76508530      -0.16501523
C        0.39984881      -0.74652535      -1.19959615
H        0.74597308       1.21639248       1.38743421
H        1.07103592       1.97234393      -0.19633074
H        2.45508963      -0.20722837      -0.28232725
H        0.79164828      -2.42218462       0.30799176
H       -1.57590996       1.17679081       0.99159816
H       -2.52805738      -0.39318642       0.31909211
H       -1.21093307       1.25679743      -1.00538154
H        0.31499520      -0.95745675      -2.25286486
15
Frame=10 idx=008446 GeodesicLength=0.42836476856915084 rxn_smarts="[C:1]1([H:8])([H:9])[C@@:2]2([H:10])[C@@:3]3([H:11])[O:4][C:5]([H:12])([H:13])[C@:6]1([H:14])[C@@:7]23[H:15]>>[C:1]([C:2]1([H:10])[C:3]([H:11])=[C:7]1[H:15])([C:6]([C:5](=[O:4])[H:13])([H:12])[H:14])([H:8])[H:9]"
C        0.68501879       1.08347751       0.30564369
C        1.37292004      -0.17372537      -0.19333652
C        0.57081043      -1.42455682      -0.03040638
O       -0.83474081      -1.02326995       1.32609641
C       -1.53084379      -0.12438353       0.70562161
C       -0.73214754       0.76389449      -0.16260536
C        0.39673817      -0.73930381      -1.19838068
H        0.74871575       1.21501138       1.38953598
H        1.07124962       1.97191897      -0.19541119
H        2.45487329      -0.20911597      -0.28150779
H        0.79310697      -2.42458006       0.29618416
H       -1.57954990       1.19516636       0.98120155
H       -2.52741039      -0.39944490       0.32544237
H       -1.20599525       1.23812660      -1.01567196
H        0.31725461      -0.94921491      -2.25240589
15
Frame=11 idx=008446 GeodesicLength=0.4712405544568622 rxn_smarts="[C:1]1([H:8])([H:9])[C@@:2]2([H:10])[C@@:3]3([H:11])[O:4][C:5]([H:12])([H:13])[C@:6]1([H:14])[C@@:7]23[H:15]>>[C:1]([C:2]1([H:10])[C:3]([H:11])=[C:7]1[H:15])([C:6]([C:5](=[O:4])[H:13])([H:12])[H:14])([H:8])[H:9]"
C        0.68520839       1.08378536       0.30778890
C        1.37315736      -0.17465033      -0.19067637
C        0.56609800      -1.42386779      -0.02921911
O       -0.83295006      -1.02691541       1.32777111
C       -1.53350448      -0.12260607       0.71603871
C       -0.73226854       0.76265669      -0.16029827
C        0.39373229      -0.73216465      -1.19716134
H        0.75138212       1.21360652       1.39160374
H        1.07144175       1.97147039      -0.19449779
H        2.45466454      -0.21097258      -0.28065929
H        0.79455823      -2.42685341       0.28430340
H       -1.58319256       1.21349237       0.97024330
H       -2.52676341      -0.40552605       0.33204709
H       -1.20113758       1.21960406      -1.02537326
H        0.31957394      -0.94105910      -2.25191081
15
Frame=12 idx=008446 GeodesicLength=0.514125661925095 rxn_smarts="[C:1]1([H:8])([H:9])[C@@:2]2([H:10])[C@@:3]3([H:11])[O:4][C:5]([H:12])([H:13])[C@:6]1([H:14])[C@@:7]23[H:15]>>[C:1]([C:2]1([H:10])[C:3]([H:11])=[C:7]1[H:15])([C:6]([C:5](=[O:4])[H:13])([H:12])[H:14])([H:8])[H:9]"
C        0.68536083       1.08406546       0.30990502
C        1.37339851      -0.17559075      -0.18802451
C        0.56145562      -1.42321906      -0.02801827
O       -0.83122335      -1.03065305       1.32932073
C       -1.53610202      -0.12081782       0.72648502
C       -0.73240962       0.76136778      -0.15808725
C        0.39083299      -0.72510297      -1.19593900
H        0.75397669       1.21217975       1.39363618
H        1.07160525       1.97099716      -0.19359819
H        2.45446272      -0.21280163      -0.27976731
H        0.79598963      -2.42900955       0.27233738
H       -1.58682750       1.23174915       0.95873218
H       -2.52613020      -0.41141366       0.33893163
H       -1.19636389       1.20121433      -1.03452780
H        0.32197436      -0.93296514      -2.25138581
15
Frame=13 idx=008446 GeodesicLength=0.5570266388386873 rxn_smarts="[C:1]1([H:8])([H:9])[C@@:2]2([H:10])[C@@:3]3([H:11])[O:4][C:5]([H:12])([H:13])[C@:6]1([H:14])[C@@:7]23[H:15]>>[C:1]([C:2]1([H:10])[C:3]([H:11])=[C:7]1[H:15])([C:6]([C:5](=[O:4])[H:13])([H:12])[H:14])([H:8])[H:9]"
C        0.68547935       1.08431689       0.31199634
C        1.37364675      -0.17654571      -0.18538389
C        0.55688867      -1.42261368      -0.02680540
O       -0.82956346      -1.03448584       1.33074255
C       -1.53863484      -0.11903022       0.73695090
C       -0.73256770       0.76002742      -0.15596771
C        0.38803815      -0.71812022      -1.19471489
H        0.75650191       1.21072612       1.39563865
H        1.07174301       1.97050108      -0.19270435
H        2.45427184      -0.21459992      -0.27883994
H        0.79741334      -2.43104127       0.26030641
H       -1.59044912       1.24992310       0.94666463
H       -2.52552220      -0.41710133       0.34608754
H       -1.19168399       1.18298579      -1.04314045
H        0.32443829      -0.92494222      -2.25083038
15
Frame=14 idx=008446 GeodesicLength=0.5999328108966661 rxn_smarts="[C:1]1([H:8])([H:9])[C@@:2]2([H:10])[C@@:3]3([H:11])[O:4][C:5]([H:12])([H:13])[C@:6]1([H:14])[C@@:7]23[H:15]>>[C:1]([C:2]1([H:10])[C:3]([H:11])=[C:7]1[H:15])([C:6]([C:5](=[O:4])[H:13])([H:12])[H:14])([H:8])[H:9]"
C        0.68556559       1.08453940       0.31406616
C        1.37390380      -0.17751235      -0.18275725
C        0.55240166      -1.42205117      -0.02557992
O       -0.82797461      -1.03841834       1.33203285
C       -1.54110356      -0.11725243       0.74742687
C       -0.73274116       0.75863590      -0.15393389
C        0.38534545      -0.71121556      -1.19348820
H        0.75896026       1.20924093       1.39761515
H        1.07185548       1.96998443      -0.19181023
H        2.45409329      -0.21636112      -0.27788664
H        0.79883808      -2.43294195       0.24823074
H       -1.59404171       1.26799050       0.93405419
H       -2.52495202      -0.42257866       0.35350307
H       -1.18709979       1.16493953      -1.05123134
H        0.32694924      -0.91699912      -2.25024156
15
Frame=15 idx=008446 GeodesicLength=0.6428376706308626 rxn_smarts="[C:1]1([H:8])([H:9])[C@@:2]2([H:10])[C@@:3]3([H:11])[O:4][C:5]([H:12])([H:13])[C@:6]1([H:14])[C@@:7]23[H:15]>>[C:1]([C:2]1([H:10])[C:3]([H:11])=[C:7]1[H:15])([C:6]([C:5](=[O:4])[H:13])([H:12])[H:14])([H:8])[H:9]"
C        0.68562093       1.08473281       0.31611889
C        1.37417122      -0.17848920      -0.18014793
C        0.54799845      -1.42153206      -0.02434317
O       -0.82646059      -1.04245251       1.33318806
C       -1.54350930      -0.11549261       0.75790427
C       -0.73292963       0.75719581      -0.15197884
C        0.38275115      -0.70438866      -1.19225944
H        0.76135469       1.20771970       1.39957109
H        1.07194303       1.96944912      -0.19090799
H        2.45392892      -0.21808218      -0.27691715
H        0.80027783      -2.43470489       0.23613167
H       -1.59759140       1.28593467       0.92091617
H       -2.52443092      -0.42783799       0.36116251
H       -1.18261490       1.14709327      -1.05881962
H        0.32949051      -0.90914528      -2.24961852
15
Frame=16 idx=008446 GeodesicLength=0.6857314650113036 rxn_smarts="[C:1]1([H:8])([H:9])[C@@:2]2([H:10])[C@@:3]3([H:11])[O:4][C:5]([H:12])([H:13])[C@:6]1([H:14])[C@@:7]23[H:15]>>[C:1]([C:2]1([H:10])[C:3]([H:11])=[C:7]1[H:15])([C:6]([C:5](=[O:4])[H:13])([H:12])[H:14])([H:8])[H:9]"
C        0.68564303       1.08489424       0.31815156
C        1.37444642      -0.17947529      -0.17755096
C        0.54367539      -1.42105160      -0.02309577
O       -0.82501967      -1.04658595       1.33421470
C       -1.54584611      -0.11375319       0.76839206
C       -0.73313137       0.75569934      -0.15009759
C        0.38025901      -0.69763278      -1.19102595
H        0.76368174       1.20616199       1.40150072
H        1.07200136       1.96888792      -0.19000641
H        2.45377424      -0.21976094      -0.27592376
H        0.80171037      -2.43632989       0.22399339
H       -1.60108802       1.30374031       0.90724767
H       -2.52396634      -0.43287041       0.36909451
H       -1.17822632       1.12942890      -1.06593234
H        0.33208627      -0.90135265      -2.24896181
