13
Frame=0 idx=009826 GeodesicLength=0.0 rxn_smarts="[C:1]1([H:8])([H:9])[O:2][C@@:3]2([H:10])[C@@:4]3([H:11])[O:5][C@:6]1([H:12])[C@@:7]23[H:13]>>[C:1]1([H:8])([H:9])[O:2][C@@:3]2([H:10])[O:5][C@:6]1([H:12])[C@@:7]2([C:4][H:11])[H:13]"
C        0.72440333       0.78207358       1.11239127
O        1.00633526      -0.65563966       1.20657841
C        0.41595323      -1.18777857       0.18611972
C       -1.31042643      -0.79633246      -1.17702536
O       -1.31082752      -0.21079054       0.35347225
C       -0.29874970       0.75461652      -0.00613745
C        0.13997191      -0.30854094      -0.99715339
H        1.63944385       1.31822285       0.86231002
H        0.34677840       1.08024297       2.08896430
H        0.29775779      -2.26752129       0.19324224
H       -1.85985355       0.00102802      -1.70632753
H       -0.69800194       1.70966845      -0.34720060
H        0.90721535      -0.21924899      -1.76923389
13
Frame=1 idx=009826 GeodesicLength=0.07110681855127426 rxn_smarts="[C:1]1([H:8])([H:9])[O:2][C@@:3]2([H:10])[C@@:4]3([H:11])[O:5][C@:6]1([H:12])[C@@:7]23[H:13]>>[C:1]1([H:8])([H:9])[O:2][C@@:3]2([H:10])[O:5][C@:6]1([H:12])[C@@:7]2([C:4][H:11])[H:13]"
C        0.72713835       0.77963039       1.11210663
O        0.99812502      -0.65786741       1.20570056
C        0.39436261      -1.18730903       0.18420088
C       -1.28956259      -0.80104585      -1.18451576
O       -1.30975664      -0.20091678       0.35582194
C       -0.29646836       0.76251519      -0.00633669
C        0.14752330      -0.29757983      -1.00083845
H        1.64598687       1.31018716       0.86288529
H        0.34925559       1.08348945       2.08695477
H        0.29301980      -2.26849583       0.18586637
H       -1.89086523      -0.03326306      -1.69653586
H       -0.69322811       1.71980958      -0.34327925
H        0.92446938      -0.20915398      -1.76203044
13
Frame=2 idx=009826 GeodesicLength=0.1421472044273997 rxn_smarts="[C:1]1([H:8])([H:9])[O:2][C@@:3]2([H:10])[C@@:4]3([H:11])[O:5][C@:6]1([H:12])[C@@:7]23[H:13]>>[C:1]1([H:8])([H:9])[O:2][C@@:3]2([H:10])[O:5][C@:6]1([H:12])[C@@:7]2([C:4][H:11])[H:13]"
C        0.72983493       0.77708494       1.11187526
O        0.98972233      -0.66015746       1.20464024
C        0.37273814      -1.18649527       0.18185187
C       -1.26888765      -0.80447391      -1.19256832
O       -1.30878632      -0.19066871       0.35796554
C       -0.29402604       0.77058474      -0.00657970
C        0.15510952      -0.28656982      -1.00449416
H        1.65253197       1.30197254       0.86368815
H        0.35173582       1.08651151       2.08501749
H        0.28791885      -2.26885714       0.17818608
H       -1.92169083      -0.07008702      -1.68573098
H       -0.68794561       1.73028070      -0.33928465
H        0.94174489      -0.19912509      -1.75456680
13
Frame=3 idx=009826 GeodesicLength=0.2131581066449268 rxn_smarts="[C:1]1([H:8])([H:9])[O:2][C@@:3]2([H:10])[C@@:4]3([H:11])[O:5][C@:6]1([H:12])[C@@:7]23[H:13]>>[C:1]1([H:8])([H:9])[O:2][C@@:3]2([H:10])[O:5][C@:6]1([H:12])[C@@:7]2([C:4][H:11])[H:13]"
C        0.73249680       0.77443169       1.11170270
O        0.98105956      -0.66252712       1.20339771
C        0.35103494      -1.18530806       0.17903077
C       -1.24839017      -0.80655273      -1.20124854
O       -1.30791737      -0.17997813       0.35987309
C       -0.29140113       0.77887515      -0.00687297
C        0.16275986      -0.27544270      -1.00814637
H        1.65911504       1.29352313       0.86474746
H        0.35422350       1.08931774       2.08315741
H        0.28234089      -2.26858804       0.17014225
H       -1.95230363      -0.10978201      -1.67372618
H       -0.68210608       1.74114103      -0.33521445
H        0.95908778      -0.18910996      -1.74684288
13
Frame=4 idx=009826 GeodesicLength=0.2840754858141571 rxn_smarts="[C:1]1([H:8])([H:9])[O:2][C@@:3]2([H:10])[C@@:4]3([H:11])[O:5][C@:6]1([H:12])[C@@:7]23[H:13]>>[C:1]1([H:8])([H:9])[O:2][C@@:3]2([H:10])[O:5][C@:6]1([H:12])[C@@:7]2([C:4][H:11])[H:13]"
C        0.73511684       0.77166105       1.11158624
O        0.97210421      -0.66498395       1.20193488
C        0.32921130      -1.18372528       0.17568834
C       -1.22808602      -0.80720381      -1.21064309
O       -1.30714273      -0.16881044       0.36151644
C       -0.28857355       0.78741401      -0.00722844
C        0.17049689      -0.26415667      -1.01181950
H        1.66572244       1.28484330       0.86608159
H        0.35668999       1.09189975       2.08136200
H        0.27613914      -2.26767769       0.16170085
H       -1.98252014      -0.15257815      -1.66023456
H       -0.67567703       1.75241677      -0.33107253
H        0.97651866      -0.17909890      -1.73887224
13
Frame=5 idx=009826 GeodesicLength=0.3549412482354817 rxn_smarts="[C:1]1([H:8])([H:9])[O:2][C@@:3]2([H:10])[C@@:4]3([H:11])[O:5][C@:6]1([H:12])[C@@:7]23[H:13]>>[C:1]1([H:8])([H:9])[O:2][C@@:3]2([H:10])[O:5][C@:6]1([H:12])[C@@:7]2([C:4][H:11])[H:13]"
C        0.73772201       0.76876348       1.11153679
O        0.96278659      -0.66755056       1.20023124
C        0.30716587      -1.18168610       0.17178331
C       -1.20803874      -0.80631097      -1.22071501
O       -1.30650003      -0.15700787       0.36290922
C       -0.28552533       0.79629348      -0.00761939
C        0.17829189      -0.25260979      -1.01552088
H        1.67242709       1.27583529       0.86770939
H        0.35921835       1.09422899       2.07967456
H        0.26917953      -2.26608558       0.15277091
H       -2.01211414      -0.19908787      -1.64531001
H       -0.66860844       1.76422148      -0.32678400
H        0.99399534      -0.16900400      -1.73066613
13
Frame=6 idx=009826 GeodesicLength=0.42568151499124574 rxn_smarts="[C:1]1([H:8])([H:9])[O:2][C@@:3]2([H:10])[C@@:4]3([H:11])[O:5][C@:6]1([H:12])[C@@:7]23[H:13]>>[C:1]1([H:8])([H:9])[O:2][C@@:3]2([H:10])[O:5][C@:6]1([H:12])[C@@:7]2([C:4][H:11])[H:13]"
C        0.74030244       0.76572419       1.11155273
O        0.95304386      -0.67024560       1.19824605
C        0.28482560      -1.17915551       0.16725283
C       -1.18830230      -0.80376301      -1.23155149
O       -1.30600236      -0.14449702       0.36402391
C       -0.28223944       0.80556195      -0.00805734
C        0.18614382      -0.24075046      -1.01928402
H        1.67922411       1.26647395       0.86964802
H        0.36178760       1.09630003       2.07809072
H        0.26130376      -2.26379807       0.14328329
H       -2.04075190      -0.24965262      -1.62861128
H       -0.66085490       1.77661329      -0.32234690
H        1.01151970      -0.15881111      -1.72224650
13
Frame=7 idx=009826 GeodesicLength=0.49619362760694136 rxn_smarts="[C:1]1([H:8])([H:9])[O:2][C@@:3]2([H:10])[C@@:4]3([H:11])[O:5][C@:6]1([H:12])[C@@:7]23[H:13]>>[C:1]1([H:8])([H:9])[O:2][C@@:3]2([H:10])[O:5][C@:6]1([H:12])[C@@:7]2([C:4][H:11])[H:13]"
C        0.74289111       0.76253369       1.11162821
O        0.94283683      -0.67307638       1.19592989
C        0.26205510      -1.17607177       0.16208268
C       -1.16906347      -0.79946715      -1.24302790
O       -1.30571821      -0.13113637       0.36493195
C       -0.27873289       0.81528709      -0.00848143
C        0.19393788      -0.22852000      -1.02308950
H        1.68615445       1.25669379       0.87184175
H        0.36453347       1.09808092       2.07665350
H        0.25237766      -2.26077395       0.13316410
H       -2.06775123      -0.30474796      -1.61034580
H       -0.65242423       1.78967262      -0.31762435
H        1.02890354      -0.14847453      -1.71366311
13
Frame=8 idx=009826 GeodesicLength=0.5665701335344668 rxn_smarts="[C:1]1([H:8])([H:9])[O:2][C@@:3]2([H:10])[C@@:4]3([H:11])[O:5][C@:6]1([H:12])[C@@:7]23[H:13]>>[C:1]1([H:8])([H:9])[O:2][C@@:3]2([H:10])[O:5][C@:6]1([H:12])[C@@:7]2([C:4][H:11])[H:13]"
C        0.74541923       0.75915020       1.11176908
O        0.93197002      -0.67608952       1.19322094
C        0.23877328      -1.17236181       0.15608929
C       -1.15026021      -0.79315837      -1.25548773
O       -1.30561384      -0.11680512       0.36545354
C       -0.27491455       0.82556097      -0.00899222
C        0.20177547      -0.21580181      -1.02705036
H        1.69319841       1.24641407       0.87445130
H        0.36725181       1.09955785       2.07530433
H        0.24211062      -2.25696298       0.12224801
H       -2.09296959      -0.36504174      -1.58934882
H       -0.64309206       1.80351429      -0.31275926
H        1.04635140      -0.13797605      -1.70489811
13
Frame=9 idx=009826 GeodesicLength=0.6367959717731589 rxn_smarts="[C:1]1([H:8])([H:9])[O:2][C@@:3]2([H:10])[C@@:4]3([H:11])[O:5][C@:6]1([H:12])[C@@:7]23[H:13]>>[C:1]1([H:8])([H:9])[O:2][C@@:3]2([H:10])[O:5][C@:6]1([H:12])[C@@:7]2([C:4][H:11])[H:13]"
C        0.74798758       0.75556003       1.11196665
O        0.92035685      -0.67930531       1.19009030
C        0.21471854      -1.16789868       0.14931276
C       -1.13224574      -0.78462993      -1.26860250
O       -1.30586846      -0.10121035       0.36574550
C       -0.27084268       0.83652752      -0.00942506
C        0.20941224      -0.20246380      -1.03109389
H        1.70051190       1.23542138       0.87730917
H        0.37031719       1.10069462       2.07415644
H        0.23032005      -2.25226135       0.11041481
H       -2.11529551      -0.43155395      -1.56641428
H       -0.63286631       1.81833306      -0.30743331
H        1.06349435      -0.12721325      -1.69602658
13
Frame=10 idx=009826 GeodesicLength=0.7067802326842405 rxn_smarts="[C:1]1([H:8])([H:9])[O:2][C@@:3]2([H:10])[C@@:4]3([H:11])[O:5][C@:6]1([H:12])[C@@:7]23[H:13]>>[C:1]1([H:8])([H:9])[O:2][C@@:3]2([H:10])[O:5][C@:6]1([H:12])[C@@:7]2([C:4][H:11])[H:13]"
C        0.75045635       0.75170256       1.11219621
O        0.90782609      -0.68276270       1.18639831
C        0.18981023      -1.16264021       0.14153203
C       -1.11512690      -0.77369514      -1.28271491
O       -1.30643609      -0.08430448       0.36567784
C       -0.26645947       0.84821530      -0.00992205
C        0.21684239      -0.18849424      -1.03537273
H        1.70793640       1.22372431       0.88055430
H        0.37339028       1.10144363       2.07310086
H        0.21672415      -2.24665572       0.09752910
H       -2.13377137      -0.50441346      -1.54002318
H       -0.62158003       1.83415608      -0.30184684
H        1.08038796      -0.11627593      -1.68710894
13
Frame=11 idx=009826 GeodesicLength=0.7765820898396947 rxn_smarts="[C:1]1([H:8])([H:9])[O:2][C@@:3]2([H:10])[C@@:4]3([H:11])[O:5][C@:6]1([H:12])[C@@:7]23[H:13]>>[C:1]1([H:8])([H:9])[O:2][C@@:3]2([H:10])[O:5][C@:6]1([H:12])[C@@:7]2([C:4][H:11])[H:13]"
C        0.75295426       0.74756869       1.11238803
O        0.89430156      -0.68645951       1.18211555
C        0.16373522      -1.15645454       0.13288771
C       -1.09944917      -0.76020480      -1.29725302
O       -1.30755205      -0.06586270       0.36553605
C       -0.26191066       0.86072467      -0.01022251
C        0.22365054      -0.17380006      -1.03974525
H        1.71561826       1.21109083       0.88380359
H        0.37702174       1.10179916       2.07221818
H        0.20108932      -2.24003704       0.08357578
H       -2.14654154      -0.58437736      -1.51150644
H       -0.60932591       1.85113238      -0.29554145
H        1.09640843      -0.10511971      -1.67825622
13
Frame=12 idx=009826 GeodesicLength=0.8461059127202577 rxn_smarts="[C:1]1([H:8])([H:9])[O:2][C@@:3]2([H:10])[C@@:4]3([H:11])[O:5][C@:6]1([H:12])[C@@:7]23[H:13]>>[C:1]1([H:8])([H:9])[O:2][C@@:3]2([H:10])[O:5][C@:6]1([H:12])[C@@:7]2([C:4][H:11])[H:13]"
C        0.75537361       0.74313678       1.11248878
O        0.87982266      -0.69036791       1.17721647
C        0.13649162      -1.14937264       0.12339440
C       -1.08564819      -0.74440474      -1.31214132
O       -1.30928900      -0.04597336       0.36547362
C       -0.25734435       0.87394149      -0.01038386
C        0.22954562      -0.15859794      -1.04432312
H        1.72341259       1.19751523       0.88695850
H        0.38104875       1.10174658       2.07148048
H        0.18351549      -2.23245839       0.06863871
H       -2.15186605      -0.67027156      -1.48047978
H       -0.59628844       1.86910856      -0.28863924
H        1.11122569      -0.09400211      -1.66968362
13
Frame=13 idx=009826 GeodesicLength=0.9156781271012802 rxn_smarts="[C:1]1([H:8])([H:9])[O:2][C@@:3]2([H:10])[C@@:4]3([H:11])[O:5][C@:6]1([H:12])[C@@:7]23[H:13]>>[C:1]1([H:8])([H:9])[O:2][C@@:3]2([H:10])[O:5][C@:6]1([H:12])[C@@:7]2([C:4][H:11])[H:13]"
C        0.75761050       0.73838199       1.11232897
O        0.86441888      -0.69441924       1.17162429
C        0.10809724      -1.14149699       0.11317970
C       -1.07410382      -0.72687068      -1.32693818
O       -1.31164234      -0.02506867       0.36577703
C       -0.25294992       0.88759068      -0.01035128
C        0.23416326      -0.14314418      -1.04903807
H        1.73106704       1.18315693       0.88965636
H        0.38542885       1.10135509       2.07064216
H        0.16413548      -2.22402142       0.05295489
H       -2.14791141      -0.76006137      -1.44729580
H       -0.58265923       1.88772399      -0.28107807
H        1.12434548      -0.08312611      -1.66146201
13
Frame=14 idx=009826 GeodesicLength=0.985416219138385 rxn_smarts="[C:1]1([H:8])([H:9])[O:2][C@@:3]2([H:10])[C@@:4]3([H:11])[O:5][C@:6]1([H:12])[C@@:7]23[H:13]>>[C:1]1([H:8])([H:9])[O:2][C@@:3]2([H:10])[O:5][C@:6]1([H:12])[C@@:7]2([C:4][H:11])[H:13]"
C        0.75975342       0.73344475       1.11174844
O        0.84871029      -0.69842999       1.16561918
C        0.07893874      -1.13314069       0.10291392
C       -1.06519453      -0.70885994      -1.34059716
O       -1.31467931      -0.00394503       0.36715426
C       -0.24923374       0.90118256      -0.00987126
C        0.23702190      -0.12799761      -1.05365680
H        1.73845492       1.16828996       0.89113199
H        0.39065397       1.10085644       2.06969803
H        0.14373650      -2.21507275       0.03743801
H       -2.13377977      -0.84974712      -1.41509386
H       -0.56938995       1.90634505      -0.27268546
H        1.13500755      -0.07292563      -1.65379930
13
Frame=15 idx=009826 GeodesicLength=1.0554163335295417 rxn_smarts="[C:1]1([H:8])([H:9])[O:2][C@@:3]2([H:10])[C@@:4]3([H:11])[O:5][C@:6]1([H:12])[C@@:7]23[H:13]>>[C:1]1([H:8])([H:9])[O:2][C@@:3]2([H:10])[O:5][C@:6]1([H:12])[C@@:7]2([C:4][H:11])[H:13]"
C        0.76169154       0.72847028       1.11064940
O        0.83335091      -0.70218445       1.15942936
C        0.04972043      -1.12476591       0.09306162
C       -1.05862326      -0.69207368      -1.35266782
O       -1.31815849       0.01629114       0.36996632
C       -0.24646581       0.91406336      -0.00903046
C        0.23812660      -0.11384420      -1.05810086
H        1.74523503       1.15354733       0.89112686
H        0.39642300       1.10040944       2.06847669
H        0.12347339      -2.20606668       0.02285712
H       -2.11073343      -0.93411595      -1.38525144
H       -0.55722901       1.92407547      -0.26378732
H        1.14318910      -0.06380616      -1.64672948
13
Frame=16 idx=009826 GeodesicLength=1.1255933785566417 rxn_smarts="[C:1]1([H:8])([H:9])[O:2][C@@:3]2([H:10])[C@@:4]3([H:11])[O:5][C@:6]1([H:12])[C@@:7]23[H:13]>>[C:1]1([H:8])([H:9])[O:2][C@@:3]2([H:10])[O:5][C@:6]1([H:12])[C@@:7]2([C:4][H:11])[H:13]"
C        0.76351120       0.72359370       1.10898193
O        0.81888411      -0.70554195       1.15332495
C        0.02101204      -1.11668728       0.08409640
C       -1.05379961      -0.67750335      -1.36270062
O       -1.32183526       0.03487434       0.37445030
C       -0.24480067       0.92584332      -0.00774543
C        0.23770185      -0.10099959      -1.06211911
H        1.75130536       1.13935210       0.88935136
H        0.40288187       1.10020912       2.06687612
H        0.10400138      -2.19732559       0.00998533
H       -2.08117049      -1.01034621      -1.35989805
H       -0.54670717       1.94037596      -0.25445929
H        1.14901539      -0.05584458      -1.64014388
