12
Frame=0 idx=000201 GeodesicLength=0.0 rxn_smarts="[O:1]([C:2]([C@@:3]([O:4][H:11])([C:5]#[C:6][H:12])[H:10])([H:8])[H:9])[H:7]>>[O:1](/[C:6](=[C:5]1\[C:2]([H:8])([H:9])[C@:3]1([O:4][H:11])[H:10])[H:12])[H:7]"
O        0.06827415      -1.36264403      -1.00905529
C       -0.94757746       0.31538956      -0.55066790
C       -0.05227488       1.07718043       0.27497830
O       -0.60805290       1.36459218       1.53425851
C        1.18945600       0.15348896       0.45537899
C        1.15663819      -1.01653408      -0.12772806
H       -0.31155766      -2.21199242      -0.74546823
H       -1.76440785      -0.22075338      -0.08297852
H       -1.02659370       0.51239261      -1.61003075
H        0.28930736       1.98214641      -0.23668069
H        0.10947041       1.21100952       2.16006732
H        1.89731831      -1.80427581      -0.06207372
12
Frame=1 idx=000201 GeodesicLength=0.10304125540901268 rxn_smarts="[O:1]([C:2]([C@@:3]([O:4][H:11])([C:5]#[C:6][H:12])[H:10])([H:8])[H:9])[H:7]>>[O:1](/[C:6](=[C:5]1\[C:2]([H:8])([H:9])[C@:3]1([O:4][H:11])[H:10])[H:12])[H:7]"
O        0.05582618      -1.38870242      -1.00331436
C       -0.93337855       0.31169439      -0.56616539
C       -0.05646788       1.08466958       0.27532413
O       -0.60713324       1.32674594       1.54614708
C        1.18881187       0.17172622       0.40195916
C        1.18002100      -1.01717796      -0.13334175
H       -0.35132483      -2.20651449      -0.68748286
H       -1.77699504      -0.19289051      -0.11027568
H       -1.00488548       0.52125009      -1.62408463
H        0.26220832       2.00795164      -0.21763359
H        0.11809627       1.17849911       2.16379500
H        1.92522139      -1.79725160      -0.04492712
12
Frame=2 idx=000201 GeodesicLength=0.20609511755793858 rxn_smarts="[O:1]([C:2]([C@@:3]([O:4][H:11])([C:5]#[C:6][H:12])[H:10])([H:8])[H:9])[H:7]>>[O:1](/[C:6](=[C:5]1\[C:2]([H:8])([H:9])[C@:3]1([O:4][H:11])[H:10])[H:12])[H:7]"
O        0.04166008      -1.41534830      -0.99473987
C       -0.91997465       0.30819845      -0.58171094
C       -0.06070732       1.09079464       0.27590023
O       -0.60561981       1.28876480       1.55662874
C        1.18540633       0.18741423       0.35005712
C        1.20302276      -1.01769905      -0.13801121
H       -0.39050483      -2.19786975      -0.62809536
H       -1.78993715      -0.16318828      -0.13907164
H       -0.98252000       0.52949391      -1.63825826
H        0.23659004       2.03064677      -0.19824981
H        0.12647888       1.14547814       2.16678546
H        1.95610569      -1.78668555      -0.03123446
12
Frame=3 idx=000201 GeodesicLength=0.3091782039033387 rxn_smarts="[O:1]([C:2]([C@@:3]([O:4][H:11])([C:5]#[C:6][H:12])[H:10])([H:8])[H:9])[H:7]>>[O:1](/[C:6](=[C:5]1\[C:2]([H:8])([H:9])[C@:3]1([O:4][H:11])[H:10])[H:12])[H:7]"
O        0.02606202      -1.44223962      -0.98372750
C       -0.90743327       0.30468348      -0.59698807
C       -0.06483857       1.09549708       0.27673982
O       -0.60390593       1.25144370       1.56556694
C        1.17926451       0.20013693       0.30062209
C        1.22559001      -1.01823289      -0.14151267
H       -0.42894950      -2.18612300      -0.56858682
H       -1.80272939      -0.13225494      -0.16869836
H       -0.96000447       0.53709010      -1.65215873
H        0.21306241       2.05000949      -0.17895566
H        0.13405939       1.11298699       2.16921905
H        1.98982279      -1.77299733      -0.02152007
12
Frame=4 idx=000201 GeodesicLength=0.41227968632767387 rxn_smarts="[O:1]([C:2]([C@@:3]([O:4][H:11])([C:5]#[C:6][H:12])[H:10])([H:8])[H:9])[H:7]>>[O:1](/[C:6](=[C:5]1\[C:2]([H:8])([H:9])[C@:3]1([O:4][H:11])[H:10])[H:12])[H:7]"
O        0.00930933      -1.46911282      -0.97072308
C       -0.89576881       0.30095569      -0.61173907
C       -0.06872710       1.09880947       0.27784490
O       -0.60232314       1.21544720       1.57296063
C        1.17060215       0.20970761       0.25430171
C        1.24769073      -1.01891401      -0.14359457
H       -0.46657129      -2.17155015      -0.51019997
H       -1.81493811      -0.10067757      -0.19852412
H       -0.93778988       0.54403019      -1.66546143
H        0.19202377       2.06605432      -0.16014725
H        0.14040670       1.08188189       2.17132785
H        2.02608566      -1.75663183      -0.01604560
12
Frame=5 idx=000201 GeodesicLength=0.5152790958296738 rxn_smarts="[O:1]([C:2]([C@@:3]([O:4][H:11])([C:5]#[C:6][H:12])[H:10])([H:8])[H:9])[H:7]>>[O:1](/[C:6](=[C:5]1\[C:2]([H:8])([H:9])[C@:3]1([O:4][H:11])[H:10])[H:12])[H:7]"
O       -0.00840165      -1.49581038      -0.95611178
C       -0.88494313       0.29686942      -0.62580188
C       -0.07227273       1.10081202       0.27919679
O       -0.60111615       1.18118381       1.57892326
C        1.15976171       0.21612527       0.21141425
C        1.26936574      -1.01976008      -0.14422147
H       -0.50329586      -2.15454934      -0.45380867
H       -1.82625713      -0.06889560      -0.22808438
H       -0.91616733       0.55032770      -1.67795483
H        0.17364371       2.07897255      -0.14211541
H        0.14523867       1.05270923       2.17335546
H        2.06444416      -1.73798459      -0.01479135
12
Frame=6 idx=000201 GeodesicLength=0.618268840543718 rxn_smarts="[O:1]([C:2]([C@@:3]([O:4][H:11])([C:5]#[C:6][H:12])[H:10])([H:8])[H:9])[H:7]>>[O:1](/[C:6](=[C:5]1\[C:2]([H:8])([H:9])[C@:3]1([O:4][H:11])[H:10])[H:12])[H:7]"
O       -0.02689591      -1.52223891      -0.94024176
C       -0.87490321       0.29232851      -0.63908034
C       -0.07540494       1.10161978       0.28076275
O       -0.60043046       1.14891174       1.58360225
C        1.14707111       0.21950738       0.17201366
C        1.29072018      -1.02079796      -0.14322923
H       -0.53922608      -2.13557262      -0.40012526
H       -1.83646532      -0.03728687      -0.25702027
H       -0.89534016       0.55601152      -1.68950437
H        0.15795211       2.08904455      -0.12504394
H        0.14842320       1.02580475       2.17549001
H        2.10449948      -1.71733187      -0.01762350
12
Frame=7 idx=000201 GeodesicLength=0.7212545075016784 rxn_smarts="[O:1]([C:2]([C@@:3]([O:4][H:11])([C:5]#[C:6][H:12])[H:10])([H:8])[H:9])[H:7]>>[O:1](/[C:6](=[C:5]1\[C:2]([H:8])([H:9])[C@:3]1([O:4][H:11])[H:10])[H:12])[H:7]"
O       -0.04607865      -1.54836436      -0.92338016
C       -0.86558266       0.28727528      -0.65155177
C       -0.07807851       1.10134365       0.28250607
O       -0.60031804       1.11866918       1.58718100
C        1.13286682       0.22006305       0.13595153
C        1.31192638      -1.02193736      -0.14070197
H       -0.57443111      -2.11506000      -0.34951060
H       -1.84544941      -0.00608408      -0.28512988
H       -0.87538865       0.56111605      -1.70006384
H        0.14484637       2.09658936      -0.10900792
H        0.14996191       1.00125876       2.17787459
H        2.14572556      -1.69486953      -0.02416703
12
Frame=8 idx=000201 GeodesicLength=0.8242580556071072 rxn_smarts="[O:1]([C:2]([C@@:3]([O:4][H:11])([C:5]#[C:6][H:12])[H:10])([H:8])[H:9])[H:7]>>[O:1](/[C:6](=[C:5]1\[C:2]([H:8])([H:9])[C@:3]1([O:4][H:11])[H:10])[H:12])[H:7]"
O       -0.06595901      -1.57422811      -0.90561765
C       -0.85690080       0.28168580      -0.66326316
C       -0.08026153       1.10007441       0.28440490
O       -0.60084027       1.09038505       1.58983861
C        1.11744732       0.21798997       0.10307156
C        1.33315878      -1.02307146      -0.13674376
H       -0.60905573      -2.09338966      -0.30194623
H       -1.85319438       0.02462983      -0.31239459
H       -0.85621599       0.56564745      -1.70968848
H        0.13422361       2.10189908      -0.09400327
H        0.14983703       0.97902093       2.18065565
H        2.18776096      -1.67064329      -0.03431359
12
Frame=9 idx=000201 GeodesicLength=0.9269897872906752 rxn_smarts="[O:1]([C:2]([C@@:3]([O:4][H:11])([C:5]#[C:6][H:12])[H:10])([H:8])[H:9])[H:7]>>[O:1](/[C:6](=[C:5]1\[C:2]([H:8])([H:9])[C@:3]1([O:4][H:11])[H:10])[H:12])[H:7]"
O       -0.08642018      -1.59963116      -0.88754784
C       -0.84894475       0.27559194      -0.67424043
C       -0.08196862       1.09789091       0.28633169
O       -0.60157850       1.06359097       1.59178492
C        1.10116492       0.21376517       0.07250358
C        1.35478309      -1.02371707      -0.13258784
H       -0.64269753      -2.07084306      -0.25778388
H       -1.85969543       0.05465321      -0.33851094
H       -0.83826804       0.56983982      -1.71833921
H        0.12556015       2.10532640      -0.07998642
H        0.14874212       0.95869162       2.18368458
H        2.22932277      -1.64515875      -0.04530821
12
Frame=10 idx=000201 GeodesicLength=1.0297896223682397 rxn_smarts="[O:1]([C:2]([C@@:3]([O:4][H:11])([C:5]#[C:6][H:12])[H:10])([H:8])[H:9])[H:7]>>[O:1](/[C:6](=[C:5]1\[C:2]([H:8])([H:9])[C@:3]1([O:4][H:11])[H:10])[H:12])[H:7]"
O       -0.10764896      -1.62478767      -0.86887555
C       -0.84157707       0.26899572      -0.68458705
C       -0.08316733       1.09484181       0.28834026
O       -0.60278696       1.03831332       1.59310340
C        1.08410009       0.20736269       0.04445124
C        1.37686611      -1.02390772      -0.12788537
H       -0.67589103      -2.04769582      -0.21651550
H       -1.86502756       0.08411778      -0.36374252
H       -0.82106654       0.57357435      -1.72617373
H        0.11899904       2.10701781      -0.06685864
H        0.14631685       0.94028906       2.18716546
H        2.27088336      -1.61812132      -0.05842199
12
Frame=11 idx=000201 GeodesicLength=1.1325700098626852 rxn_smarts="[O:1]([C:2]([C@@:3]([O:4][H:11])([C:5]#[C:6][H:12])[H:10])([H:8])[H:9])[H:7]>>[O:1](/[C:6](=[C:5]1\[C:2]([H:8])([H:9])[C@:3]1([O:4][H:11])[H:10])[H:12])[H:7]"
O       -0.12972010      -1.64971031      -0.84965380
C       -0.83477119       0.26191895      -0.69436567
C       -0.08385913       1.09095708       0.29040566
O       -0.60439319       1.01432919       1.59389808
C        1.06640699       0.19894335       0.01864173
C        1.39953429      -1.02347501      -0.12302969
H       -0.70871022      -2.02413488      -0.17797847
H       -1.86923170       0.11306884      -0.38812478
H       -0.80453065       0.57687854      -1.73324690
H        0.11437638       2.10713584      -0.05453528
H        0.14269996       0.92363226       2.19109282
H        2.31219854      -1.58954385      -0.07310371
12
Frame=12 idx=000201 GeodesicLength=1.2353369776610341 rxn_smarts="[O:1]([C:2]([C@@:3]([O:4][H:11])([C:5]#[C:6][H:12])[H:10])([H:8])[H:9])[H:7]>>[O:1](/[C:6](=[C:5]1\[C:2]([H:8])([H:9])[C@:3]1([O:4][H:11])[H:10])[H:12])[H:7]"
O       -0.15272330      -1.67438802      -0.83002205
C       -0.82855135       0.25439353      -0.70363489
C       -0.08404011       1.08625793       0.29248899
O       -0.60623728       0.99138490       1.59426126
C        1.04819407       0.18867182      -0.00528105
C        1.42294526      -1.02219377      -0.11858075
H       -0.74123645      -2.00031060      -0.14209067
H       -1.87236983       0.14152085      -0.41162956
H       -0.78869409       0.57980635      -1.73960633
H        0.11152544       2.10582624      -0.04293212
H        0.13813575       0.90850316       2.19541179
H        2.35305188      -1.55947241      -0.08838463
12
Frame=13 idx=000201 GeodesicLength=1.3380640794911836 rxn_smarts="[O:1]([C:2]([C@@:3]([O:4][H:11])([C:5]#[C:6][H:12])[H:10])([H:8])[H:9])[H:7]>>[O:1](/[C:6](=[C:5]1\[C:2]([H:8])([H:9])[C@:3]1([O:4][H:11])[H:10])[H:12])[H:7]"
O       -0.17679204      -1.69892661      -0.80974502
C       -0.82279592       0.24639992      -0.71245420
C       -0.08369280       1.08074211       0.29463808
O       -0.60848314       0.96946196       1.59424931
C        1.02953378       0.17651239      -0.02716887
C        1.44708857      -1.02009522      -0.11430159
H       -0.77376083      -1.97635448      -0.10850534
H       -1.87444081       0.16960066      -0.43446955
H       -0.77315638       0.58223284      -1.74533934
H        0.11051918       2.10311885      -0.03197581
H        0.13238905       0.89491038       2.20024002
H        2.39359135      -1.52760279      -0.10516770
12
Frame=14 idx=000201 GeodesicLength=1.440770993704753 rxn_smarts="[O:1]([C:2]([C@@:3]([O:4][H:11])([C:5]#[C:6][H:12])[H:10])([H:8])[H:9])[H:7]>>[O:1](/[C:6](=[C:5]1\[C:2]([H:8])([H:9])[C@:3]1([O:4][H:11])[H:10])[H:12])[H:7]"
O       -0.20205446      -1.72330892      -0.78896764
C       -0.81754883       0.23796063      -0.72085998
C       -0.08280508       1.07440466       0.29682057
O       -0.61095962       0.94835061       1.59393049
C        1.01047475       0.16255010      -0.04732583
C        1.47208213      -1.01695869      -0.11074223
H       -0.80640454      -1.95237012      -0.07719362
H       -1.87549568       0.19732723      -0.45659540
H       -0.75797193       0.58418842      -1.75047090
H        0.11125044       2.09909170      -0.02160166
H        0.12569673       0.88268458       2.20550744
H        2.43373610      -1.49392021      -0.12250125
12
Frame=15 idx=000201 GeodesicLength=1.5434443435031961 rxn_smarts="[O:1]([C:2]([C@@:3]([O:4][H:11])([C:5]#[C:6][H:12])[H:10])([H:8])[H:9])[H:7]>>[O:1](/[C:6](=[C:5]1\[C:2]([H:8])([H:9])[C@:3]1([O:4][H:11])[H:10])[H:12])[H:7]"
O       -0.22866991      -1.74754603      -0.76777224
C       -0.81283150       0.22908406      -0.72887477
C       -0.08135098       1.06721989       0.29902167
O       -0.61355533       0.92791856       1.59335619
C        0.99103249       0.14677862      -0.06591801
C        1.49796534      -1.01265028      -0.10826263
H       -0.83936346      -1.92846571      -0.04811710
H       -1.87557060       0.22475032      -0.47798625
H       -0.74311520       0.58566237      -1.75501901
H        0.11370485       2.09376437      -0.01176856
H        0.11819728       0.87173045       2.21117293
H        2.47355703      -1.45824662      -0.13983222
12
Frame=16 idx=000201 GeodesicLength=1.646072172851768 rxn_smarts="[O:1]([C:2]([C@@:3]([O:4][H:11])([C:5]#[C:6][H:12])[H:10])([H:8])[H:9])[H:7]>>[O:1](/[C:6](=[C:5]1\[C:2]([H:8])([H:9])[C@:3]1([O:4][H:11])[H:10])[H:12])[H:7]"
O       -0.25682544      -1.77171044      -0.74603210
C       -0.80856927       0.21974041      -0.73651678
C       -0.07929382       1.05914021       0.30128438
O       -0.61634285       0.90814431       1.59256681
C        0.97121215       0.12907653      -0.08283065
C        1.52473471      -1.00713155      -0.10685512
H       -0.87294769      -1.90471420      -0.02109589
H       -1.87463121       0.25196651      -0.49877148
H       -0.72829189       0.58652414      -1.75901524
H        0.11799606       2.08708897      -0.00242170
H        0.10975347       0.86206897       2.21729557
H        2.51320578      -1.42019386      -0.15760780
