13
Frame=0 idx=008853 GeodesicLength=0.0 rxn_smarts="[N:1]#[C:2][C@@:3]1([H:8])[C@@:4]2([H:9])[C:5]([H:10])([H:11])[C:6]([H:12])([H:13])[N:7]12>>[N:1]#[C:2][C@:3]1([H:8])[C@@:4]2([H:9])[C@:5]1([H:11])[C:6]([H:12])([H:13])[N:7]2[H:10]"
N        2.20612785      -0.28997533       2.03150442
C        1.89966068      -0.11620881       0.92707733
C        1.46816681       0.11188252      -0.38102680
C        0.16363219      -0.31944942      -0.87548613
C       -1.00072417      -0.70142052      -0.01339129
C       -1.00081432       0.63399423       0.64316339
N       -0.74427815       0.86716612      -0.83991627
H        2.19798661       0.40836994      -1.11956486
H        0.17684960      -0.80086400      -1.85429053
H       -1.72017415      -0.10791259      -0.97437223
H       -1.54520737      -1.62504155       0.19529998
H       -1.94333515       1.04413958       0.99385261
H       -0.15789038       0.89531978       1.26715032
13
Frame=1 idx=008853 GeodesicLength=0.10546160774685429 rxn_smarts="[N:1]#[C:2][C@@:3]1([H:8])[C@@:4]2([H:9])[C:5]([H:10])([H:11])[C:6]([H:12])([H:13])[N:7]12>>[N:1]#[C:2][C@:3]1([H:8])[C@@:4]2([H:9])[C@:5]1([H:11])[C:6]([H:12])([H:13])[N:7]2[H:10]"
N        2.20128598      -0.28335059       2.03359740
C        1.88332522      -0.10568747       0.93388609
C        1.44466555       0.10311041      -0.37673393
C        0.15363352      -0.31696110      -0.90569293
C       -0.98228555      -0.70316558      -0.01309533
C       -0.99497986       0.63414578       0.64250546
N       -0.72615827       0.88401330      -0.83284869
H        2.19328853       0.36093077      -1.11275938
H        0.16588988      -0.78499870      -1.88971782
H       -1.72359081      -0.09034046      -0.97303615
H       -1.49545453      -1.63793712       0.21875041
H       -1.94570751       1.03259949       0.98542733
H       -0.17391215       0.90764126       1.28971753
13
Frame=2 idx=008853 GeodesicLength=0.2109675892624347 rxn_smarts="[N:1]#[C:2][C@@:3]1([H:8])[C@@:4]2([H:9])[C:5]([H:10])([H:11])[C:6]([H:12])([H:13])[N:7]12>>[N:1]#[C:2][C@:3]1([H:8])[C@@:4]2([H:9])[C@:5]1([H:11])[C:6]([H:12])([H:13])[N:7]2[H:10]"
N        2.19733658      -0.27422184       2.03541993
C        1.86725546      -0.09443165       0.94045991
C        1.42124168       0.09200144      -0.37282105
C        0.14308214      -0.31388834      -0.93528232
C       -0.96418415      -0.70497786      -0.01351217
C       -0.98919390       0.63381568       0.64208600
N       -0.70684986       0.90103378      -0.82500662
H        2.18719808       0.31139341      -1.10532515
H        0.15427745      -0.76806386      -1.92461570
H       -1.72689586      -0.07147620      -0.97226343
H       -1.44398759      -1.65025697       0.24142542
H       -1.94801808       1.02085917       0.97647440
H       -0.19126195       0.91821324       1.31296077
13
Frame=3 idx=008853 GeodesicLength=0.31650606364224265 rxn_smarts="[N:1]#[C:2][C@@:3]1([H:8])[C@@:4]2([H:9])[C:5]([H:10])([H:11])[C:6]([H:12])([H:13])[N:7]12>>[N:1]#[C:2][C@:3]1([H:8])[C@@:4]2([H:9])[C@:5]1([H:11])[C:6]([H:12])([H:13])[N:7]2[H:10]"
N        2.19453016      -0.26219490       2.03689656
C        1.85153920      -0.08242830       0.94672209
C        1.39788754       0.07863061      -0.36916598
C        0.13199818      -0.31021736      -0.96411265
C       -0.94657794      -0.70693158      -0.01466105
C       -0.98350431       0.63292641       0.64192799
N       -0.68628858       0.91813995      -0.81628021
H        2.17972142       0.25949191      -1.09731565
H        0.14212901      -0.74998969      -1.95884426
H       -1.73009447      -0.05121094      -0.97210071
H       -1.39106111      -1.66191578       0.26306511
H       -1.95027345       1.00896667       0.96696712
H       -0.21000565       0.92673299       1.33690164
13
Frame=4 idx=008853 GeodesicLength=0.4220839932810615 rxn_smarts="[N:1]#[C:2][C@@:3]1([H:8])[C@@:4]2([H:9])[C:5]([H:10])([H:11])[C:6]([H:12])([H:13])[N:7]12>>[N:1]#[C:2][C@:3]1([H:8])[C@@:4]2([H:9])[C@:5]1([H:11])[C:6]([H:12])([H:13])[N:7]2[H:10]"
N        2.19311027      -0.24679712       2.03793989
C        1.83626048      -0.06970417       0.95257010
C        1.37460450       0.06312340      -0.36566775
C        0.12043806      -0.30591983      -0.99206963
C       -0.92960085      -0.70912328      -0.01653860
C       -0.97796792       0.63140956       0.64208083
N       -0.66442590       0.93525594      -0.80655613
H        2.17088333       0.20486538      -1.08877010
H        0.12961662      -0.73069366      -1.99230515
H       -1.73318060      -0.02944478      -0.97257004
H       -1.33701372      -1.67287820       0.28337570
H       -1.95250382       0.99697730       0.95693355
H       -0.23022047       0.93292945       1.36157733
13
Frame=5 idx=008853 GeodesicLength=0.5276725827574942 rxn_smarts="[N:1]#[C:2][C@@:3]1([H:8])[C@@:4]2([H:9])[C:5]([H:10])([H:11])[C:6]([H:12])([H:13])[N:7]12>>[N:1]#[C:2][C@:3]1([H:8])[C@@:4]2([H:9])[C@:5]1([H:11])[C:6]([H:12])([H:13])[N:7]2[H:10]"
N        2.19340023      -0.22737273       2.03842697
C        1.82147258      -0.05659319       0.95790850
C        1.35135047       0.04540526      -0.36215104
C        0.10843077      -0.30106411      -1.01900889
C       -0.91340719      -0.71163947      -0.01918043
C       -0.97253586       0.62914004       0.64251326
N       -0.64114434       0.95216664      -0.79572401
H        2.16050978       0.14773994      -1.07954313
H        0.11685134      -0.71012731      -2.02483747
H       -1.73612143      -0.00607511      -0.97370362
H       -1.28238697      -1.68297248       0.30211942
H       -1.95457357       0.98494712       0.94626957
H       -0.25184581       0.93644541       1.38691086
13
Frame=6 idx=008853 GeodesicLength=0.6332521028011034 rxn_smarts="[N:1]#[C:2][C@@:3]1([H:8])[C@@:4]2([H:9])[C:5]([H:10])([H:11])[C:6]([H:12])([H:13])[N:7]12>>[N:1]#[C:2][C@:3]1([H:8])[C@@:4]2([H:9])[C@:5]1([H:11])[C:6]([H:12])([H:13])[N:7]2[H:10]"
N        2.19553943      -0.20339445       2.03813257
C        1.80729030      -0.04295785       0.96257820
C        1.32812677       0.02589727      -0.35852804
C        0.09608632      -0.29549369      -1.04478862
C       -0.89800556      -0.71454660      -0.02250827
C       -0.96725039       0.62605794       0.64330125
N       -0.61650422       0.96877495      -0.78361995
H        2.14864757       0.08722924      -1.06958047
H        0.10406405      -0.68814289      -2.05625532
H       -1.73888592       0.01890003      -0.97540393
H       -1.22767768      -1.69226320       0.31869814
H       -1.95650722       0.97284347       0.93508263
H       -0.27492345       0.93709578       1.41289182
13
Frame=7 idx=008853 GeodesicLength=0.7388688551380308 rxn_smarts="[N:1]#[C:2][C@@:3]1([H:8])[C@@:4]2([H:9])[C:5]([H:10])([H:11])[C:6]([H:12])([H:13])[N:7]12>>[N:1]#[C:2][C@:3]1([H:8])[C@@:4]2([H:9])[C@:5]1([H:11])[C:6]([H:12])([H:13])[N:7]2[H:10]"
N        2.19961038      -0.17449195       2.03689816
C        1.79380060      -0.02917615       0.96647008
C        1.30494620       0.00465646      -0.35471859
C        0.08354042      -0.28930141      -1.06933516
C       -0.88345049      -0.71797021      -0.02645422
C       -0.96208132       0.62214004       0.64446284
N       -0.59045668       0.98489707      -0.77023119
H        2.13514434       0.02378422      -1.05881198
H        0.09154422      -0.66480907      -2.08649633
H       -1.74140702       0.04548971      -0.97764488
H       -1.17357511      -1.70079380       0.33303047
H       -1.95822896       0.96083254       0.92340670
H       -0.29938657       0.93474256       1.43942409
13
Frame=8 idx=008853 GeodesicLength=0.8445169771475158 rxn_smarts="[N:1]#[C:2][C@@:3]1([H:8])[C@@:4]2([H:9])[C:5]([H:10])([H:11])[C:6]([H:12])([H:13])[N:7]12>>[N:1]#[C:2][C@:3]1([H:8])[C@@:4]2([H:9])[C@:5]1([H:11])[C:6]([H:12])([H:13])[N:7]2[H:10]"
N        2.20559905      -0.14030870       2.03440913
C        1.78109875      -0.01536164       0.96945297
C        1.28181042      -0.01792300      -0.35063764
C        0.07092837      -0.28240951      -1.09252231
C       -0.86969430      -0.72195553      -0.03094402
C       -0.95699565       0.61734401       0.64601012
N       -0.56307939       1.00035749      -0.75547647
H        2.11988706      -0.04286905      -1.04704380
H        0.07955603      -0.64005759      -2.11537124
H       -1.74362322       0.07363152      -0.98031792
H       -1.12069178      -1.70864758       0.34479521
H       -1.95966086       0.94890536       0.91130297
H       -0.32513447       0.92929422       1.46634301
13
Frame=9 idx=008853 GeodesicLength=0.9501851737110796 rxn_smarts="[N:1]#[C:2][C@@:3]1([H:8])[C@@:4]2([H:9])[C:5]([H:10])([H:11])[C:6]([H:12])([H:13])[N:7]12>>[N:1]#[C:2][C@:3]1([H:8])[C@@:4]2([H:9])[C@:5]1([H:11])[C:6]([H:12])([H:13])[N:7]2[H:10]"
N        2.21306162      -0.10145709       2.03035553
C        1.76933210      -0.00161662       0.97139468
C        1.25876128      -0.04137729      -0.34625706
C        0.05842010      -0.27487237      -1.11422836
C       -0.85660262      -0.72653494      -0.03577662
C       -0.95191738       0.61176221       0.64788890
N       -0.53452301       1.01491880      -0.73947371
H        2.10271148      -0.11200081      -1.03418564
H        0.06842162      -0.61414733      -2.14264799
H       -1.74547737       0.10306623      -0.98328280
H       -1.06954494      -1.71591012       0.35409933
H       -1.96068711       0.93718420       0.89880051
H       -0.35195578       0.92098514       1.49331322
13
Frame=10 idx=008853 GeodesicLength=1.0558964964121536 rxn_smarts="[N:1]#[C:2][C@@:3]1([H:8])[C@@:4]2([H:9])[C:5]([H:10])([H:11])[C:6]([H:12])([H:13])[N:7]12>>[N:1]#[C:2][C@:3]1([H:8])[C@@:4]2([H:9])[C@:5]1([H:11])[C:6]([H:12])([H:13])[N:7]2[H:10]"
N        2.22171295      -0.05815556       2.02446010
C        1.75855328       0.01172121       0.97224251
C        1.23583666      -0.06525649      -0.34156355
C        0.04615562      -0.26669990      -1.13438484
C       -0.84408133      -0.73171819      -0.04083635
C       -0.94680113       0.60545768       0.65006649
N       -0.50495630       1.02843285      -0.72230940
H        2.08348965      -0.18318318      -1.02009716
H        0.05841604      -0.58722466      -2.16818409
H       -1.74693732       0.13363528      -0.98643372
H       -1.02051228      -1.72274175       0.36101102
H       -1.96122832       0.92573187       0.88598261
H       -0.37964752       0.91000083       1.52004638
13
Frame=11 idx=008853 GeodesicLength=1.1616858993933468 rxn_smarts="[N:1]#[C:2][C@@:3]1([H:8])[C@@:4]2([H:9])[C:5]([H:10])([H:11])[C:6]([H:12])([H:13])[N:7]12>>[N:1]#[C:2][C@:3]1([H:8])[C@@:4]2([H:9])[C@:5]1([H:11])[C:6]([H:12])([H:13])[N:7]2[H:10]"
N        2.23112244      -0.01100515       2.01648752
C        1.74877832       0.02422963       0.97201498
C        1.21308587      -0.08911355      -0.33657750
C        0.03425081      -0.25795689      -1.15294698
C       -0.83202420      -0.73749352      -0.04598746
C       -0.94159662       0.59854188       0.65247446
N       -0.47458440       1.04076127      -0.70415412
H        2.06211831      -0.25558576      -1.00471646
H        0.04976742      -0.55955378      -2.19184938
H       -1.74799284       0.16513353      -0.98967344
H       -0.97374888      -1.72927297       0.36582229
H       -1.96120727       0.91463211       0.87290839
H       -0.40796895       0.89668321       1.54619771
13
Frame=12 idx=008853 GeodesicLength=1.2675929147481568 rxn_smarts="[N:1]#[C:2][C@@:3]1([H:8])[C@@:4]2([H:9])[C:5]([H:10])([H:11])[C:6]([H:12])([H:13])[N:7]12>>[N:1]#[C:2][C@:3]1([H:8])[C@@:4]2([H:9])[C@:5]1([H:11])[C:6]([H:12])([H:13])[N:7]2[H:10]"
N        2.24079999       0.03907896       2.00628937
C        1.73998618       0.03550759       0.97080324
C        1.19057486      -0.11250012      -0.33136003
C        0.02278717      -0.24873831      -1.16990212
C       -0.82031035      -0.74382992      -0.05107936
C       -0.93626717       0.59116473       0.65502574
N       -0.44364868       1.05180424      -0.68523853
H        2.03857150      -0.32819841      -0.98808195
H        0.04262594      -0.53147852      -2.21354693
H       -1.74866301       0.19732587      -0.99291633
H       -0.92918785      -1.73559395       0.36896218
H       -1.96057930       0.90396097       0.85962171
H       -0.43668929       0.88149690       1.57142302
13
Frame=13 idx=008853 GeodesicLength=1.3736646903545902 rxn_smarts="[N:1]#[C:2][C@@:3]1([H:8])[C@@:4]2([H:9])[C:5]([H:10])([H:11])[C:6]([H:12])([H:13])[N:7]12>>[N:1]#[C:2][C@:3]1([H:8])[C@@:4]2([H:9])[C@:5]1([H:11])[C:6]([H:12])([H:13])[N:7]2[H:10]"
N        2.25029106       0.09128543       1.99377775
C        1.73208775       0.04495878       0.96881711
C        1.16836207      -0.13517562      -0.32596064
C        0.01179561      -0.23921147      -1.18525749
C       -0.80887598      -0.75070956      -0.05598327
C       -0.93077270       0.58345349       0.65763681
N       -0.41232018       1.06146927      -0.66578083
H        2.01296005      -0.39970012      -0.97038650
H        0.03704046      -0.50339192      -2.23321777
H       -1.74896475       0.23003973      -0.99610245
H       -0.88672997      -1.74176448       0.37089567
H       -1.95929235       0.89379956       0.84614864
H       -0.46558106       0.86494690       1.59541300
13
Frame=14 idx=008853 GeodesicLength=1.4799390582084462 rxn_smarts="[N:1]#[C:2][C@@:3]1([H:8])[C@@:4]2([H:9])[C:5]([H:10])([H:11])[C:6]([H:12])([H:13])[N:7]12>>[N:1]#[C:2][C@:3]1([H:8])[C@@:4]2([H:9])[C@:5]1([H:11])[C:6]([H:12])([H:13])[N:7]2[H:10]"
N        2.25917508       0.14457193       1.97897012
C        1.72499677       0.05229254       0.96628733
C        1.14652432      -0.15689115      -0.32046081
C        0.00127689      -0.22952229      -1.19905090
C       -0.79762333      -0.75809889      -0.06055432
C       -0.92510643       0.57555927       0.66023034
N       -0.38079465       1.06972561      -0.64601455
H        1.98552043      -0.46899308      -0.95192516
H        0.03296442      -0.47568203      -2.25085086
H       -1.74893630       0.26309524      -0.99918355
H       -0.84612280      -1.74780749       0.37210752
H       -1.95736017       0.88419365       0.83249644
H       -0.49451425       0.84755669       1.61794840
13
Frame=15 idx=008853 GeodesicLength=1.586447350119288 rxn_smarts="[N:1]#[C:2][C@@:3]1([H:8])[C@@:4]2([H:9])[C:5]([H:10])([H:11])[C:6]([H:12])([H:13])[N:7]12>>[N:1]#[C:2][C@:3]1([H:8])[C@@:4]2([H:9])[C@:5]1([H:11])[C:6]([H:12])([H:13])[N:7]2[H:10]"
N        2.26695202       0.19769963       1.96203954
C        1.71864271       0.05740341       0.96342113
C        1.12513553      -0.17750901      -0.31494747
C       -0.00881466      -0.21985692      -1.21133025
C       -0.78645097      -0.76597380      -0.06462752
C       -0.91925570       0.56763104       0.66273203
N       -0.34923339       1.07654933      -0.62617429
H        1.95665412      -0.53487963      -0.93315463
H        0.03023429      -0.44876693      -2.26646000
H       -1.74862345       0.29630920      -1.00211033
H       -0.80706168      -1.75370419       0.37312368
H       -1.95479635       0.87517650       0.81865146
H       -0.52338246       0.82992138       1.63883665
13
Frame=16 idx=008853 GeodesicLength=1.6931992468769776 rxn_smarts="[N:1]#[C:2][C@@:3]1([H:8])[C@@:4]2([H:9])[C:5]([H:10])([H:11])[C:6]([H:12])([H:13])[N:7]12>>[N:1]#[C:2][C@:3]1([H:8])[C@@:4]2([H:9])[C@:5]1([H:11])[C:6]([H:12])([H:13])[N:7]2[H:10]"
N        2.27312485       0.24902611       1.94343010
C        1.71300569       0.06062677       0.96030283
C        1.10427848      -0.19684151      -0.30954571
C       -0.01856628      -0.21038773      -1.22216705
C       -0.77520222      -0.77429723      -0.06800348
C       -0.91322360       0.55985025       0.66505831
N       -0.31784663       1.08196465      -0.60654162
H        1.92686966      -0.59636499      -0.91460236
H        0.02857230      -0.42306680      -2.28009804
H       -1.74811789       0.32943797      -1.00483807
H       -0.76910591      -1.75938093       0.37450945
H       -1.95165572       0.86674440       0.80457945
H       -0.55213273       0.81268905       1.65791620
