12
Frame=0 idx=007084 GeodesicLength=0.0 rxn_smarts="[O:1]=[C:2]1[N:3]([H:8])[C:4]([H:9])([H:10])[C@@:5]2([H:11])[O:6][C@@:7]12[H:12]>>[H:8][H:11].[O-:1][C:2]1=[N:3][C:4]([H:9])([H:10])[C:5]2=[O+:6][C@@:7]12[H:12]"
O        1.21236660       2.01410700       0.99614987
C        0.66722344       1.05011686       0.55307507
N        1.21505340       0.11732927      -0.37681555
C        0.58702499      -1.12680742      -0.10810810
C       -0.85967702      -0.57130416      -0.02667245
O       -1.44444068      -0.48925396       1.16198376
C       -0.83802592       0.73664307       0.56352413
H        0.15722929       0.24855138      -1.52672064
H        0.79057615      -1.53698396       0.88080887
H        0.76719523      -1.86414026      -0.88435601
H       -0.68906640      -0.08965673      -1.59518416
H       -1.56545905       1.51139886       0.36231525
12
Frame=1 idx=007084 GeodesicLength=0.08642156167160246 rxn_smarts="[O:1]=[C:2]1[N:3]([H:8])[C:4]([H:9])([H:10])[C@@:5]2([H:11])[O:6][C@@:7]12[H:12]>>[H:8][H:11].[O-:1][C:2]1=[N:3][C:4]([H:9])([H:10])[C:5]2=[O+:6][C@@:7]12[H:12]"
O        1.20594513       2.02558724       0.98381914
C        0.66516301       1.05034724       0.55770475
N        1.21137174       0.11602762      -0.36552822
C        0.58301962      -1.13216449      -0.10270699
C       -0.85877718      -0.57087189      -0.02514542
O       -1.43580500      -0.48733252       1.16857615
C       -0.83987664       0.73894813       0.56489859
H        0.17889217       0.25649733      -1.54011702
H        0.79373755      -1.55630800       0.87861955
H        0.75920120      -1.86299865      -0.88654894
H       -0.69211853      -0.08932649      -1.60161438
H       -1.57075307       1.51159447       0.36804278
12
Frame=2 idx=007084 GeodesicLength=0.17282904674137584 rxn_smarts="[O:1]=[C:2]1[N:3]([H:8])[C:4]([H:9])([H:10])[C@@:5]2([H:11])[O:6][C@@:7]12[H:12]>>[H:8][H:11].[O-:1][C:2]1=[N:3][C:4]([H:9])([H:10])[C:5]2=[O+:6][C@@:7]12[H:12]"
O        1.19948355       2.03673663       0.97142570
C        0.66299199       1.05075647       0.56216081
N        1.20751994       0.11476071      -0.35430771
C        0.57893523      -1.13749270      -0.09725802
C       -0.85795168      -0.57047191      -0.02344874
O       -1.42711981      -0.48530838       1.17531826
C       -0.84181266       0.74127514       0.56630874
H        0.20160526       0.26456608      -1.55349260
H        0.79695162      -1.57563583       0.87612757
H        0.75113709      -1.86171485      -0.88866093
H       -0.69557080      -0.08921049      -1.60800330
H       -1.57616972       1.51173913       0.37383022
12
Frame=3 idx=007084 GeodesicLength=0.25922022089743546 rxn_smarts="[O:1]=[C:2]1[N:3]([H:8])[C:4]([H:9])([H:10])[C@@:5]2([H:11])[O:6][C@@:7]12[H:12]>>[H:8][H:11].[O-:1][C:2]1=[N:3][C:4]([H:9])([H:10])[C:5]2=[O+:6][C@@:7]12[H:12]"
O        1.19298372       2.04756392       0.95898748
C        0.66070585       1.05134661       0.56643256
N        1.20349764       0.11353071      -0.34315549
C        0.57476861      -1.14279089      -0.09176687
C       -0.85720469      -0.57010708      -0.02157304
O       -1.41837978      -0.48317342       1.18221998
C       -0.84383811       0.74362553       0.56775137
H        0.22545950       0.27276779      -1.56683371
H        0.80022043      -1.59496469       0.87331423
H        0.74299390      -1.86028161      -0.89070299
H       -0.69949560      -0.08935087      -1.61434770
H       -1.58171148       1.51183400       0.37967416
12
Frame=4 idx=007084 GeodesicLength=0.3455925374492691 rxn_smarts="[O:1]=[C:2]1[N:3]([H:8])[C:4]([H:9])([H:10])[C@@:5]2([H:11])[O:6][C@@:7]12[H:12]>>[H:8][H:11].[O-:1][C:2]1=[N:3][C:4]([H:9])([H:10])[C:5]2=[O+:6][C@@:7]12[H:12]"
O        1.18644632       2.05808044       0.94651969
C        0.65829993       1.05211938       0.57051019
N        1.19930461       0.11233957      -0.33207173
C        0.57051621      -1.14805810      -0.08624035
C       -0.85654062      -0.56978044      -0.01950789
O       -1.40957887      -0.48091882       1.18929211
C       -0.84595732       0.74600077       0.56922314
H        0.25056059       0.28111497      -1.58012364
H        0.80354517      -1.61429304       0.87015847
H        0.73476170      -1.85869006      -0.89268841
H       -0.70397657      -0.08979494      -1.62064264
H       -1.58738116       1.51188026       0.38557108
12
Frame=5 idx=007084 GeodesicLength=0.4319436093164399 rxn_smarts="[O:1]=[C:2]1[N:3]([H:8])[C:4]([H:9])([H:10])[C@@:5]2([H:11])[O:6][C@@:7]12[H:12]>>[H:8][H:11].[O-:1][C:2]1=[N:3][C:4]([H:9])([H:10])[C:5]2=[O+:6][C@@:7]12[H:12]"
O        1.17986967       2.06830046       0.93403310
C        0.65576929       1.05307607       0.57438499
N        1.19494067       0.11118871      -0.32105472
C        0.56617387      -1.15329356      -0.08068670
C       -0.85596414      -0.56949513      -0.01724176
O       -1.40070987      -0.47853501       1.19654658
C       -0.84817477       0.74840246       0.57072066
H        0.27703307       0.28962166      -1.59334138
H        0.80692609      -1.63362067       0.86663604
H        0.72642927      -1.85692918      -0.89463337
H       -0.70911125      -0.09059475      -1.62688113
H       -1.59318191       1.51187893       0.39151768
12
Frame=6 idx=007084 GeodesicLength=0.5182742071529947 rxn_smarts="[O:1]=[C:2]1[N:3]([H:8])[C:4]([H:9])([H:10])[C@@:5]2([H:11])[O:6][C@@:7]12[H:12]>>[H:8][H:11].[O-:1][C:2]1=[N:3][C:4]([H:9])([H:10])[C:5]2=[O+:6][C@@:7]12[H:12]"
O        1.17325241       2.07823844       0.92153980
C        0.65310823       1.05421905       0.57804725
N        1.19040542       0.11008021      -0.31010234
C        0.56173719      -1.15849615      -0.07511598
C       -0.85548023      -0.56925464      -0.01476128
O       -1.39176415      -0.47601066       1.20399714
C       -0.85049560       0.75083278       0.57223933
H        0.30502212       0.29830636      -1.60646187
H        0.81036313      -1.65294770       0.86271945
H        0.71798414      -1.85498549      -0.89655704
H       -0.71501485      -0.09181356      -1.63305344
H       -1.59911781       1.51183137       0.39750898
12
Frame=7 idx=007084 GeodesicLength=0.6045862761600787 rxn_smarts="[O:1]=[C:2]1[N:3]([H:8])[C:4]([H:9])([H:10])[C@@:5]2([H:11])[O:6][C@@:7]12[H:12]>>[H:8][H:11].[O-:1][C:2]1=[N:3][C:4]([H:9])([H:10])[C:5]2=[O+:6][C@@:7]12[H:12]"
O        1.16659034       2.08791138       0.90904781
C        0.65031025       1.05555121       0.58148716
N        1.18569823       0.10901564      -0.29921048
C        0.55720098      -1.16366462      -0.06954052
C       -0.85509432      -0.56906264      -0.01205139
O       -1.38273095      -0.47333312       1.21165945
C       -0.85292531       0.75329426       0.57377415
H        0.33470146       0.30718851      -1.61945334
H        0.81385542      -1.67227528       0.85837654
H        0.70941203      -1.85284216      -0.89848270
H       -0.72182428      -0.09352185      -1.63914678
H       -1.60519384       1.51173868       0.40354010
12
Frame=8 idx=007084 GeodesicLength=0.6908854474916224 rxn_smarts="[O:1]=[C:2]1[N:3]([H:8])[C:4]([H:9])([H:10])[C@@:5]2([H:11])[O:6][C@@:7]12[H:12]>>[H:8][H:11].[O-:1][C:2]1=[N:3][C:4]([H:9])([H:10])[C:5]2=[O+:6][C@@:7]12[H:12]"
O        1.15987837       2.09733778       0.89656513
C        0.64736771       1.05707733       0.58469283
N        1.18081827       0.10799714      -0.28837410
C        0.55255948      -1.16879739      -0.06397557
C       -0.85481250      -0.56892319      -0.00909457
O       -1.37359707      -0.47048775       1.21955176
C       -0.85547043       0.75579015       0.57531875
H        0.36627866       0.31629011      -1.63227755
H        0.81740152      -1.69160552       0.85357000
H        0.70069679      -1.85047853      -0.90043846
H       -0.72970391      -0.09580218      -1.64514296
H       -1.61141689       1.51160204       0.40960473
12
Frame=9 idx=007084 GeodesicLength=0.7772054349661001 rxn_smarts="[O:1]=[C:2]1[N:3]([H:8])[C:4]([H:9])([H:10])[C@@:5]2([H:11])[O:6][C@@:7]12[H:12]>>[H:8][H:11].[O-:1][C:2]1=[N:3][C:4]([H:9])([H:10])[C:5]2=[O+:6][C@@:7]12[H:12]"
O        1.15311309       2.10653418       0.88410594
C        0.64427032       1.05880481       0.58764930
N        1.17576402       0.10702850      -0.27758731
C        0.54780582      -1.17389088      -0.05844155
C       -0.85464034      -0.56884036      -0.00586899
O       -1.36434519      -0.46745324       1.22769629
C       -0.85813892       0.75832549       0.57686309
H        0.40000617       0.32565132      -1.64488797
H        0.82099779      -1.71094108       0.84825378
H        0.69181733      -1.84786690      -0.90246062
H       -0.73885502      -0.09877509      -1.65101349
H       -1.61779509       1.51142327       0.41569155
12
Frame=10 idx=007084 GeodesicLength=0.8635180107277638 rxn_smarts="[O:1]=[C:2]1[N:3]([H:8])[C:4]([H:9])([H:10])[C@@:5]2([H:11])[O:6][C@@:7]12[H:12]>>[H:8][H:11].[O-:1][C:2]1=[N:3][C:4]([H:9])([H:10])[C:5]2=[O+:6][C@@:7]12[H:12]"
O        1.14628266       2.11552628       0.87166768
C        0.64100676       1.06074298       0.59033811
N        1.17053213       0.10611185      -0.26684345
C        0.54293160      -1.17894286      -0.05296113
C       -0.85458704      -0.56881901      -0.00235233
O       -1.35495548      -0.46421276       1.23611759
C       -0.86093972       0.76090418       0.57840026
H        0.43618136       0.33528804      -1.65722138
H        0.82464214      -1.73028579       0.84237638
H        0.68275169      -1.84497674      -0.90458939
H       -0.74950543      -0.10253836      -1.65672981
H       -1.62434068       1.51120219       0.42179746
12
Frame=11 idx=007084 GeodesicLength=0.9498155150235011 rxn_smarts="[O:1]=[C:2]1[N:3]([H:8])[C:4]([H:9])([H:10])[C@@:5]2([H:11])[O:6][C@@:7]12[H:12]>>[H:8][H:11].[O-:1][C:2]1=[N:3][C:4]([H:9])([H:10])[C:5]2=[O+:6][C@@:7]12[H:12]"
O        1.13937579       2.12433893       0.85925230
C        0.63756172       1.06290537       0.59273454
N        1.16511720       0.10525170      -0.25613661
C        0.53792654      -1.18394850      -0.04756433
C       -0.85466208      -0.56886406       0.00148304
O       -1.34540216      -0.46074235       1.24484546
C       -0.86388418       0.76353200       0.57991989
H        0.47516600       0.34523104      -1.66919930
H        0.82833014      -1.74964371       0.83587388
H        0.67347102      -1.84176812      -0.90687596
H       -0.76193120      -0.10723105      -1.66224864
H       -1.63106879       1.51093876       0.42791572
12
Frame=12 idx=007084 GeodesicLength=1.0360952130555823 rxn_smarts="[O:1]=[C:2]1[N:3]([H:8])[C:4]([H:9])([H:10])[C@@:5]2([H:11])[O:6][C@@:7]12[H:12]>>[H:8][H:11].[O-:1][C:2]1=[N:3][C:4]([H:9])([H:10])[C:5]2=[O+:6][C@@:7]12[H:12]"
O        1.13237782       2.13300144       0.84685854
C        0.63391603       1.06531077       0.59480558
N        1.15951153       0.10445434      -0.24546156
C        0.53277807      -1.18890125      -0.04228961
C       -0.85487722      -0.56898092       0.00566960
O       -1.33565285      -0.45701401       1.25391543
C       -0.86698645       0.76621593       0.58140942
H        0.51740481       0.35551193      -1.68071940
H        0.83205656      -1.76902022       0.82866795
H        0.66393984      -1.83819104      -0.90938424
H       -0.77646859      -0.11301914      -1.66751109
H       -1.63799954       1.51063217       0.43403937
12
Frame=13 idx=007084 GeodesicLength=1.1223528373737928 rxn_smarts="[O:1]=[C:2]1[N:3]([H:8])[C:4]([H:9])([H:10])[C@@:5]2([H:11])[O:6][C@@:7]12[H:12]>>[H:8][H:11].[O-:1][C:2]1=[N:3][C:4]([H:9])([H:10])[C:5]2=[O+:6][C@@:7]12[H:12]"
O        1.12526825       2.14154936       0.83447755
C        0.63004510       1.06798452       0.59650700
N        1.15370363       0.10372829      -0.23481526
C        0.52747020      -1.19379186      -0.03718654
C       -0.85524727      -0.56917535       0.01024538
O       -1.32566635      -0.45299528       1.26336992
C       -0.87026436       0.76896409       0.58285480
H        0.56344609       0.36615817      -1.69164548
H        0.83581503      -1.78842147       0.82066109
H        0.65411362      -1.83418218      -0.91219441
H       -0.79352436      -0.12009823      -1.67243750
H       -1.64515958       1.51027992       0.44016345
12
Frame=14 idx=007084 GeodesicLength=1.2085877617655578 rxn_smarts="[O:1]=[C:2]1[N:3]([H:8])[C:4]([H:9])([H:10])[C@@:5]2([H:11])[O:6][C@@:7]12[H:12]>>[H:8][H:11].[O-:1][C:2]1=[N:3][C:4]([H:9])([H:10])[C:5]2=[O+:6][C@@:7]12[H:12]"
O        1.11802011       2.15002577       0.82209143
C        0.62591712       1.07096075       0.59777814
N        1.14767622       0.10308604      -0.22420010
C        0.52198253      -1.19860719      -0.03231993
C       -0.85579115      -0.56945344       0.01525500
O       -1.31539006      -0.44864792       1.27325944
C       -0.87374061       0.77178607       0.58423960
H        0.61396868       0.37719275      -1.70179204
H        0.83959837      -1.80785390       0.81173021
H        0.64393525      -1.82966108      -0.91540810
H       -0.81359265      -0.12870546      -1.67691913
H       -1.65258380       1.50987762       0.44628549
12
Frame=15 idx=007084 GeodesicLength=1.2948030464125666 rxn_smarts="[O:1]=[C:2]1[N:3]([H:8])[C:4]([H:9])([H:10])[C@@:5]2([H:11])[O:6][C@@:7]12[H:12]>>[H:8][H:11].[O-:1][C:2]1=[N:3][C:4]([H:9])([H:10])[C:5]2=[O+:6][C@@:7]12[H:12]"
O        1.11059540       2.15848577       0.80966375
C        0.62149054       1.07428505       0.59853547
N        1.14140398       0.10254552      -0.21362792
C        0.51628830      -1.20332862      -0.02777529
C       -0.85653367      -0.56982133       0.02075023
O       -1.30475630      -0.44392815       1.28364404
C       -0.87744459       0.77469251       0.58554612
H        0.66981808       0.38862313      -1.71090330
H        0.84339810      -1.82732376       0.80171779
H        0.63333039      -1.82452454      -0.91915545
H       -0.83727143      -0.13912265      -1.68080579
H       -1.66031881       1.50941705       0.45241034
12
Frame=16 idx=007084 GeodesicLength=1.381006175595944 rxn_smarts="[O:1]=[C:2]1[N:3]([H:8])[C:4]([H:9])([H:10])[C@@:5]2([H:11])[O:6][C@@:7]12[H:12]>>[H:8][H:11].[O-:1][C:2]1=[N:3][C:4]([H:9])([H:10])[C:5]2=[O+:6][C@@:7]12[H:12]"
O        1.10294158       2.16700058       0.79712900
C        0.61671123       1.07801807       0.59866253
N        1.13484977       0.10213337      -0.20312868
C        0.51035258      -1.20792954      -0.02366612
C       -0.85750813      -0.57028499       0.02679012
O       -1.29367813      -0.43878713       1.29459467
C       -0.88141474       0.77769473       0.58675640
H        0.73204551       0.40042955      -1.71861969
H        0.84720505      -1.84683520       0.79042087
H        0.62220149      -1.81863999      -0.92360378
H       -0.86527908      -0.15168392      -1.68389118
H       -1.66842712       1.50888447       0.45855586
