17
Frame=0 idx=009554 GeodesicLength=0.0 rxn_smarts="[C:1]([O:2][C@@:3]1([H:11])[C@@:4]2([H:12])[C:5]([H:13])([H:14])[C:6]([H:15])([H:16])[C@@:7]12[H:17])([H:8])([H:9])[H:10]>>[C:1]([O:2][C@@:3]1([H:11])[C:4]([H:12])([H:17])[C:5]([H:13])([H:14])[C:6]([H:15])([H:16])[C:7]1)([H:8])([H:9])[H:10]"
C        2.30086472       0.13596543       0.59962898
O        1.00305847      -0.35617655       0.84444477
C        0.38957170      -0.81167304      -0.31937396
C       -1.08993317      -1.03677248      -0.20479548
C       -1.67547725       0.19715062       0.47337370
C       -0.90555588       1.18954162      -0.42249696
C       -0.17631936       0.16946498      -1.32937373
H        2.70796884       0.46201749       1.55536327
H        2.28638086       0.98500773      -0.09365411
H        2.94839457      -0.64354602       0.18051938
H        0.93655225      -1.64248203      -0.77141949
H       -1.48103692      -2.04903150      -0.13083500
H       -2.75284751       0.27165515       0.32930768
H       -1.45895753       0.24659708       1.54065232
H       -1.55328540       1.85205434      -0.99367315
H       -0.18149680       1.80151380       0.11969820
H       -1.29788152      -0.77128661      -1.37736643
17
Frame=1 idx=009554 GeodesicLength=0.059593298395865746 rxn_smarts="[C:1]([O:2][C@@:3]1([H:11])[C@@:4]2([H:12])[C:5]([H:13])([H:14])[C:6]([H:15])([H:16])[C@@:7]12[H:17])([H:8])([H:9])[H:10]>>[C:1]([O:2][C@@:3]1([H:11])[C:4]([H:12])([H:17])[C:5]([H:13])([H:14])[C:6]([H:15])([H:16])[C:7]1)([H:8])([H:9])[H:10]"
C        2.30595063       0.13126851       0.59741457
O        1.00420301      -0.35031348       0.84295598
C        0.38840344      -0.81242710      -0.31746767
C       -1.09143027      -1.03475878      -0.20870334
C       -1.67865460       0.19575472       0.47472972
C       -0.90971922       1.19343837      -0.41600479
C       -0.17016690       0.18014052      -1.31704626
H        2.71066609       0.46755993       1.55063817
H        2.29889392       0.97123860      -0.10668564
H        2.95105103      -0.65757977       0.19233226
H        0.93702905      -1.64007112      -0.77284687
H       -1.47801615      -2.04752475      -0.12280658
H       -2.75635842       0.26951762       0.33273764
H       -1.46127432       0.24298181       1.54189357
H       -1.56019353       1.84298412      -0.99984691
H       -0.19845493       1.81901189       0.12713329
H       -1.29192884      -0.77122109      -1.39842713
17
Frame=2 idx=009554 GeodesicLength=0.11917029598540188 rxn_smarts="[C:1]([O:2][C@@:3]1([H:11])[C@@:4]2([H:12])[C:5]([H:13])([H:14])[C:6]([H:15])([H:16])[C@@:7]12[H:17])([H:8])([H:9])[H:10]>>[C:1]([O:2][C@@:3]1([H:11])[C:4]([H:12])([H:17])[C:5]([H:13])([H:14])[C:6]([H:15])([H:16])[C:7]1)([H:8])([H:9])[H:10]"
C        2.31102236       0.12649563       0.59520217
O        1.00538364      -0.34443390       0.84141946
C        0.38721717      -0.81311784      -0.31557470
C       -1.09293435      -1.03272208      -0.21259592
C       -1.68180657       0.19435011       0.47617409
C       -0.91399494       1.19732778      -0.40950145
C       -0.16417097       0.19076368      -1.30453924
H        2.71342003       0.47323301       1.54568509
H        2.31143982       0.95701654      -0.11979085
H        2.95353626      -0.67160155       0.20445636
H        0.93747298      -1.63755216      -0.77434826
H       -1.47499036      -2.04585712      -0.11479227
H       -2.75985278       0.26732255       0.33632341
H       -1.46348221       0.23938252       1.54319877
H       -1.56691939       1.83379651      -1.00590112
H       -0.21590299       1.83654324       0.13437299
H       -1.28543771      -0.77094692      -1.41978852
17
Frame=3 idx=009554 GeodesicLength=0.17873048805717265 rxn_smarts="[C:1]([O:2][C@@:3]1([H:11])[C@@:4]2([H:12])[C:5]([H:13])([H:14])[C:6]([H:15])([H:16])[C@@:7]12[H:17])([H:8])([H:9])[H:10]>>[C:1]([O:2][C@@:3]1([H:11])[C:4]([H:12])([H:17])[C:5]([H:13])([H:14])[C:6]([H:15])([H:16])[C:7]1)([H:8])([H:9])[H:10]"
C        2.31607383       0.12164757       0.59299111
O        1.00660135      -0.33855019       0.83984019
C        0.38601151      -0.81374880      -0.31369286
C       -1.09444731      -1.03066248      -0.21646931
C       -1.68493103       0.19293828       0.47771013
C       -0.91837716       1.20120707      -0.40298605
C       -0.15832925       0.20133132      -1.29185147
H        2.71623431       0.47903350       1.54049262
H        2.32399509       0.94233865      -0.13296063
H        2.95584448      -0.68559084       0.21688132
H        0.93788027      -1.63492971      -0.77591944
H       -1.47196414      -2.04402929      -0.10679571
H       -2.76332736       0.26507438       0.34006789
H       -1.46557826       0.23580269       1.54457077
H       -1.57345605       1.82449404      -1.01183333
H       -0.23384232       1.85409778       0.14140940
H       -1.27838797      -0.77045398      -1.44145462
17
Frame=4 idx=009554 GeodesicLength=0.2382745166579664 rxn_smarts="[C:1]([O:2][C@@:3]1([H:11])[C@@:4]2([H:12])[C:5]([H:13])([H:14])[C:6]([H:15])([H:16])[C@@:7]12[H:17])([H:8])([H:9])[H:10]>>[C:1]([O:2][C@@:3]1([H:11])[C:4]([H:12])([H:17])[C:5]([H:13])([H:14])[C:6]([H:15])([H:16])[C:7]1)([H:8])([H:9])[H:10]"
C        2.32109876       0.11672689       0.59077970
O        1.00785728      -0.33267574       0.83822324
C        0.38478502      -0.81432358      -0.31182033
C       -1.09597114      -1.02858017      -0.22031956
C       -1.68802551       0.19152080       0.47934130
C       -0.92285938       1.20507405      -0.39645707
C       -0.15263982       0.21184014      -1.27898166
H        2.71911200       0.48495633       1.53505032
H        2.33653507       0.92720202      -0.14618308
H        2.95797073      -0.69952701       0.22959600
H        0.93824727      -1.63220828      -0.77755711
H       -1.46894121      -2.04203911      -0.09881947
H       -2.76677887       0.26277773       0.34397463
H       -1.46755927       0.23224558       1.54601274
H       -1.57979979       1.81507484      -1.01764382
H       -0.25227149       1.87166471       0.14823359
H       -1.27075962      -0.76972920      -1.46342941
17
Frame=5 idx=009554 GeodesicLength=0.29780119430612 rxn_smarts="[C:1]([O:2][C@@:3]1([H:11])[C@@:4]2([H:12])[C:5]([H:13])([H:14])[C:6]([H:15])([H:16])[C@@:7]12[H:17])([H:8])([H:9])[H:10]>>[C:1]([O:2][C@@:3]1([H:11])[C:4]([H:12])([H:17])[C:5]([H:13])([H:14])[C:6]([H:15])([H:16])[C:7]1)([H:8])([H:9])[H:10]"
C        2.32608967       0.11173816       0.58856768
O        1.00915252      -0.32682418       0.83657420
C        0.38353645      -0.81484684      -0.30995481
C       -1.09750755      -1.02647525      -0.22414118
C       -1.69108741       0.19010002       0.48107104
C       -0.92743427       1.20892612      -0.38991371
C       -0.14710085       0.22228438      -1.26592983
H        2.72205581       0.49099335       1.52934884
H        2.34903079       0.91160951      -0.15944460
H        2.95991228      -0.71338710       0.24258321
H        0.93856983      -1.62939423      -0.77925546
H       -1.46592907      -2.03988983      -0.09086831
H       -2.77020357       0.26043837       0.34804675
H       -1.46942200       0.22871596       1.54752770
H       -1.58594135       1.80554202      -1.02332918
H       -0.27118951       1.88923184       0.15483363
H       -1.26253178      -0.76876232      -1.48571597
17
Frame=6 idx=009554 GeodesicLength=0.3573150380368957 rxn_smarts="[C:1]([O:2][C@@:3]1([H:11])[C@@:4]2([H:12])[C:5]([H:13])([H:14])[C:6]([H:15])([H:16])[C@@:7]12[H:17])([H:8])([H:9])[H:10]>>[C:1]([O:2][C@@:3]1([H:11])[C:4]([H:12])([H:17])[C:5]([H:13])([H:14])[C:6]([H:15])([H:16])[C:7]1)([H:8])([H:9])[H:10]"
C        2.33103956       0.10668443       0.58635297
O        1.01048769      -0.32101166       0.83489937
C        0.38226399      -0.81532377      -0.30809457
C       -1.09905875      -1.02434840      -0.22792849
C       -1.69411410       0.18867801       0.48290313
C       -0.93209384       1.21276041      -0.38335457
C       -0.14171009       0.23265870      -1.25269449
H        2.72506704       0.49713990       1.52337909
H        2.36145400       0.89556357      -0.17273180
H        2.96166631      -0.72714805       0.25582642
H        0.93884380      -1.62649398      -0.78101107
H       -1.46293464      -2.03758173      -0.08294537
H       -2.77359821       0.25806235       0.35228770
H       -1.47116355       0.22521822       1.54911924
H       -1.59187334       1.79589581      -1.02888897
H       -0.29059330       1.90678717       0.16120010
H       -1.25368256      -0.76754098      -1.50831869
17
Frame=7 idx=009554 GeodesicLength=0.41680859644185475 rxn_smarts="[C:1]([O:2][C@@:3]1([H:11])[C@@:4]2([H:12])[C:5]([H:13])([H:14])[C:6]([H:15])([H:16])[C@@:7]12[H:17])([H:8])([H:9])[H:10]>>[C:1]([O:2][C@@:3]1([H:11])[C:4]([H:12])([H:17])[C:5]([H:13])([H:14])[C:6]([H:15])([H:16])[C:7]1)([H:8])([H:9])[H:10]"
C        2.33594086       0.10156884       0.58413441
O        1.01186311      -0.31525547       0.83320530
C        0.38096525      -0.81576060      -0.30623636
C       -1.10062802      -1.02219964      -0.23167593
C       -1.69710281       0.18725800       0.48484102
C       -0.93682834       1.21657477      -0.37677795
C       -0.13646621       0.24295566      -1.23927536
H        2.72814765       0.50338293       1.51713381
H        2.37377072       0.87907465      -0.18602587
H        2.96323295      -0.74078120       0.26930054
H        0.93906404      -1.62351625      -0.78281795
H       -1.45996687      -2.03511689      -0.07505360
H       -2.77695861       0.25565780       0.35670028
H       -1.47278118       0.22175734       1.55079048
H       -1.59758665       1.78613621      -1.03432160
H       -0.31047958       1.92431708       0.16731740
H       -1.24418632      -0.76605322      -1.53123863
17
Frame=8 idx=009554 GeodesicLength=0.47628208449677806 rxn_smarts="[C:1]([O:2][C@@:3]1([H:11])[C@@:4]2([H:12])[C:5]([H:13])([H:14])[C:6]([H:15])([H:16])[C@@:7]12[H:17])([H:8])([H:9])[H:10]>>[C:1]([O:2][C@@:3]1([H:11])[C:4]([H:12])([H:17])[C:5]([H:13])([H:14])[C:6]([H:15])([H:16])[C:7]1)([H:8])([H:9])[H:10]"
C        2.34078560       0.09639659       0.58190904
O        1.01327846      -0.30957234       0.83149951
C        0.37963782      -0.81616427      -0.30437846
C       -1.10221806      -1.02003092      -0.23537613
C       -1.70005146       0.18584212       0.48688817
C       -0.94163111       1.22036454      -0.37018573
C       -0.13136793       0.25316607      -1.22567302
H        2.73129888       0.50971368       1.51060424
H        2.38594781       0.86215289      -0.19931055
H        2.96461157      -0.75426138       0.28298488
H        0.93922602      -1.62047004      -0.78467154
H       -1.45703476      -2.03249748      -0.06719496
H       -2.78028219       0.25323061       0.36128821
H       -1.47427233       0.21833965       1.55254457
H       -1.60307163       1.77626577      -1.03962545
H       -0.33083956       1.94180730       0.17317640
H       -1.23401712      -0.76428278      -1.55447917
17
Frame=9 idx=009554 GeodesicLength=0.5357321271285169 rxn_smarts="[C:1]([O:2][C@@:3]1([H:11])[C@@:4]2([H:12])[C:5]([H:13])([H:14])[C:6]([H:15])([H:16])[C@@:7]12[H:17])([H:8])([H:9])[H:10]>>[C:1]([O:2][C@@:3]1([H:11])[C:4]([H:12])([H:17])[C:5]([H:13])([H:14])[C:6]([H:15])([H:16])[C:7]1)([H:8])([H:9])[H:10]"
C        2.34556727       0.09116909       0.57967736
O        1.01473336      -0.30397862       0.82978937
C        0.37827920      -0.81654084      -0.30251732
C       -1.10383200      -1.01784203      -0.23902253
C       -1.70295821       0.18443420       0.48904746
C       -0.94649522       1.22412757      -0.36357892
C       -0.12641361       0.26328305      -1.21188679
H        2.73452211       0.51611515       1.50378648
H        2.39794892       0.84481707      -0.21256602
H        2.96580498      -0.76755911       0.29684704
H        0.93932386      -1.61736326      -0.78656424
H       -1.45414832      -2.02972796      -0.05937266
H       -2.78356638       0.25078812       0.36605368
H       -1.47563532       0.21497264       1.55438403
H       -1.60832120       1.76628505      -1.04480177
H       -0.35165815       1.95924340       0.17876570
H       -1.22315128      -0.76222352      -1.57804085
17
Frame=10 idx=009554 GeodesicLength=0.5951603792770355 rxn_smarts="[C:1]([O:2][C@@:3]1([H:11])[C@@:4]2([H:12])[C:5]([H:13])([H:14])[C:6]([H:15])([H:16])[C@@:7]12[H:17])([H:8])([H:9])[H:10]>>[C:1]([O:2][C@@:3]1([H:11])[C:4]([H:12])([H:17])[C:5]([H:13])([H:14])[C:6]([H:15])([H:16])[C:7]1)([H:8])([H:9])[H:10]"
C        2.35027693       0.08589453       0.57743590
O        1.01622752      -0.29849464       0.82808330
C        0.37688660      -0.81689868      -0.30065083
C       -1.10547317      -1.01563470      -0.24260596
C       -1.70581996       0.18303807       0.49132292
C       -0.95140722       1.22786093      -0.35695530
C       -0.12160133       0.27329521      -1.19791746
H        2.73781845       0.52256914       1.49667733
H        2.40973822       0.82708656      -0.22576923
H        2.96681709      -0.78064840       0.31085495
H        0.93935289      -1.61420778      -0.78849267
H       -1.45131811      -2.02681009      -0.05158429
H       -2.78680712       0.24834059       0.37099948
H       -1.47686819       0.21166251       1.55631303
H       -1.61332436       1.75619162      -1.04984999
H       -0.37293855       1.97660976       0.18406450
H       -1.21155968      -0.75985464      -1.60192569
17
Frame=11 idx=009554 GeodesicLength=0.6545607776308637 rxn_smarts="[C:1]([O:2][C@@:3]1([H:11])[C@@:4]2([H:12])[C:5]([H:13])([H:14])[C:6]([H:15])([H:16])[C@@:7]12[H:17])([H:8])([H:9])[H:10]>>[C:1]([O:2][C@@:3]1([H:11])[C:4]([H:12])([H:17])[C:5]([H:13])([H:14])[C:6]([H:15])([H:16])[C:7]1)([H:8])([H:9])[H:10]"
C        2.35490696       0.08057684       0.57518203
O        1.01775974      -0.29313992       0.82638874
C        0.37545661      -0.81724599      -0.29877581
C       -1.10714560      -1.01341065      -0.24611818
C       -1.70863517       0.18165740       0.49371733
C       -0.95635825       1.23156087      -0.35031648
C       -0.11692942       0.28319218      -1.18376566
H        2.74118916       0.52905559       1.48927229
H        2.42127805       0.80898794      -0.23889207
H        2.96765385      -0.79350005       0.32497155
H        0.93930682      -1.61101488      -0.79044981
H       -1.44855483      -2.02374900      -0.04382881
H       -2.79000166       0.24589670       0.37612743
H       -1.47796989       0.20841697       1.55833410
H       -1.61806900       1.74598830      -1.05476839
H       -0.39467175       1.99389090       0.18905383
H       -1.19921560      -0.75716320      -1.62613208
17
Frame=12 idx=009554 GeodesicLength=0.7139336462176173 rxn_smarts="[C:1]([O:2][C@@:3]1([H:11])[C@@:4]2([H:12])[C:5]([H:13])([H:14])[C:6]([H:15])([H:16])[C@@:7]12[H:17])([H:8])([H:9])[H:10]>>[C:1]([O:2][C@@:3]1([H:11])[C:4]([H:12])([H:17])[C:5]([H:13])([H:14])[C:6]([H:15])([H:16])[C:7]1)([H:8])([H:9])[H:10]"
C        2.35945043       0.07521936       0.57291272
O        1.01932805      -0.28793403       0.82471541
C        0.37398528      -0.81759197      -0.29688887
C       -1.10885386      -1.01117175      -0.24954900
C       -1.71140238       0.18029640       0.49623480
C       -0.96133750       1.23522417      -0.34366180
C       -0.11239722       0.29296116      -1.16943225
H        2.74463173       0.53555725       1.48157223
H        2.43253128       0.79055015      -0.25191812
H        2.96832277      -0.80608902       0.33915873
H        0.93917943      -1.60779766      -0.79242890
H       -1.44587143      -2.02054873      -0.03610524
H       -2.79314778       0.24346642       0.38144026
H       -1.47894027       0.20524367       1.56045145
H       -1.62254407       1.73567604      -1.05955515
H       -0.41685182       2.01107031       0.19371613
H       -1.18608264      -0.75413178      -1.65066239
17
Frame=13 idx=009554 GeodesicLength=0.7732726666337552 rxn_smarts="[C:1]([O:2][C@@:3]1([H:11])[C@@:4]2([H:12])[C:5]([H:13])([H:14])[C:6]([H:15])([H:16])[C@@:7]12[H:17])([H:8])([H:9])[H:10]>>[C:1]([O:2][C@@:3]1([H:11])[C:4]([H:12])([H:17])[C:5]([H:13])([H:14])[C:6]([H:15])([H:16])[C:7]1)([H:8])([H:9])[H:10]"
C        2.36389949       0.06982941       0.57062414
O        1.02093077      -0.28289618       0.82307138
C        0.37246870      -0.81794499      -0.29498740
C       -1.11060243      -1.00891923      -0.25288889
C       -1.71412008       0.17896001       0.49887884
C       -0.96633507       1.23884877      -0.33699175
C       -0.10800432       0.30259113      -1.15491868
H        2.74814326       0.54205070       1.47358066
H        2.44346306       0.77180386      -0.26482070
H        2.96883271      -0.81839052       0.35337284
H        0.93896438      -1.60456736      -0.79442481
H       -1.44327985      -2.01721414      -0.02841003
H       -2.79624297       0.24105996       0.38694079
H       -1.47977859       0.20215122       1.56266857
H       -1.62674202       1.72525204      -1.06421120
H       -0.43946856       2.02813010       0.19803053
H       -1.17212847      -0.75074476      -1.67551429
17
Frame=14 idx=009554 GeodesicLength=0.832572554661355 rxn_smarts="[C:1]([O:2][C@@:3]1([H:11])[C@@:4]2([H:12])[C:5]([H:13])([H:14])[C:6]([H:15])([H:16])[C@@:7]12[H:17])([H:8])([H:9])[H:10]>>[C:1]([O:2][C@@:3]1([H:11])[C:4]([H:12])([H:17])[C:5]([H:13])([H:14])[C:6]([H:15])([H:16])[C:7]1)([H:8])([H:9])[H:10]"
C        2.36824740       0.06440976       0.56831407
O        1.02256525      -0.27804612       0.82146590
C        0.37090254      -0.81831523      -0.29306701
C       -1.11239623      -1.00665640      -0.25612653
C       -1.71678785       0.17765252       0.50165197
C       -0.97134174       1.24243018      -0.33030962
C       -0.10374948       0.31206799      -1.14022663
H        2.75172426       0.54850756       1.46529976
H        2.45403469       0.75278937      -0.27757104
H        2.96919542      -0.83037602       0.36756366
H        0.93865458      -1.60133859      -0.79642842
H       -1.44079207      -2.01375086      -0.02073723
H       -2.79928591       0.23868712       0.39263010
H       -1.48048598       0.19914946       1.56498800
H       -1.63065178       1.71471790      -1.06873695
H       -0.46251322       2.04505324       0.20197493
H       -1.15731987      -0.74698188      -1.70068496
17
Frame=15 idx=009554 GeodesicLength=0.8918287527085823 rxn_smarts="[C:1]([O:2][C@@:3]1([H:11])[C@@:4]2([H:12])[C:5]([H:13])([H:14])[C:6]([H:15])([H:16])[C@@:7]12[H:17])([H:8])([H:9])[H:10]>>[C:1]([O:2][C@@:3]1([H:11])[C:4]([H:12])([H:17])[C:5]([H:13])([H:14])[C:6]([H:15])([H:16])[C:7]1)([H:8])([H:9])[H:10]"
C        2.37248756       0.05896545       0.56597675
O        1.02422766      -0.27340271       0.81990813
C        0.36928145      -0.81871194      -0.29112477
C       -1.11424114      -1.00438601      -0.25925089
C       -1.71940630       0.17637780       0.50455849
C       -0.97634965       1.24596502      -0.32361560
C       -0.09963386       0.32137911      -1.12535732
H        2.75536880       0.55491055       1.45673411
H        2.46421739       0.73354073      -0.29015618
H        2.96942262      -0.84202843       0.38169238
H        0.93824330      -1.59812385      -0.79843470
H       -1.43842103      -2.01016476      -0.01308235
H       -2.80227664       0.23635694       0.39851103
H       -1.48106431       0.19624607       1.56741416
H       -1.63426399       1.70407523      -1.07312907
H       -0.48597746       2.06182318       0.20552872
H       -1.14161438      -0.74282238      -1.72617288
17
Frame=16 idx=009554 GeodesicLength=0.9510328156059081 rxn_smarts="[C:1]([O:2][C@@:3]1([H:11])[C@@:4]2([H:12])[C:5]([H:13])([H:14])[C:6]([H:15])([H:16])[C@@:7]12[H:17])([H:8])([H:9])[H:10]>>[C:1]([O:2][C@@:3]1([H:11])[C:4]([H:12])([H:17])[C:5]([H:13])([H:14])[C:6]([H:15])([H:16])[C:7]1)([H:8])([H:9])[H:10]"
C        2.37661415       0.05350078       0.56360694
O        1.02591471      -0.26898485       0.81840730
C        0.36760045      -0.81914496      -0.28915728
C       -1.11614279      -1.00211088      -0.26225019
C       -1.72197561       0.17514095       0.50760159
C       -0.98134872       1.24945096      -0.31691053
C       -0.09565737       0.33051102      -1.11031303
H        2.75907294       0.56123296       1.44789082
H        2.47397928       0.71409980      -0.30255242
H        2.96952855      -0.85332792       0.39570873
H        0.93772300      -1.59493707      -0.80043656
H       -1.43617914      -2.00646160      -0.00543750
H       -2.80521437       0.23408043       0.40458538
H       -1.48151572       0.19345027       1.56995054
H       -1.63757061       1.69332205      -1.07738735
H       -0.50985657       2.07842075       0.20866619
H       -1.12497217      -0.73824269      -1.75197262
