14
Frame=0 idx=001851 GeodesicLength=0.0 rxn_smarts="[C:1]1([H:7])([H:8])[C:2]([H:9])([H:10])[C@:3]2([H:11])[O:4][C@:5]2([H:12])[C:6]1([H:13])[H:14]>>[C:1]1([H:7])([H:8])[C:2]([H:9])([H:10])[C@@:3]([C:5][H:12])([H:11])[O:4][C:6]1([H:13])[H:14]"
C        0.29086089      -0.99191132      -0.65699062
C       -1.10169059      -0.59733342      -0.12250883
C       -0.87967276       0.77735421       0.44465125
O        0.28121840       0.74709483       1.27003992
C        0.21796452       1.54640648      -0.13738742
C        1.32258305      -0.20632486       0.10528009
H        0.36311465      -0.74726346      -1.71500688
H        0.46461121      -2.06263564      -0.52189055
H       -1.85270620      -0.59864386      -0.91423316
H       -1.43700405      -1.27765086       0.66450318
H       -1.69937204       1.28423124       0.94553788
H        0.18968495       2.60515642       0.13815751
H        2.11405680       0.23981865      -0.48035569
H        1.72635112      -0.71829841       0.98020336
14
Frame=1 idx=001851 GeodesicLength=0.04575690412351366 rxn_smarts="[C:1]1([H:7])([H:8])[C:2]([H:9])([H:10])[C@:3]2([H:11])[O:4][C@:5]2([H:12])[C:6]1([H:13])[H:14]>>[C:1]1([H:7])([H:8])[C:2]([H:9])([H:10])[C@@:3]([C:5][H:12])([H:11])[O:4][C:6]1([H:13])[H:14]"
C        0.29085747      -1.00176299      -0.64478815
C       -1.10474231      -0.59166607      -0.13403463
C       -0.88245223       0.77510362       0.45153049
O        0.28061642       0.73913974       1.27553014
C        0.21686076       1.54853488      -0.12082672
C        1.32169072      -0.19254159       0.09522960
H        0.37020269      -0.79707383      -1.71094746
H        0.46229945      -2.06712651      -0.47081057
H       -1.83833531      -0.57094728      -0.94180710
H       -1.46853281      -1.27614002       0.63640461
H       -1.70270695       1.27563694       0.95809995
H        0.19539495       2.60501200       0.16264043
H        2.09796982       0.25207754      -0.51293132
H        1.76087734      -0.69824644       0.95671075
14
Frame=2 idx=001851 GeodesicLength=0.09134885663038844 rxn_smarts="[C:1]1([H:7])([H:8])[C:2]([H:9])([H:10])[C@:3]2([H:11])[O:4][C@:5]2([H:12])[C:6]1([H:13])[H:14]>>[C:1]1([H:7])([H:8])[C:2]([H:9])([H:10])[C@@:3]([C:5][H:12])([H:11])[O:4][C:6]1([H:13])[H:14]"
C        0.29081820      -1.01188374      -0.63190983
C       -1.10756453      -0.58565602      -0.14618418
C       -0.88508392       0.77254675       0.45869329
O        0.28039478       0.73058209       1.28097614
C        0.21567443       1.55071483      -0.10373299
C        1.32056417      -0.17876300       0.08450790
H        0.37763296      -0.84931057      -1.70489427
H        0.45944720      -2.07019111      -0.41760814
H       -1.82213064      -0.54234498      -0.97009233
H       -1.50055891      -1.27388046       0.60619131
H       -1.70587792       1.26623914       0.97126095
H        0.20098095       2.60463936       0.18820793
H        2.08019291       0.26436198      -0.54671354
H        1.79551031      -0.67705429       0.93129775
14
Frame=3 idx=001851 GeodesicLength=0.136789494111451 rxn_smarts="[C:1]1([H:7])([H:8])[C:2]([H:9])([H:10])[C@:3]2([H:11])[O:4][C@:5]2([H:12])[C:6]1([H:13])[H:14]>>[C:1]1([H:7])([H:8])[C:2]([H:9])([H:10])[C@@:3]([C:5][H:12])([H:11])[O:4][C:6]1([H:13])[H:14]"
C        0.29076191      -1.02230412      -0.61832265
C       -1.11010688      -0.57929729      -0.15898744
C       -0.88755972       0.76965759       0.46613190
O        0.28057320       0.72139637       1.28635979
C        0.21442583       1.55295017      -0.08608002
C        1.31917242      -0.16500218       0.07305352
H        0.38542396      -0.90398410      -1.69659926
H        0.45595914      -2.07170945      -0.36226607
H       -1.80390802      -0.51280988      -0.99906273
H       -1.53300470      -1.27079248       0.57375714
H       -1.70889782       1.25594328       0.98503910
H        0.20641755       2.60403458       0.21490627
H        2.06060072       0.27660833      -0.58176654
H        1.83014242      -0.65469082       0.90383701
14
Frame=4 idx=001851 GeodesicLength=0.18196848469130736 rxn_smarts="[C:1]1([H:7])([H:8])[C:2]([H:9])([H:10])[C@:3]2([H:11])[O:4][C@:5]2([H:12])[C:6]1([H:13])[H:14]>>[C:1]1([H:7])([H:8])[C:2]([H:9])([H:10])[C@@:3]([C:5][H:12])([H:11])[O:4][C:6]1([H:13])[H:14]"
C        0.29065375      -1.03292751      -0.60405132
C       -1.11228196      -0.57261072      -0.17238424
C       -0.88985095       0.76641243       0.47379615
O        0.28115190       0.71161477       1.29164803
C        0.21314860       1.55517674      -0.06791826
C        1.31743881      -0.15133111       0.06090821
H        0.39343884      -0.96081010      -1.68580864
H        0.45187507      -2.07138163      -0.30506110
H       -1.78354587      -0.48251435      -1.02852101
H       -1.56551611      -1.26686016       0.53912767
H       -1.71173889       1.24475060       0.99928215
H        0.21174736       2.60312223       0.24260623
H        2.03903129       0.28873547      -0.61792588
H        1.86444816      -0.63137666       0.87430202
14
Frame=5 idx=001851 GeodesicLength=0.22695988515779378 rxn_smarts="[C:1]1([H:7])([H:8])[C:2]([H:9])([H:10])[C@:3]2([H:11])[O:4][C@:5]2([H:12])[C:6]1([H:13])[H:14]>>[C:1]1([H:7])([H:8])[C:2]([H:9])([H:10])[C@@:3]([C:5][H:12])([H:11])[O:4][C:6]1([H:13])[H:14]"
C        0.29051733      -1.04377994      -0.58910680
C       -1.11406115      -0.56562691      -0.18636913
C       -0.89196910       0.76281069       0.48165912
O        0.28214526       0.70128463       1.29682899
C        0.21188729       1.55739947      -0.04924304
C        1.31535173      -0.13777235       0.04805368
H        0.40169063      -1.01964567      -1.67232015
H        0.44711422      -2.06912750      -0.24616659
H       -1.76096229      -0.45154285      -1.05834916
H       -1.59796345      -1.26205816       0.50227821
H       -1.71445342       1.23262052       1.01396844
H        0.21698484       2.60192905       0.27130179
H        2.01543587       0.30065062      -0.65515987
H        1.89828223      -0.60714160       0.84262452
14
Frame=6 idx=001851 GeodesicLength=0.2718920557456005 rxn_smarts="[C:1]1([H:7])([H:8])[C:2]([H:9])([H:10])[C@:3]2([H:11])[O:4][C@:5]2([H:12])[C:6]1([H:13])[H:14]>>[C:1]1([H:7])([H:8])[C:2]([H:9])([H:10])[C@@:3]([C:5][H:12])([H:11])[O:4][C:6]1([H:13])[H:14]"
C        0.29033564      -1.05483208      -0.57345976
C       -1.11537110      -0.55835286      -0.20094234
C       -0.89390397       0.75883296       0.48968854
O        0.28355618       0.69042298       1.30187856
C        0.21066371       1.55958816      -0.03007191
C        1.31287027      -0.12436114       0.03448354
H        0.41006508      -1.08032402      -1.65586090
H        0.44166670      -2.06473199      -0.18570630
H       -1.73598264      -0.41997584      -1.08844741
H       -1.63013196      -1.25635283       0.46312764
H       -1.71704350       1.21949578       1.02904280
H        0.22216159       2.60041462       0.30097096
H        1.98963962       0.31229317      -0.69342628
H        1.93147436      -0.58211690       0.80872287
14
Frame=7 idx=001851 GeodesicLength=0.3168829320401371 rxn_smarts="[C:1]1([H:7])([H:8])[C:2]([H:9])([H:10])[C@:3]2([H:11])[O:4][C@:5]2([H:12])[C:6]1([H:13])[H:14]>>[C:1]1([H:7])([H:8])[C:2]([H:9])([H:10])[C@@:3]([C:5][H:12])([H:11])[O:4][C:6]1([H:13])[H:14]"
C        0.29011877      -1.06605514      -0.55715823
C       -1.11618103      -0.55083463      -0.21606497
C       -0.89566214       0.75450423       0.49781238
O        0.28541811       0.67913406       1.30679814
C        0.20949859       1.56170628      -0.01044902
C        1.30997035      -0.11115478       0.02025885
H        0.41850917      -1.14248478      -1.63629814
H        0.43552645      -2.05809005      -0.12406690
H       -1.70865673      -0.38801221      -1.11863161
H       -1.66173191      -1.24973819       0.42176831
H       -1.71953454       1.20539942       1.04439381
H        0.22730067       2.59856125       0.33153080
H        1.96157819       0.32350215      -0.73253078
H        1.96384604      -0.55643760       0.77263734
14
Frame=8 idx=001851 GeodesicLength=0.3620874514443279 rxn_smarts="[C:1]1([H:7])([H:8])[C:2]([H:9])([H:10])[C@:3]2([H:11])[O:4][C@:5]2([H:12])[C:6]1([H:13])[H:14]>>[C:1]1([H:7])([H:8])[C:2]([H:9])([H:10])[C@@:3]([C:5][H:12])([H:11])[O:4][C:6]1([H:13])[H:14]"
C        0.28981831      -1.07724860      -0.54020259
C       -1.11632920      -0.54309207      -0.23158320
C       -0.89716475       0.74973903       0.50590265
O        0.28757659       0.66736209       1.31146092
C        0.20849297       1.56359575       0.00947296
C        1.30646744      -0.09819971       0.00545751
H        0.42689078      -1.20540550      -1.61344363
H        0.42869088      -2.04894327      -0.06167960
H       -1.67874661      -0.35587886      -1.14854698
H       -1.69235195      -1.24216973       0.37846513
H       -1.72180751       1.19019316       1.05977454
H        0.23256511       2.59612145       0.36271280
H        1.93104236       0.33426063      -0.77220679
H        1.99485559      -0.53033437       0.73441629
14
Frame=9 idx=001851 GeodesicLength=0.4074132243956099 rxn_smarts="[C:1]1([H:7])([H:8])[C:2]([H:9])([H:10])[C@:3]2([H:11])[O:4][C@:5]2([H:12])[C:6]1([H:13])[H:14]>>[C:1]1([H:7])([H:8])[C:2]([H:9])([H:10])[C@@:3]([C:5][H:12])([H:11])[O:4][C:6]1([H:13])[H:14]"
C        0.28948471      -1.08838556      -0.52291022
C       -1.11593130      -0.53533497      -0.24729535
C       -0.89855199       0.74474894       0.51384754
O        0.29005819       0.65550408       1.31593561
C        0.20768569       1.56532664       0.02954959
C        1.30254567      -0.08564769      -0.00965021
H        0.43508019      -1.26828606      -1.58766708
H        0.42133456      -2.03759117       0.00030107
H       -1.64694397      -0.32415054      -1.17771130
H       -1.72158163      -1.23390177       0.33376411
H       -1.72413333       1.17431243       1.07494053
H        0.23795518       2.59337856       0.39417628
H        1.89860016       0.34430572      -0.81179461
H        2.02439786      -0.50427860       0.69451405
14
Frame=10 idx=001851 GeodesicLength=0.45306542686272866 rxn_smarts="[C:1]1([H:7])([H:8])[C:2]([H:9])([H:10])[C@:3]2([H:11])[O:4][C@:5]2([H:12])[C:6]1([H:13])[H:14]>>[C:1]1([H:7])([H:8])[C:2]([H:9])([H:10])[C@@:3]([C:5][H:12])([H:11])[O:4][C:6]1([H:13])[H:14]"
C        0.28908875      -1.09921079      -0.50530997
C       -1.11481072      -0.52755615      -0.26307452
C       -0.89968773       0.73947653       0.52149642
O        0.29280808       0.64354120       1.32017454
C        0.20704648       1.56666236       0.04957485
C        1.29800590      -0.07353924      -0.02489681
H        0.44296398      -1.33029217      -1.55903081
H        0.41343729      -2.02389047       0.06143575
H       -1.61328350      -0.29293673      -1.20584342
H       -1.74887497      -1.22491397       0.28802022
H       -1.72623464       1.15765254       1.08964190
H        0.24345136       2.58998629       0.42555435
H        1.86408665       0.35350464      -0.85093180
H        2.05200307      -0.47848404       0.65318932
14
Frame=11 idx=001851 GeodesicLength=0.4991789506028513 rxn_smarts="[C:1]1([H:7])([H:8])[C:2]([H:9])([H:10])[C@:3]2([H:11])[O:4][C@:5]2([H:12])[C:6]1([H:13])[H:14]>>[C:1]1([H:7])([H:8])[C:2]([H:9])([H:10])[C@@:3]([C:5][H:12])([H:11])[O:4][C:6]1([H:13])[H:14]"
C        0.28864298      -1.10972745      -0.48759338
C       -1.11309821      -0.51990557      -0.27872127
C       -0.90070781       0.73404721       0.52879242
O        0.29563245       0.63165567       1.32416164
C        0.20671815       1.56769036       0.06943854
C        1.29297493      -0.06191216      -0.04013510
H        0.45053079      -1.39088090      -1.52793098
H        0.40518882      -2.00826274       0.12100093
H       -1.57812032      -0.26268651      -1.23262521
H       -1.77425503      -1.21539252       0.24175366
H       -1.72837701       1.14049957       1.10372859
H        0.24929798       2.58615298       0.45666835
H        1.82796093       0.36191806      -0.88922985
H        2.07761134      -0.45319600       0.61069166
14
Frame=12 idx=001851 GeodesicLength=0.5458308733520565 rxn_smarts="[C:1]1([H:7])([H:8])[C:2]([H:9])([H:10])[C@:3]2([H:11])[O:4][C@:5]2([H:12])[C:6]1([H:13])[H:14]>>[C:1]1([H:7])([H:8])[C:2]([H:9])([H:10])[C@@:3]([C:5][H:12])([H:11])[O:4][C:6]1([H:13])[H:14]"
C        0.28814921      -1.11979769      -0.46987357
C       -1.11082381      -0.51246650      -0.29414866
C       -0.90161153       0.72853317       0.53566292
O        0.29856762       0.62000210       1.32792630
C        0.20666236       1.56835351       0.08900430
C        1.28751676      -0.05081451      -0.05517719
H        0.45768998      -1.44949369      -1.49464601
H        0.39665744      -1.99084717       0.17848635
H       -1.54194788      -0.23357371      -1.25783701
H       -1.79747177      -1.20554046       0.19524814
H       -1.73052368       1.12300691       1.11706285
H        0.25543707       2.58188057       0.48722356
H        1.79051719       0.36944697      -0.92626168
H        2.10118105      -0.42868951       0.56732970
14
Frame=13 idx=001851 GeodesicLength=0.5929833723879877 rxn_smarts="[C:1]1([H:7])([H:8])[C:2]([H:9])([H:10])[C@:3]2([H:11])[O:4][C@:5]2([H:12])[C:6]1([H:13])[H:14]>>[C:1]1([H:7])([H:8])[C:2]([H:9])([H:10])[C@@:3]([C:5][H:12])([H:11])[O:4][C:6]1([H:13])[H:14]"
C        0.28762150      -1.12934605      -0.45232673
C       -1.10803241      -0.50530235      -0.30919449
C       -0.90242314       0.72301864       0.54204072
O        0.30150190       0.60867788       1.33149116
C        0.20688977       1.56862167       0.10811867
C        1.28166232      -0.04027118      -0.06983332
H        0.46440900      -1.50557798      -1.45971535
H        0.38802180      -1.97204052       0.23338591
H       -1.50517864      -0.20582608      -1.28128784
H       -1.81839508      -1.19546615       0.14903482
H       -1.73269342       1.10538808       1.12949091
H        0.26191799       2.57718559       0.51694192
H        1.75209444       0.37609782      -0.96165541
H        2.12260396      -0.40515938       0.52350903
14
Frame=14 idx=001851 GeodesicLength=0.6405538804314967 rxn_smarts="[C:1]1([H:7])([H:8])[C:2]([H:9])([H:10])[C@:3]2([H:11])[O:4][C@:5]2([H:12])[C:6]1([H:13])[H:14]>>[C:1]1([H:7])([H:8])[C:2]([H:9])([H:10])[C@@:3]([C:5][H:12])([H:11])[O:4][C:6]1([H:13])[H:14]"
C        0.28707529      -1.13828926      -0.43510251
C       -1.10478670      -0.49848083      -0.32372487
C       -0.90316349       0.71756264       0.54788928
O        0.30434310       0.59777327       1.33486239
C        0.20741167       1.56847800       0.12665216
C        1.27548295      -0.03027374      -0.08395683
H        0.47070863      -1.55870748      -1.42362416
H        0.37932708      -1.95219552       0.28532553
H       -1.46823362      -0.17955917      -1.30279996
H       -1.83698925      -1.18535182       0.10355401
H       -1.73489912       1.08779595       1.14092304
H        0.26874063       2.57211079       0.54554778
H        1.71316506       0.38190221      -0.99510446
H        2.14181777      -0.38276505       0.47955859
14
Frame=15 idx=001851 GeodesicLength=0.6884611836374219 rxn_smarts="[C:1]1([H:7])([H:8])[C:2]([H:9])([H:10])[C@:3]2([H:11])[O:4][C@:5]2([H:12])[C:6]1([H:13])[H:14]>>[C:1]1([H:7])([H:8])[C:2]([H:9])([H:10])[C@@:3]([C:5][H:12])([H:11])[O:4][C:6]1([H:13])[H:14]"
C        0.28652085      -1.14661705      -0.41830740
C       -1.10118571      -0.49204195      -0.33768750
C       -0.90387054       0.71223174       0.55321013
O        0.30706326       0.58734885       1.33807632
C        0.20821195       1.56794462       0.14455493
C        1.26907682      -0.02080617      -0.09744941
H        0.47658237      -1.60875398      -1.38679323
H        0.37071098      -1.93163426       0.33415173
H       -1.43151208      -0.15484660      -1.32237448
H       -1.85334334      -1.17532639       0.05905463
H       -1.73718112       1.07041768       1.15132349
H        0.27591502       2.56673208       0.57294292
H        1.67406026       0.38693110      -1.02643631
H        2.15895129      -0.36157969       0.43573418
14
Frame=16 idx=001851 GeodesicLength=0.7366274964888899 rxn_smarts="[C:1]1([H:7])([H:8])[C:2]([H:9])([H:10])[C@:3]2([H:11])[O:4][C@:5]2([H:12])[C:6]1([H:13])[H:14]>>[C:1]1([H:7])([H:8])[C:2]([H:9])([H:10])[C@@:3]([C:5][H:12])([H:11])[O:4][C:6]1([H:13])[H:14]"
C        0.28596725      -1.15431764      -0.40200492
C       -1.09729178      -0.48599558      -0.35104919
C       -0.90455565       0.70705465       0.55801787
O        0.30962536       0.57741672       1.34115358
C        0.20927050       1.56702923       0.16178820
C        1.26250749      -0.01183224      -0.11025840
H        0.48205610      -1.65566814      -1.34956023
H        0.36222269      -1.91061924       0.37985386
H       -1.39528128      -0.13165568      -1.34004417
H       -1.86756277      -1.16548805       0.01572190
H       -1.73953447       1.05334551       1.16069957
H        0.28342016       2.56108500       0.59904119
H        1.63506920       0.39126705      -1.05557897
H        2.17408718      -0.34162161       0.39221968
