16
Frame=0 idx=006771 GeodesicLength=0.0 rxn_smarts="[C:1](/[N:2]=[C:3](/[O:4][C:5]([C:6]([O:7][H:16])([H:14])[H:15])([H:12])[H:13])[H:11])([H:8])([H:9])[H:10]>>[C:1]([N:2]([C:3](=[O:4])[H:11])[C:5]([C:6]([O:7][H:16])([H:14])[H:15])([H:12])[H:13])([H:8])([H:9])[H:10]"
C        1.76713544      -0.14296876      -1.20306933
N        0.78276117       0.26291856      -0.22406872
C        1.08207569       0.87268066       0.87531279
O        0.17125453       1.31447375       1.60813030
C       -1.33488907       0.67156282       0.20470810
C       -1.72300719      -0.70754398       0.58377153
O       -1.30521857      -1.69523959      -0.31234620
H        1.75567483      -1.22571442      -1.36175491
H        1.56330340       0.33025104      -2.16706231
H        2.78182364       0.13695603      -0.90235667
H        2.13034634       1.00469068       1.17569550
H       -1.76101055       1.45556057       0.81198406
H       -1.31822464       0.89187562      -0.85290394
H       -1.40963347      -0.91178023       1.61330592
H       -2.82265666      -0.71268597       0.57813277
H       -0.35973494      -1.54503685      -0.42747896
16
Frame=1 idx=006771 GeodesicLength=0.04130315960178158 rxn_smarts="[C:1](/[N:2]=[C:3](/[O:4][C:5]([C:6]([O:7][H:16])([H:14])[H:15])([H:12])[H:13])[H:11])([H:8])([H:9])[H:10]>>[C:1]([N:2]([C:3](=[O:4])[H:11])[C:5]([C:6]([O:7][H:16])([H:14])[H:15])([H:12])[H:13])([H:8])([H:9])[H:10]"
C        1.76528389      -0.13597422      -1.20565727
N        0.78085236       0.25282817      -0.22034487
C        1.08248159       0.85051643       0.88592069
O        0.16836866       1.30550343       1.60875806
C       -1.31696764       0.67017018       0.20266485
C       -1.72498311      -0.70471021       0.58568862
O       -1.30910558      -1.70062943      -0.30333451
H        1.75093662      -1.21584326      -1.38152016
H        1.56335886       0.35336521      -2.16191204
H        2.77950447       0.13804773      -0.89823709
H        2.13126579       1.01868015       1.16484731
H       -1.75685416       1.45895112       0.79499860
H       -1.31203992       0.88449103      -0.85705765
H       -1.41829020      -0.90760538       1.61758516
H       -2.82411707      -0.70150306       0.57312691
H       -0.35969456      -1.56628790      -0.40552663
16
Frame=2 idx=006771 GeodesicLength=0.08247418578681442 rxn_smarts="[C:1](/[N:2]=[C:3](/[O:4][C:5]([C:6]([O:7][H:16])([H:14])[H:15])([H:12])[H:13])[H:11])([H:8])([H:9])[H:10]>>[C:1]([N:2]([C:3](=[O:4])[H:11])[C:5]([C:6]([O:7][H:16])([H:14])[H:15])([H:12])[H:13])([H:8])([H:9])[H:10]"
C        1.76330240      -0.12895823      -1.20816464
N        0.77909120       0.24300579      -0.21667485
C        1.08318772       0.83038880       0.89540134
O        0.16569965       1.29638041       1.60930772
C       -1.29916019       0.66869299       0.20073732
C       -1.72677396      -0.70186376       0.58743328
O       -1.31259972      -1.70582730      -0.29446795
H        1.74615083      -1.20580704      -1.40040790
H        1.56284720       0.37571726      -2.15666343
H        2.77707994       0.13941606      -0.89458372
H        2.13120624       1.03069791       1.15475267
H       -1.75230899       1.46201000       0.77814346
H       -1.30586607       0.87726579      -0.86090207
H       -1.42685336      -0.90337841       1.62167607
H       -2.82528791      -0.69062189       0.56782535
H       -0.35971500      -1.58711837      -0.38341267
16
Frame=3 idx=006771 GeodesicLength=0.12353425082913855 rxn_smarts="[C:1](/[N:2]=[C:3](/[O:4][C:5]([C:6]([O:7][H:16])([H:14])[H:15])([H:12])[H:13])[H:11])([H:8])([H:9])[H:10]>>[C:1]([N:2]([C:3](=[O:4])[H:11])[C:5]([C:6]([O:7][H:16])([H:14])[H:15])([H:12])[H:13])([H:8])([H:9])[H:10]"
C        1.76119970      -0.12211145      -1.21047163
N        0.77755702       0.23317930      -0.21282413
C        1.08430324       0.81223420       0.90391403
O        0.16328323       1.28661266       1.61022826
C       -1.28136766       0.66712185       0.19906930
C       -1.72851988      -0.69903470       0.58885360
O       -1.31593373      -1.71076369      -0.28606529
H        1.74152142      -1.19586161      -1.41816641
H        1.56152444       0.39695386      -2.15127063
H        2.77455707       0.14114639      -0.89146019
H        2.13050026       1.04231558       1.14472617
H       -1.74724726       1.46468409       0.76169356
H       -1.29949129       0.87038584      -0.86426718
H       -1.43557224      -0.89937548       1.62540902
H       -2.82631041      -0.67989787       0.56200311
H       -0.36000392      -1.60758896      -0.36137160
16
Frame=4 idx=006771 GeodesicLength=0.16456538623362416 rxn_smarts="[C:1](/[N:2]=[C:3](/[O:4][C:5]([C:6]([O:7][H:16])([H:14])[H:15])([H:12])[H:13])[H:11])([H:8])([H:9])[H:10]>>[C:1]([N:2]([C:3](=[O:4])[H:11])[C:5]([C:6]([O:7][H:16])([H:14])[H:15])([H:12])[H:13])([H:8])([H:9])[H:10]"
C        1.75898728      -0.11504691      -1.21287562
N        0.77603639       0.22378672      -0.20932344
C        1.08544191       0.79561419       0.91145324
O        0.16084771       1.27732529       1.61069071
C       -1.26386424       0.66547444       0.19730621
C       -1.73000507      -0.69617428       0.59029366
O       -1.31871497      -1.71567713      -0.27736887
H        1.73652903      -1.18551590      -1.43572418
H        1.56014830       0.41812861      -2.14586105
H        2.77196729       0.14287131      -0.88855819
H        2.12928969       1.05096706       1.13610198
H       -1.74209306       1.46712085       0.74502213
H       -1.29335495       0.86338170      -0.86760522
H       -1.44401558      -0.89497692       1.62917388
H       -2.82697922      -0.66962942       0.55616596
H       -0.36022049      -1.62764960      -0.33889120
16
Frame=5 idx=006771 GeodesicLength=0.20556218013524985 rxn_smarts="[C:1](/[N:2]=[C:3](/[O:4][C:5]([C:6]([O:7][H:16])([H:14])[H:15])([H:12])[H:13])[H:11])([H:8])([H:9])[H:10]>>[C:1]([N:2]([C:3](=[O:4])[H:11])[C:5]([C:6]([O:7][H:16])([H:14])[H:15])([H:12])[H:13])([H:8])([H:9])[H:10]"
C        1.75667765      -0.10804185      -1.21516669
N        0.77463812       0.21448664      -0.20583914
C        1.08676862       0.78028035       0.91831189
O        0.15850264       1.26788718       1.61121619
C       -1.24649838       0.66374889       0.19565574
C       -1.73138094      -0.69331801       0.59154590
O       -1.32129494      -1.72042381      -0.26888645
H        1.73149097      -1.17512729      -1.45260353
H        1.55835550       0.43867000      -2.14032384
H        2.76930835       0.14472734      -0.88595282
H        2.12774970       1.05886698       1.12781301
H       -1.73663666       1.46923827       0.72852855
H       -1.28716165       0.85654773      -0.87066105
H       -1.45238750      -0.89059354       1.63270400
H       -2.82744625      -0.65961372       0.55009464
H       -0.36068524      -1.64733518      -0.31643639
16
Frame=6 idx=006771 GeodesicLength=0.24656820688436212 rxn_smarts="[C:1](/[N:2]=[C:3](/[O:4][C:5]([C:6]([O:7][H:16])([H:14])[H:15])([H:12])[H:13])[H:11])([H:8])([H:9])[H:10]>>[C:1]([N:2]([C:3](=[O:4])[H:11])[C:5]([C:6]([O:7][H:16])([H:14])[H:15])([H:12])[H:13])([H:8])([H:9])[H:10]"
C        1.75428363      -0.10091551      -1.21749409
N        0.77327240       0.20544706      -0.20260261
C        1.08810521       0.76583056       0.92458480
O        0.15614490       1.25874989       1.61144297
C       -1.22938581       0.66194062       0.19394943
C       -1.73258114      -0.69045181       0.59277087
O       -1.32346536      -1.72515479      -0.26020186
H        1.72598554      -1.16439906      -1.46947944
H        1.55666305       0.45930247      -2.13461478
H        2.76662893       0.14627732      -0.88340582
H        2.12594910       1.06521397       1.12025282
H       -1.73105485       1.47110159       0.71192141
H       -1.28109418       0.84963006      -0.87365406
H       -1.46060247      -0.88591775       1.63621134
H       -2.82765660      -0.64998754       0.54393957
H       -0.36119234      -1.66666707      -0.29362056
16
Frame=7 idx=006771 GeodesicLength=0.28763758265166633 rxn_smarts="[C:1](/[N:2]=[C:3](/[O:4][C:5]([C:6]([O:7][H:16])([H:14])[H:15])([H:12])[H:13])[H:11])([H:8])([H:9])[H:10]>>[C:1]([N:2]([C:3](=[O:4])[H:11])[C:5]([C:6]([O:7][H:16])([H:14])[H:15])([H:12])[H:13])([H:8])([H:9])[H:10]"
C        1.75179861      -0.09365180      -1.21987128
N        0.77195835       0.19657719      -0.19956925
C        1.08945418       0.75203063       0.93040000
O        0.15377660       1.24985596       1.61138843
C       -1.21249455       0.66001893       0.19216236
C       -1.73363889      -0.68758557       0.59397911
O       -1.32520895      -1.72993920      -0.25119837
H        1.71977828      -1.15322364      -1.48668942
H        1.55523507       0.48036411      -2.12857567
H        2.76395311       0.14721186      -0.88081259
H        2.12394106       1.07043770       1.11319049
H       -1.72531589       1.47271201       0.69514390
H       -1.27508416       0.84254712      -0.87662380
H       -1.46879672      -0.88090420       1.63974049
H       -2.82764295      -0.64073787       0.53761007
H       -0.36171314      -1.68571323      -0.27027448
16
Frame=8 idx=006771 GeodesicLength=0.3287415684829945 rxn_smarts="[C:1](/[N:2]=[C:3](/[O:4][C:5]([C:6]([O:7][H:16])([H:14])[H:15])([H:12])[H:13])[H:11])([H:8])([H:9])[H:10]>>[C:1]([N:2]([C:3](=[O:4])[H:11])[C:5]([C:6]([O:7][H:16])([H:14])[H:15])([H:12])[H:13])([H:8])([H:9])[H:10]"
C        1.74923285      -0.08636547      -1.22220939
N        0.77072824       0.18778220      -0.19662745
C        1.09087789       0.73885483       0.93583384
O        0.15144161       1.24099645       1.61124512
C       -1.19577249       0.65801105       0.19038629
C       -1.73459688      -0.68472243       0.59507879
O       -1.32669370      -1.73467789      -0.24214787
H        1.71320665      -1.14179887      -1.50379198
H        1.55377461       0.50136779      -2.12226821
H        2.76125232       0.14786202      -0.87832117
H        2.12176881       1.07513710       1.10635191
H       -1.71935959       1.47405039       0.67839521
H       -1.26903792       0.83546488      -0.87946231
H       -1.47696573      -0.87574025       1.64314940
H       -2.82745001      -0.63177792       0.53107913
H       -0.36240666      -1.70444388      -0.24669132
16
Frame=9 idx=006771 GeodesicLength=0.3699206687495746 rxn_smarts="[C:1](/[N:2]=[C:3](/[O:4][C:5]([C:6]([O:7][H:16])([H:14])[H:15])([H:12])[H:13])[H:11])([H:8])([H:9])[H:10]>>[C:1]([N:2]([C:3](=[O:4])[H:11])[C:5]([C:6]([O:7][H:16])([H:14])[H:15])([H:12])[H:13])([H:8])([H:9])[H:10]"
C        1.74659491      -0.07891997      -1.22460849
N        0.76951939       0.17917672      -0.19393834
C        1.09225048       0.72608693       0.94090735
O        0.14907508       1.23247048       1.61074886
C       -1.17929662       0.65590345       0.18849385
C       -1.73540842      -0.68186258       0.59618537
O       -1.32775471      -1.73949137      -0.23271922
H        1.70587924      -1.12984369      -1.52133140
H        1.55272200       0.52290585      -2.11557585
H        2.75856145       0.14779267      -0.87574703
H        2.11947047       1.07874632       1.09998954
H       -1.71330973       1.47514327       0.66145404
H       -1.26308850       0.82817832      -0.88233032
H       -1.48507155      -0.87019923       1.64659391
H       -2.82703798      -0.62322347       0.52442942
H       -0.36310550      -1.72286370      -0.22255169
16
Frame=10 idx=006771 GeodesicLength=0.41114429601318797 rxn_smarts="[C:1](/[N:2]=[C:3](/[O:4][C:5]([C:6]([O:7][H:16])([H:14])[H:15])([H:12])[H:13])[H:11])([H:8])([H:9])[H:10]>>[C:1]([N:2]([C:3](=[O:4])[H:11])[C:5]([C:6]([O:7][H:16])([H:14])[H:15])([H:12])[H:13])([H:8])([H:9])[H:10]"
C        1.74389096      -0.07142594      -1.22698219
N        0.76836860       0.17066039      -0.19138179
C        1.09364583       0.71375689       0.94567273
O        0.14672206       1.22406448       1.61009654
C       -1.16300812       0.65372099       0.18657676
C       -1.73611578      -0.67900648       0.59720834
O       -1.32856200      -1.74427877      -0.22318524
H        1.69816791      -1.11757017      -1.53883723
H        1.55173374       0.54446369      -2.10858472
H        2.75584692       0.14739679      -0.87326088
H        2.11708149       1.08178682       1.09387113
H       -1.70709868       1.47597633       0.64451203
H       -1.25713732       0.82085127      -0.88512053
H       -1.49311416      -0.86446672       1.64993600
H       -2.82645064      -0.61497770       0.51763346
H       -0.36397080      -1.74095187      -0.19815440
16
Frame=11 idx=006771 GeodesicLength=0.45245197680316357 rxn_smarts="[C:1](/[N:2]=[C:3](/[O:4][C:5]([C:6]([O:7][H:16])([H:14])[H:15])([H:12])[H:13])[H:11])([H:8])([H:9])[H:10]>>[C:1]([N:2]([C:3](=[O:4])[H:11])[C:5]([C:6]([O:7][H:16])([H:14])[H:15])([H:12])[H:13])([H:8])([H:9])[H:10]"
C        1.74111828      -0.06381803      -1.22937549
N        0.76726889       0.16222657      -0.18898983
C        1.09502965       0.70173258       0.95016735
O        0.14436839       1.21585298       1.60920265
C       -1.14691167       0.65144493       0.18457716
C       -1.73671849      -0.67615514       0.59818851
O       -1.32904868      -1.74911477      -0.21336898
H        1.68987817      -1.10481534      -1.55660617
H        1.55098311       0.56635300      -2.10119083
H        2.75311844       0.14646213      -0.87080246
H        2.11462452       1.08413753       1.08803448
H       -1.70074703       1.47656325       0.62745930
H       -1.25119257       0.81337190      -0.88791038
H       -1.50115310      -0.85843354       1.65324674
H       -2.82568764      -0.60707098       0.51066511
H       -0.36493027      -1.75873706      -0.17329715
16
Frame=12 idx=006771 GeodesicLength=0.49384773672308957 rxn_smarts="[C:1](/[N:2]=[C:3](/[O:4][C:5]([C:6]([O:7][H:16])([H:14])[H:15])([H:12])[H:13])[H:11])([H:8])([H:9])[H:10]>>[C:1]([N:2]([C:3](=[O:4])[H:11])[C:5]([C:6]([O:7][H:16])([H:14])[H:15])([H:12])[H:13])([H:8])([H:9])[H:10]"
C        1.73828505      -0.05607305      -1.23180042
N        0.76620330       0.15389409      -0.18679587
C        1.09637114       0.68994471       0.95440640
O        0.14200431       1.20789051       1.60801928
C       -1.13102240       0.64908029       0.18247088
C       -1.73721193      -0.67330944       0.59914262
O       -1.32920487      -1.75401199      -0.20322368
H        1.68098818      -1.09151995      -1.57468395
H        1.55053469       0.58862433      -2.09337213
H        2.75037535       0.14495624      -0.86836908
H        2.11213560       1.08570075       1.08252303
H       -1.69428918       1.47690859       0.61026902
H       -1.24528535       0.80571084      -0.89073175
H       -1.50916840      -0.85206810       1.65654033
H       -2.82474836      -0.59952438       0.50355124
H       -0.36596715      -1.77620342      -0.14794593
16
Frame=13 idx=006771 GeodesicLength=0.5353355146310652 rxn_smarts="[C:1](/[N:2]=[C:3](/[O:4][C:5]([C:6]([O:7][H:16])([H:14])[H:15])([H:12])[H:13])[H:11])([H:8])([H:9])[H:10]>>[C:1]([N:2]([C:3](=[O:4])[H:11])[C:5]([C:6]([O:7][H:16])([H:14])[H:15])([H:12])[H:13])([H:8])([H:9])[H:10]"
C        1.73539828      -0.04816484      -1.23427160
N        0.76515453       0.14568196      -0.18483666
C        1.09763605       0.67831976       0.95840160
O        0.13962607       1.20022508       1.60649776
C       -1.11535420       0.64663590       0.18023291
C       -1.73759272      -0.67046611       0.60008355
O       -1.32901560      -1.75897861      -0.19269983
H        1.67151250      -1.07762590      -1.59309068
H        1.55042043       0.61129621      -2.08512147
H        2.74760652       0.14289368      -0.86597866
H        2.10965350       1.08633766       1.07739965
H       -1.68775729       1.47701709       0.59291808
H       -1.23944841       0.79784521      -0.89361455
H       -1.51714777      -0.84533375       1.65982781
H       -2.82363270      -0.59235555       0.49630675
H       -0.36705919      -1.79332779      -0.12205466
16
Frame=14 idx=006771 GeodesicLength=0.576885791584412 rxn_smarts="[C:1](/[N:2]=[C:3](/[O:4][C:5]([C:6]([O:7][H:16])([H:14])[H:15])([H:12])[H:13])[H:11])([H:8])([H:9])[H:10]>>[C:1]([N:2]([C:3](=[O:4])[H:11])[C:5]([C:6]([O:7][H:16])([H:14])[H:15])([H:12])[H:13])([H:8])([H:9])[H:10]"
C        1.73247562      -0.04012121      -1.23675610
N        0.76410703       0.13759966      -0.18311386
C        1.09880637       0.66684192       0.96216393
O        0.13723413       1.19287810       1.60464444
C       -1.09991555       0.64413902       0.17787787
C       -1.73785607      -0.66762050       0.60100186
O       -1.32857151      -1.76395601      -0.18191352
H        1.66169238      -1.06323370      -1.61155578
H        1.55050387       0.63410082      -2.07653164
H        2.74479541       0.14053803      -0.86370150
H        2.10722414       1.08601575       1.07269765
H       -1.68117970       1.47689104       0.57546166
H       -1.23370238       0.78983383      -0.89654020
H       -1.52498269      -0.83829732       1.66306169
H       -2.82234608      -0.58554237       0.48903422
H       -0.36828498      -1.81006706      -0.09583073
16
Frame=15 idx=006771 GeodesicLength=0.6185305952103729 rxn_smarts="[C:1](/[N:2]=[C:3](/[O:4][C:5]([C:6]([O:7][H:16])([H:14])[H:15])([H:12])[H:13])[H:11])([H:8])([H:9])[H:10]>>[C:1]([N:2]([C:3](=[O:4])[H:11])[C:5]([C:6]([O:7][H:16])([H:14])[H:15])([H:12])[H:13])([H:8])([H:9])[H:10]"
C        1.72953179      -0.03184469      -1.23932169
N        0.76301686       0.12971526      -0.18174342
C        1.09979395       0.65537203       0.96568453
O        0.13480263       1.18600205       1.60229532
C       -1.08475848       0.64158212       0.17531903
C       -1.73798882      -0.66477463       0.60196317
O       -1.32774979      -1.76902341      -0.17062056
H        1.65128231      -1.04809583      -1.63044231
H        1.55109307       0.65741358      -2.06748481
H        2.74195354       0.13758755      -0.86145194
H        2.10489498       1.08436212       1.06856592
H       -1.67463742       1.47653624       0.55776187
H       -1.22814658       0.78154238      -0.89960756
H       -1.53269870      -0.83080205       1.66633715
H       -2.82088027      -0.57917265       0.48173966
H       -0.36950907      -1.82640007      -0.06899436
16
Frame=16 idx=006771 GeodesicLength=0.6602386502311215 rxn_smarts="[C:1](/[N:2]=[C:3](/[O:4][C:5]([C:6]([O:7][H:16])([H:14])[H:15])([H:12])[H:13])[H:11])([H:8])([H:9])[H:10]>>[C:1]([N:2]([C:3](=[O:4])[H:11])[C:5]([C:6]([O:7][H:16])([H:14])[H:15])([H:12])[H:13])([H:8])([H:9])[H:10]"
C        1.72658078      -0.02337572      -1.24192822
N        0.76188399       0.12200414      -0.18069689
C        1.10060439       0.64390184       0.96898147
O        0.13234980       1.17955745       1.59950004
C       -1.06987251       0.63899149       0.17258501
C       -1.73800191      -0.66192083       0.60294160
O       -1.32665917      -1.77411361      -0.15896486
H        1.64058085      -1.03234963      -1.64943646
H        1.55197241       0.68091124      -2.05809182
H        2.73906148       0.13437869      -0.85932810
H        2.10270499       1.08143948       1.06499255
H       -1.66812901       1.47595861       0.53989557
H       -1.22277121       0.77304966      -0.90277986
H       -1.54022294      -0.82293639       1.66959208
H       -2.81925668      -0.57319663       0.47449178
H       -0.37082527      -1.84229980      -0.04175389
