12
Frame=0 idx=005339 GeodesicLength=0.0 rxn_smarts="[C:1]([C@@:2]1([H:10])[C:3]([H:11])([H:12])[C:4](=[O:5])[O:6]1)([H:7])([H:8])[H:9]>>[C:1]([C:2](=[C:3]([H:11])[H:12])[H:10])([H:7])([H:8])[H:9].[C:4](=[O:5])=[O:6]"
C       -1.50448441       0.05614563       0.43240266
C       -0.36027335       0.35261554      -0.44996992
C        0.91145699       0.71726851       0.00602577
C        1.40515698      -0.98931721      -0.22708695
O        2.52146981      -1.20903331       0.10331170
O        0.43209092      -1.59325240      -0.70465967
H       -2.10610839       0.97251048       0.48309513
H       -1.18399529      -0.19877570       1.44129612
H       -2.13126947      -0.73431400       0.02538812
H       -0.56838058       0.41193333      -1.51251958
H        1.55095464       1.28435799      -0.65939311
H        1.03338213       0.92986109       1.06210975
12
Frame=1 idx=005339 GeodesicLength=0.08771242420889885 rxn_smarts="[C:1]([C@@:2]1([H:10])[C:3]([H:11])([H:12])[C:4](=[O:5])[O:6]1)([H:7])([H:8])[H:9]>>[C:1]([C:2](=[C:3]([H:11])[H:12])[H:10])([H:7])([H:8])[H:9].[C:4](=[O:5])=[O:6]"
C       -1.52062498       0.06823533       0.42453175
C       -0.35759810       0.32248582      -0.44686634
C        0.90547472       0.71685825       0.01042662
C        1.44160355      -0.99433541      -0.22214200
O        2.58278100      -1.19073573       0.02444988
O        0.45223977      -1.63025100      -0.61893437
H       -2.06834343       1.01362003       0.52205471
H       -1.23155166      -0.25846900       1.42215704
H       -2.19585453      -0.66208008      -0.01703329
H       -0.55702436       0.37019713      -1.51231138
H        1.52940494       1.30488981      -0.65187707
H        1.01949309       0.93958485       1.06554446
12
Frame=2 idx=005339 GeodesicLength=0.17410875778668677 rxn_smarts="[C:1]([C@@:2]1([H:10])[C:3]([H:11])([H:12])[C:4](=[O:5])[O:6]1)([H:7])([H:8])[H:9]>>[C:1]([C:2](=[C:3]([H:11])[H:12])[H:10])([H:7])([H:8])[H:9].[C:4](=[O:5])=[O:6]"
C       -1.53609863       0.07994638       0.41627339
C       -0.35446097       0.29208489      -0.44202767
C        0.89967321       0.71646535       0.01547302
C        1.47809425      -0.99896078      -0.21753812
O        2.63772910      -1.17397492      -0.06169046
O        0.47572369      -1.66365233      -0.52617539
H       -2.02992875       1.04819208       0.56089663
H       -1.28507797      -0.31524342       1.39934567
H       -2.25393808      -0.58599876      -0.05955175
H       -0.54484432       0.32711655      -1.51029490
H        1.50715022       1.32470106      -0.64416537
H        1.00597825       0.94932390       1.06945496
12
Frame=3 idx=005339 GeodesicLength=0.2590721556824775 rxn_smarts="[C:1]([C@@:2]1([H:10])[C:3]([H:11])([H:12])[C:4](=[O:5])[O:6]1)([H:7])([H:8])[H:9]>>[C:1]([C:2](=[C:3]([H:11])[H:12])[H:10])([H:7])([H:8])[H:9].[C:4](=[O:5])=[O:6]"
C       -1.55066777       0.09084237       0.40767200
C       -0.35087267       0.26174268      -0.43553178
C        0.89410119       0.71657628       0.02069226
C        1.51425973      -1.00313543      -0.21236211
O        2.68453765      -1.15990408      -0.15335226
O        0.50319872      -1.69216102      -0.42710489
H       -1.99110039       1.07567948       0.60114998
H       -1.34355697      -0.37057465       1.37200746
H       -2.30524150      -0.50606038      -0.10263112
H       -0.53204730       0.28308294      -1.50646651
H        1.48456251       1.34344066      -0.63724209
H        0.99282679       0.96047114       1.07316904
12
Frame=4 idx=005339 GeodesicLength=0.34250659207867495 rxn_smarts="[C:1]([C@@:2]1([H:10])[C:3]([H:11])([H:12])[C:4](=[O:5])[O:6]1)([H:7])([H:8])[H:9]>>[C:1]([C:2](=[C:3]([H:11])[H:12])[H:10])([H:7])([H:8])[H:9].[C:4](=[O:5])=[O:6]"
C       -1.56409913       0.10047953       0.39883893
C       -0.34683850       0.23183304      -0.42752896
C        0.88878093       0.71770799       0.02557105
C        1.54987264      -1.00673362      -0.20571316
O        2.72170150      -1.14988807      -0.24844677
O        0.53502284      -1.71451988      -0.32274896
H       -1.95205224       1.09523652       0.64442541
H       -1.40603290      -0.42593444       1.33896668
H       -2.34945125      -0.42204482      -0.14628212
H       -0.51886254       0.23856946      -1.50089645
H        1.46201404       1.36089139      -0.63213353
H        0.97994461       0.97440289       1.07594788
12
Frame=5 idx=005339 GeodesicLength=0.42441246201365224 rxn_smarts="[C:1]([C@@:2]1([H:10])[C:3]([H:11])([H:12])[C:4](=[O:5])[O:6]1)([H:7])([H:8])[H:9]>>[C:1]([C:2](=[C:3]([H:11])[H:12])[H:10])([H:7])([H:8])[H:9].[C:4](=[O:5])=[O:6]"
C       -1.57624040       0.10850463       0.38988949
C       -0.34235504       0.20268476      -0.41826158
C        0.88366618       0.72037630       0.02953741
C        1.58486910      -1.00958765      -0.19650102
O        2.74806705      -1.14506399      -0.34491239
O        0.57127293      -1.72967171      -0.21389965
H       -1.91274371       1.10565275       0.69295350
H       -1.47164869      -0.48308922       1.29832706
H       -2.38638109      -0.33292406      -0.19034400
H       -0.50543897       0.19374974      -1.49376498
H        1.43979909       1.37686893      -0.62996592
H        0.96713354       0.99249950       1.07694208
12
Frame=6 idx=005339 GeodesicLength=0.5048139820170334 rxn_smarts="[C:1]([C@@:2]1([H:10])[C:3]([H:11])([H:12])[C:4](=[O:5])[O:6]1)([H:7])([H:8])[H:9]>>[C:1]([C:2](=[C:3]([H:11])[H:12])[H:10])([H:7])([H:8])[H:9].[C:4](=[O:5])=[O:6]"
C       -1.58690912       0.11444305       0.38098080
C       -0.33742949       0.17469128      -0.40804388
C        0.87869245       0.72506761       0.03202040
C        1.61935256      -1.01128799      -0.18465812
O        2.76287525      -1.14703955      -0.44018718
O        0.61177265      -1.73644282      -0.10126470
H       -1.87317502       1.10516867       0.74826890
H       -1.53977905      -0.54302656       1.24816583
H       -2.41562132      -0.23780418      -0.23372426
H       -0.49205200       0.14901887      -1.48529881
H        1.41806840       1.39157130      -0.63160675
H        0.95420470       1.01564033       1.07534776
12
Frame=7 idx=005339 GeodesicLength=0.5837108558027303 rxn_smarts="[C:1]([C@@:2]1([H:10])[C:3]([H:11])([H:12])[C:4](=[O:5])[O:6]1)([H:7])([H:8])[H:9]>>[C:1]([C:2](=[C:3]([H:11])[H:12])[H:10])([H:7])([H:8])[H:9].[C:4](=[O:5])=[O:6]"
C       -1.59602386       0.11799672       0.37234372
C       -0.33210614       0.14832193      -0.39732282
C        0.87376050       0.73220230       0.03236155
C        1.65322996      -1.01160152      -0.17014492
O        2.76581824      -1.15699321      -0.53133154
O        0.65601789      -1.73381206       0.01436386
H       -1.83346944       1.09145500       0.81208994
H       -1.60954881      -0.60641351       1.18593702
H       -2.43663882      -0.13550993      -0.27468081
H       -0.47903112       0.10473413      -1.47585905
H        1.39701606       1.40504376      -0.63799452
H        0.94097554       1.04457639       1.07023756
12
Frame=8 idx=005339 GeodesicLength=0.6610000014414423 rxn_smarts="[C:1]([C@@:2]1([H:10])[C:3]([H:11])([H:12])[C:4](=[O:5])[O:6]1)([H:7])([H:8])[H:9]>>[C:1]([C:2](=[C:3]([H:11])[H:12])[H:10])([H:7])([H:8])[H:9].[C:4](=[O:5])=[O:6]"
C       -1.60349034       0.11884817       0.36424245
C       -0.32646075       0.12416146      -0.38666717
C        0.86875065       0.74206657       0.03001374
C        1.68615956      -1.01038071      -0.15337886
O        2.75707679      -1.17609142      -0.61527628
O        0.70313572      -1.72075092       0.13188573
H       -1.79390826       1.06177220       0.88479054
H       -1.67975890      -0.67251841       1.10944343
H       -2.44870154      -0.02578298      -0.31033396
H       -0.46682680       0.06171097      -1.46591807
H        1.37684523       1.41742763      -0.64964536
H        0.92717864       1.07953745       1.06084382
12
Frame=9 idx=005339 GeodesicLength=0.7367004691654593 rxn_smarts="[C:1]([C@@:2]1([H:10])[C:3]([H:11])([H:12])[C:4](=[O:5])[O:6]1)([H:7])([H:8])[H:9]>>[C:1]([C:2](=[C:3]([H:11])[H:12])[H:10])([H:7])([H:8])[H:9].[C:4](=[O:5])=[O:6]"
C       -1.60922587       0.11672126       0.35697656
C       -0.32064975       0.10289264      -0.37685837
C        0.86353868       0.75480384       0.02454757
C        1.71747213      -1.00771892      -0.13490310
O        2.73749662      -1.20515929      -0.68867675
O        0.75171487      -1.69657693       0.24942445
H       -1.75472008       1.01340341       0.96525373
H       -1.74858616      -0.73913959       1.01734987
H       -2.45127903       0.09021786      -0.33681566
H       -0.45605791       0.02136098      -1.45619411
H        1.35790457       1.42885155      -0.66667634
H        0.91239192       1.12034318       1.04657214
12
Frame=10 idx=005339 GeodesicLength=0.811184388696856 rxn_smarts="[C:1]([C@@:2]1([H:10])[C:3]([H:11])([H:12])[C:4](=[O:5])[O:6]1)([H:7])([H:8])[H:9]>>[C:1]([C:2](=[C:3]([H:11])[H:12])[H:10])([H:7])([H:8])[H:9].[C:4](=[O:5])=[O:6]"
C       -1.61321825       0.11170242       0.35066831
C       -0.31475745       0.08500344      -0.36874148
C        0.85798066       0.77011208       0.01621807
C        1.74638588      -1.00417629      -0.11536084
O        2.70806635      -1.24398286      -0.74963502
O        0.80020416      -1.66156528       0.36451557
H       -1.71660823       0.94549283       1.04932877
H       -1.81300681      -0.80203326       0.91099245
H       -2.44458305       0.20875103      -0.35015277
H       -0.44702402      -0.01452587      -1.44763191
H        1.34067145       1.43942822      -0.68794738
H        0.89588933       1.16579355       1.02774625
12
Frame=11 idx=005339 GeodesicLength=0.8858420047570801 rxn_smarts="[C:1]([C@@:2]1([H:10])[C:3]([H:11])([H:12])[C:4](=[O:5])[O:6]1)([H:7])([H:8])[H:9]>>[C:1]([C:2](=[C:3]([H:11])[H:12])[H:10])([H:7])([H:8])[H:9].[C:4](=[O:5])=[O:6]"
C       -1.61556258       0.10393749       0.34529040
C       -0.30871601       0.07054271      -0.36282574
C        0.85208452       0.78747043       0.00594760
C        1.77260328      -1.00046038      -0.09566241
O        2.66963956      -1.29199900      -0.79834060
O        0.84770759      -1.61671922       0.47496442
H       -1.68030182       0.85998660       1.13084708
H       -1.87049468      -0.85683577       0.79453964
H       -2.42983872       0.32455254      -0.34794302
H       -0.43953456      -0.04431851      -1.44099076
H        1.32561029       1.44960474      -0.71136625
H        0.87680313       1.21423836       1.00553964
12
Frame=12 idx=005339 GeodesicLength=0.9619980439634503 rxn_smarts="[C:1]([C@@:2]1([H:10])[C:3]([H:11])([H:12])[C:4](=[O:5])[O:6]1)([H:7])([H:8])[H:9]>>[C:1]([C:2](=[C:3]([H:11])[H:12])[H:10])([H:7])([H:8])[H:9].[C:4](=[O:5])=[O:6]"
C       -1.61624860       0.09340460       0.34083704
C       -0.30292592       0.05902298      -0.35979737
C        0.84553580       0.80639995      -0.00659516
C        1.79581806      -0.99675673      -0.07652385
O        2.62560138      -1.34797107      -0.83176102
O        0.89343648      -1.56297416       0.57870716
H       -1.64312204       0.75675104       1.20746791
H       -1.92196621      -0.90097788       0.67029724
H       -2.40832004       0.43626935      -0.32835418
H       -0.43459149      -0.06724290      -1.43709446
H        1.31213644       1.45953526      -0.73678028
H        0.85464612       1.26453955       0.97959698
12
Frame=13 idx=005339 GeodesicLength=1.038767626461141 rxn_smarts="[C:1]([C@@:2]1([H:10])[C:3]([H:11])([H:12])[C:4](=[O:5])[O:6]1)([H:7])([H:8])[H:9]>>[C:1]([C:2](=[C:3]([H:11])[H:12])[H:10])([H:7])([H:8])[H:9].[C:4](=[O:5])=[O:6]"
C       -1.61553723       0.08164618       0.33695160
C       -0.29675253       0.05012602      -0.35874781
C        0.83891223       0.82550326      -0.01805788
C        1.81634319      -0.99478030      -0.05986423
O        2.57494753      -1.40918043      -0.85616813
O        0.93787914      -1.50432647       0.67247570
H       -1.61014119       0.64967209       1.26875696
H       -1.96259242      -0.93106256       0.55099651
H       -2.38338911       0.53180416      -0.29624485
H       -0.43037271      -0.08198184      -1.43563668
H        1.30128813       1.46976864      -0.75892989
H        0.82941498       1.31281125       0.95446870
12
Frame=14 idx=005339 GeodesicLength=1.116782284586752 rxn_smarts="[C:1]([C@@:2]1([H:10])[C:3]([H:11])([H:12])[C:4](=[O:5])[O:6]1)([H:7])([H:8])[H:9]>>[C:1]([C:2](=[C:3]([H:11])[H:12])[H:10])([H:7])([H:8])[H:9].[C:4](=[O:5])=[O:6]"
C       -1.61361109       0.06843726       0.33395227
C       -0.29087822       0.04258729      -0.35982805
C        0.83168794       0.84471617      -0.03001461
C        1.83444629      -0.99402017      -0.04579252
O        2.52317185      -1.47427176      -0.86734708
O        0.98122490      -1.44160345       0.75594489
H       -1.57676471       0.53628767       1.31866909
H       -1.99844451      -0.94873988       0.43449681
H       -2.35487060       0.61698506      -0.25175578
H       -0.42857421      -0.09028923      -1.43653454
H        1.29116632       1.48049652      -0.78001835
H        0.80144605       1.35941452       0.92822789
12
Frame=15 idx=005339 GeodesicLength=1.1946183511828798 rxn_smarts="[C:1]([C@@:2]1([H:10])[C:3]([H:11])([H:12])[C:4](=[O:5])[O:6]1)([H:7])([H:8])[H:9]>>[C:1]([C:2](=[C:3]([H:11])[H:12])[H:10])([H:7])([H:8])[H:9].[C:4](=[O:5])=[O:6]"
C       -1.61081683       0.05485063       0.33138599
C       -0.28477959       0.03648095      -0.36213420
C        0.82440240       0.86358414      -0.04056776
C        1.85067358      -0.99554606      -0.03472126
O        2.46850439      -1.54139239      -0.87089121
O        1.02454059      -1.37728292       0.82926269
H       -1.54636720       0.42621357       1.35460441
H       -2.02684797      -0.95541143       0.32696134
H       -2.32599363       0.68640773      -0.20083879
H       -0.42762398      -0.09252854      -1.43911128
H        1.28269564       1.49199280      -0.79758138
H        0.77161261       1.40263150       0.90363146
12
Frame=16 idx=005339 GeodesicLength=1.2734068573018522 rxn_smarts="[C:1]([C@@:2]1([H:10])[C:3]([H:11])([H:12])[C:4](=[O:5])[O:6]1)([H:7])([H:8])[H:9]>>[C:1]([C:2](=[C:3]([H:11])[H:12])[H:10])([H:7])([H:8])[H:9].[C:4](=[O:5])=[O:6]"
C       -1.60718161       0.04051144       0.32927785
C       -0.27865136       0.03096934      -0.36585208
C        0.81660792       0.88243318      -0.05111232
C        1.86557324      -0.99867348      -0.02537221
O        2.41262625      -1.61016584      -0.86481332
O        1.06838583      -1.31075952       0.89418465
H       -1.51580323       0.31401527       1.38053179
H       -2.05253015      -0.95207972       0.22360646
H       -2.29524388       0.74652180      -0.14198790
H       -0.42804204      -0.09081198      -1.44326214
H        1.27467874       1.50414173      -0.81390971
H        0.73958031       1.44389777       0.87870892
