14
Frame=0 idx=005728 GeodesicLength=0.0 rxn_smarts="[C:1]([C@@:2]1([H:10])[C:3]([H:11])([H:12])[C:4]([H:13])([H:14])[C:5]1=[O:6])([H:7])([H:8])[H:9]>>[C:1]([C:2](=[C:3]([H:11])[H:12])[H:10])([H:7])([H:8])[H:9].[C:4](=[C:5]=[O:6])([H:13])[H:14]"
C        1.80916697      -0.31398864       0.23178884
C        0.55341414       0.30152623      -0.32169142
C       -0.35629479      -0.42555740      -1.10342292
C       -1.86979850       0.67340997       0.38928213
C       -0.74922750      -0.00234668       0.82018970
O       -0.49659134      -0.79836226       1.69339626
H        2.09409504       0.17081042       1.16457418
H        1.66629542      -1.37324836       0.43685264
H        2.62257602      -0.19645497      -0.48717309
H        0.61410346       1.36449179      -0.53388587
H       -0.95374986       0.01773041      -1.88495519
H       -0.37628927      -1.50724340      -1.03294440
H       -1.78487183       1.44210348      -0.36198011
H       -2.77282795       0.64712940       0.98996926
14
Frame=1 idx=005728 GeodesicLength=0.08016754068606864 rxn_smarts="[C:1]([C@@:2]1([H:10])[C:3]([H:11])([H:12])[C:4]([H:13])([H:14])[C:5]1=[O:6])([H:7])([H:8])[H:9]>>[C:1]([C:2](=[C:3]([H:11])[H:12])[H:10])([H:7])([H:8])[H:9].[C:4](=[C:5]=[O:6])([H:13])[H:14]"
C        1.81302463      -0.31827563       0.22461944
C        0.55649799       0.30220939      -0.32154770
C       -0.36191516      -0.41946756      -1.10148547
C       -1.87775142       0.66032305       0.38504779
C       -0.75338204       0.00789123       0.84746549
O       -0.50159314      -0.77628436       1.72897532
H        2.10495918       0.16715139       1.15516832
H        1.66654351      -1.37674976       0.43208560
H        2.62452373      -0.20504095      -0.49717484
H        0.62681654       1.36375662      -0.54021784
H       -0.93607939       0.02502480      -1.90004686
H       -0.38082250      -1.50162297      -1.03514465
H       -1.78739315       1.45054863      -0.34330095
H       -2.79342878       0.62053613       0.96555634
14
Frame=2 idx=005728 GeodesicLength=0.1603059102887106 rxn_smarts="[C:1]([C@@:2]1([H:10])[C:3]([H:11])([H:12])[C:4]([H:13])([H:14])[C:5]1=[O:6])([H:7])([H:8])[H:9]>>[C:1]([C:2](=[C:3]([H:11])[H:12])[H:10])([H:7])([H:8])[H:9].[C:4](=[C:5]=[O:6])([H:13])[H:14]"
C        1.81657597      -0.32269987       0.21755527
C        0.55959933       0.30299841      -0.32164385
C       -0.36740737      -0.41296730      -1.10011710
C       -1.88506782       0.64714898       0.38106757
C       -0.75778782       0.01857023       0.87476458
O       -0.50677335      -0.75312397       1.76487672
H        2.11522037       0.16316081       1.14600559
H        1.66628907      -1.38038368       0.42722053
H        2.62639479      -0.21376633      -0.50677374
H        0.63973500       1.36298866      -0.54681399
H       -0.91790300       0.03209079      -1.91533057
H       -0.38520396      -1.49560203      -1.03808857
H       -1.79122844       1.45787590      -0.32443470
H       -2.81244277       0.59370942       0.94171225
14
Frame=3 idx=005728 GeodesicLength=0.2404229402169097 rxn_smarts="[C:1]([C@@:2]1([H:10])[C:3]([H:11])([H:12])[C:4]([H:13])([H:14])[C:5]1=[O:6])([H:7])([H:8])[H:9]>>[C:1]([C:2](=[C:3]([H:11])[H:12])[H:10])([H:7])([H:8])[H:9].[C:4](=[C:5]=[O:6])([H:13])[H:14]"
C        1.81982486      -0.32727076       0.21059206
C        0.56272654       0.30389598      -0.32199029
C       -0.37276963      -0.40603918      -1.09933371
C       -1.89174305       0.63389351       0.37738716
C       -0.76243971       0.02968662       0.90210180
O       -0.51212528      -0.72883836       1.80111737
H        2.12488390       0.15882101       1.13709371
H        1.66552204      -1.38415842       0.42224657
H        2.62820045      -0.22264345      -0.51597125
H        0.65287573       1.36218881      -0.55365899
H       -0.89923678       0.03895254      -1.93079353
H       -0.38944280      -1.48916183      -1.04179946
H       -1.79636521       1.46407359      -0.30546527
H       -2.82991106       0.56659994       0.91847383
14
Frame=4 idx=005728 GeodesicLength=0.32052679561770536 rxn_smarts="[C:1]([C@@:2]1([H:10])[C:3]([H:11])([H:12])[C:4]([H:13])([H:14])[C:5]1=[O:6])([H:7])([H:8])[H:9]>>[C:1]([C:2](=[C:3]([H:11])[H:12])[H:10])([H:7])([H:8])[H:9].[C:4](=[C:5]=[O:6])([H:13])[H:14]"
C        1.82277630      -0.33199443       0.20372594
C        0.56588842       0.30490186      -0.32259874
C       -0.37799303      -0.39867124      -1.09915548
C       -1.89778238       0.62053659       0.37403584
C       -0.76733437       0.04122060       0.92948766
O       -0.51764651      -0.70339707       1.83770657
H        2.13394793       0.15411589       1.12844364
H        1.66424027      -1.38807957       0.41714725
H        2.62995496      -0.23167207      -0.52476471
H        0.66625118       1.36135407      -0.56073734
H       -0.88009311       0.04562675      -1.94642910
H       -0.39353539      -1.48228881      -1.04630466
H       -1.80278177       1.46913595      -0.28647460
H       -2.84589251       0.53921147       0.89591772
14
Frame=5 idx=005728 GeodesicLength=0.4006079569916569 rxn_smarts="[C:1]([C@@:2]1([H:10])[C:3]([H:11])([H:12])[C:4]([H:13])([H:14])[C:5]1=[O:6])([H:7])([H:8])[H:9]>>[C:1]([C:2](=[C:3]([H:11])[H:12])[H:10])([H:7])([H:8])[H:9].[C:4](=[C:5]=[O:6])([H:13])[H:14]"
C        1.82541091      -0.33687692       0.19696508
C        0.56907845       0.30601531      -0.32348291
C       -0.38307148      -0.39084757      -1.09962469
C       -1.90320071       0.60699946       0.37103816
C       -0.77249490       0.05317038       0.95691966
O       -0.52334099      -0.67672924       1.87465996
H        2.14238097       0.14903364       1.12007730
H        1.66240744      -1.39215023       0.41192405
H        2.63165343      -0.24086296      -0.53313303
H        0.67986362       1.36048390      -0.56803084
H       -0.86048550       0.05215062      -1.96223883
H       -0.39746987      -1.47496547      -1.05166933
H       -1.81049102       1.47303004      -0.26753632
H       -2.86024035       0.51154903       0.87413172
14
Frame=6 idx=005728 GeodesicLength=0.48066615336960977 rxn_smarts="[C:1]([C@@:2]1([H:10])[C:3]([H:11])([H:12])[C:4]([H:13])([H:14])[C:5]1=[O:6])([H:7])([H:8])[H:9]>>[C:1]([C:2](=[C:3]([H:11])[H:12])[H:10])([H:7])([H:8])[H:9].[C:4](=[C:5]=[O:6])([H:13])[H:14]"
C        1.82772957      -0.34194364       0.19029932
C        0.57231513       0.30724627      -0.32465536
C       -0.38801691      -0.38252837      -1.10073893
C       -1.90798145       0.59330833       0.36844804
C       -0.77789342       0.06559258       0.98443408
O       -0.52918875      -0.64872169       1.91201480
H        2.15020016       0.14353781       1.11199124
H        1.65999030      -1.39638622       0.40656978
H        2.63329916      -0.25026584      -0.54109002
H        0.69375978       1.35958125      -0.57553757
H       -0.84043547       0.05858113      -1.97820000
H       -0.40128858      -1.46714881      -1.05789113
H       -1.81946733       1.47576688      -0.24869750
H       -2.87302217       0.48338033       0.85305325
14
Frame=7 idx=005728 GeodesicLength=0.5607063176448345 rxn_smarts="[C:1]([C@@:2]1([H:10])[C:3]([H:11])([H:12])[C:4]([H:13])([H:14])[C:5]1=[O:6])([H:7])([H:8])[H:9]>>[C:1]([C:2](=[C:3]([H:11])[H:12])[H:10])([H:7])([H:8])[H:9].[C:4](=[C:5]=[O:6])([H:13])[H:14]"
C        1.82973237      -0.34720394       0.18372841
C        0.57561032       0.30859428      -0.32613385
C       -0.39281246      -0.37369740      -1.10252954
C       -1.91212602       0.57939950       0.36627037
C       -0.78353159       0.07848824       1.01203628
O       -0.53519787      -0.61931810       1.94976951
H        2.15739365       0.13761149       1.10419982
H        1.65697422      -1.40079297       0.40107402
H        2.63490484      -0.25989453      -0.54862378
H        0.70796209       1.35864238      -0.58324855
H       -0.81993935       0.06495858      -1.99432350
H       -0.40497719      -1.45881979      -1.06501276
H       -1.82970668       1.47731180      -0.23002543
H       -2.88428632       0.45472046       0.83281900
14
Frame=8 idx=005728 GeodesicLength=0.6407523439002379 rxn_smarts="[C:1]([C@@:2]1([H:10])[C:3]([H:11])([H:12])[C:4]([H:13])([H:14])[C:5]1=[O:6])([H:7])([H:8])[H:9]>>[C:1]([C:2](=[C:3]([H:11])[H:12])[H:10])([H:7])([H:8])[H:9].[C:4](=[C:5]=[O:6])([H:13])[H:14]"
C        1.83140758      -0.35268326       0.17724309
C        0.57898349       0.31006831      -0.32793308
C       -0.39745806      -0.36430825      -1.10500781
C       -1.91562670       0.56524422       0.36454488
C       -0.78940018       0.09191110       1.03976138
O       -0.54136388      -0.58837772       1.98796173
H        2.16395718       0.13121831       1.09670146
H        1.65330776      -1.40538146       0.39542384
H        2.63646203      -0.26980850      -0.55573907
H        0.72252072       1.35766862      -0.59115375
H       -0.79900897       0.07135364      -2.01058861
H       -0.40855435      -1.44992610      -1.07305536
H       -1.84120506       1.47764881      -0.21157352
H       -2.89402155       0.42537227       0.81341483
14
Frame=9 idx=005728 GeodesicLength=0.7207737945969807 rxn_smarts="[C:1]([C@@:2]1([H:10])[C:3]([H:11])([H:12])[C:4]([H:13])([H:14])[C:5]1=[O:6])([H:7])([H:8])[H:9]>>[C:1]([C:2](=[C:3]([H:11])[H:12])[H:10])([H:7])([H:8])[H:9].[C:4](=[C:5]=[O:6])([H:13])[H:14]"
C        1.83275637      -0.35843919       0.17083705
C        0.58245621       0.31168720      -0.33004389
C       -0.40198951      -0.35428040      -1.10813802
C       -1.91843281       0.55092590       0.36326552
C       -0.79539688       0.10604668       1.06770684
O       -0.54755987      -0.55566776       2.02660072
H        2.16996519       0.12431315       1.08946253
H        1.64891912      -1.41019807       0.38964902
H        2.63795888      -0.28013767      -0.56247262
H        0.73750781       1.35667146      -0.59923909
H       -0.77765335       0.07794173      -2.02700562
H       -0.41213793      -1.44039490      -1.08197661
H       -1.85397419       1.47655972      -0.19319878
H       -2.90241906       0.39497215       0.79455295
14
Frame=10 idx=005728 GeodesicLength=0.8007782299883858 rxn_smarts="[C:1]([C@@:2]1([H:10])[C:3]([H:11])([H:12])[C:4]([H:13])([H:14])[C:5]1=[O:6])([H:7])([H:8])[H:9]>>[C:1]([C:2](=[C:3]([H:11])[H:12])[H:10])([H:7])([H:8])[H:9].[C:4](=[C:5]=[O:6])([H:13])[H:14]"
C        1.83374228      -0.36446097       0.16452257
C        0.58603025       0.31344823      -0.33250952
C       -0.40636315      -0.34360521      -1.11200641
C       -1.92056036       0.53624592       0.36247986
C       -0.80161736       0.12082099       1.09580031
O       -0.55391461      -0.52115174       2.06566783
H        2.17530218       0.11687189       1.08254634
H        1.64376960      -1.41522028       0.38371714
H        2.63939409      -0.29084969      -0.56875767
H        0.75293121       1.35563889      -0.60750898
H       -0.75587613       0.08469618      -2.04356820
H       -0.41563024      -1.43020507      -1.09190681
H       -1.86803278       1.47413717      -0.17511902
H       -2.90917497       0.36363368       0.77664256
14
Frame=11 idx=005728 GeodesicLength=0.8807702969590728 rxn_smarts="[C:1]([C@@:2]1([H:10])[C:3]([H:11])([H:12])[C:4]([H:13])([H:14])[C:5]1=[O:6])([H:7])([H:8])[H:9]>>[C:1]([C:2](=[C:3]([H:11])[H:12])[H:10])([H:7])([H:8])[H:9].[C:4](=[C:5]=[O:6])([H:13])[H:14]"
C        1.83435379      -0.37077315       0.15829680
C        0.58971990       0.31535981      -0.33534547
C       -0.41058450      -0.33223562      -1.11662043
C       -1.92196916       0.52117478       0.36221746
C       -0.80804260       0.13629762       1.12407736
O       -0.56042113      -0.48470543       2.10516588
H        2.17995814       0.10885713       1.07595908
H        1.63781079      -1.42046243       0.37762363
H        2.64076425      -0.30199402      -0.57459207
H        0.76883400       1.35456969      -0.61596559
H       -0.73369390       0.09169571      -2.06027023
H       -0.41905889      -1.41930674      -1.10286414
H       -1.88338740       1.47032743      -0.15733746
H       -2.91428329       0.33119522       0.75965518
14
Frame=12 idx=005728 GeodesicLength=0.9607490703388882 rxn_smarts="[C:1]([C@@:2]1([H:10])[C:3]([H:11])([H:12])[C:4]([H:13])([H:14])[C:5]1=[O:6])([H:7])([H:8])[H:9]>>[C:1]([C:2](=[C:3]([H:11])[H:12])[H:10])([H:7])([H:8])[H:9].[C:4](=[C:5]=[O:6])([H:13])[H:14]"
C        1.83456519      -0.37741257       0.15216193
C        0.59354342       0.31743828      -0.33857111
C       -0.41466230      -0.32010081      -1.12199330
C       -1.92261638       0.50567475       0.36251296
C       -0.81465977       0.15258181       1.15256389
O       -0.56707638      -0.44613760       2.14509515
H        2.18391082       0.10021522       1.06971257
H        1.63095976      -1.42594418       0.37137061
H        2.64205395      -0.31365132      -0.57996231
H        0.78527890       1.35346616      -0.62461145
H       -0.71112432       0.09905188      -2.07710350
H       -0.42245822      -1.40762724      -1.11488712
H       -1.90007273       1.46503434      -0.13986325
H       -2.91764195       0.29741129       0.74357491
14
Frame=13 idx=005728 GeodesicLength=1.0407209039794463 rxn_smarts="[C:1]([C@@:2]1([H:10])[C:3]([H:11])([H:12])[C:4]([H:13])([H:14])[C:5]1=[O:6])([H:7])([H:8])[H:9]>>[C:1]([C:2](=[C:3]([H:11])[H:12])[H:10])([H:7])([H:8])[H:9].[C:4](=[C:5]=[O:6])([H:13])[H:14]"
C        1.83435835      -0.38440622       0.14611551
C        0.59752209       0.31969106      -0.34220396
C       -0.41858505      -0.30714667      -1.12814006
C       -1.92245785       0.48968416       0.36338605
C       -0.82145318       0.16974072       1.18128543
O       -0.57389070      -0.40530771       2.18543301
H        2.18713181       0.09090323       1.06381778
H        1.62315786      -1.43167497       0.36494464
H        2.64325552      -0.32587625      -0.58485746
H        0.80231858       1.35232154      -0.63344327
H       -0.68817403       0.10685414      -2.09406517
H       -0.42583227      -1.39510608      -1.12801195
H       -1.91810760       1.45816754      -0.12271606
H       -2.91924353       0.26215552       0.72845550
14
Frame=14 idx=005728 GeodesicLength=1.120696870615488 rxn_smarts="[C:1]([C@@:2]1([H:10])[C:3]([H:11])([H:12])[C:4]([H:13])([H:14])[C:5]1=[O:6])([H:7])([H:8])[H:9]>>[C:1]([C:2](=[C:3]([H:11])[H:12])[H:10])([H:7])([H:8])[H:9].[C:4](=[C:5]=[O:6])([H:13])[H:14]"
C        1.83369168      -0.39180182       0.14016380
C        0.60167877       0.32214048      -0.34626540
C       -0.42235748      -0.29327781      -1.13507695
C       -1.92142969       0.47314538       0.36487820
C       -0.82841962       0.18791608       1.21026629
O       -0.58087234      -0.36196990       2.22615673
H        2.18958098       0.08085260       1.05829268
H        1.61428858      -1.43767639       0.35834907
H        2.64433863      -0.33877871      -0.58925326
H        0.82003625       1.35113587      -0.64246272
H       -0.66486875       0.11524957      -2.11114327
H       -0.42921639      -1.38164319      -1.14229422
H       -1.93755627       1.44958477      -0.10591270
H       -2.91889435       0.22512308       0.71430177
14
Frame=15 idx=005728 GeodesicLength=1.2006916469476525 rxn_smarts="[C:1]([C@@:2]1([H:10])[C:3]([H:11])([H:12])[C:4]([H:13])([H:14])[C:5]1=[O:6])([H:7])([H:8])[H:9]>>[C:1]([C:2](=[C:3]([H:11])[H:12])[H:10])([H:7])([H:8])[H:9].[C:4](=[C:5]=[O:6])([H:13])[H:14]"
C        1.83252997      -0.39963985       0.13430821
C        0.60604091       0.32480269      -0.35077670
C       -0.42597371      -0.27840799      -1.14281445
C       -1.91946190       0.45600262       0.36702203
C       -0.83555063       0.20723139       1.23952948
O       -0.58804703      -0.31591775       2.26722271
H        2.19121123       0.07000053       1.05315400
H        1.60425117      -1.44396424       0.35157394
H        2.64527958      -0.35244995      -0.59312942
H        0.83851045       1.34990027      -0.65167052
H       -0.64122891       0.12437179      -2.12832365
H       -0.43263049      -1.36714325      -1.15778003
H       -1.95847063       1.43913714      -0.08946944
H       -2.91646001       0.18607658       0.70115384
14
Frame=16 idx=005728 GeodesicLength=1.280719398553783 rxn_smarts="[C:1]([C@@:2]1([H:10])[C:3]([H:11])([H:12])[C:4]([H:13])([H:14])[C:5]1=[O:6])([H:7])([H:8])[H:9]>>[C:1]([C:2](=[C:3]([H:11])[H:12])[H:10])([H:7])([H:8])[H:9].[C:4](=[C:5]=[O:6])([H:13])[H:14]"
C        1.83082627      -0.40797485       0.12855934
C        0.61064064       0.32769923      -0.35576442
C       -0.42942323      -0.26242809      -1.15138041
C       -1.91646461       0.43816834       0.36984997
C       -0.84285326       0.22784201       1.26907591
O       -0.59544540      -0.26687239       2.30856553
H        2.19196094       0.05826786       1.04843164
H        1.59291438      -1.45056386       0.34461645
H        2.64605010      -0.36700830      -0.59644579
H        0.85783717       1.34860860      -0.66106397
H       -0.61727612       0.13439849      -2.14560408
H       -0.43609152      -1.35149281      -1.17455681
H       -1.98093212       1.42661179      -0.07340802
H       -2.91174324       0.14474398       0.68912467
