15
Frame=0 idx=009324 GeodesicLength=0.0 rxn_smarts="[C:1]([n:2]1[c:3]([H:11])[c:4]([C:5]([H:12])([H:13])[H:14])[c:6]([H:15])[n:7]1)([H:8])([H:9])[H:10]>>[C:1]([N:2]1[C+:3]([H:11])[C:4](=[C:5]([H:13])[H:14])[C-:6]([H:15])[N:7]1[H:12])([H:8])([H:9])[H:10]"
C       -2.23833054      -0.03380254      -0.48453752
N       -0.88542067       0.09107776       0.01185806
C       -0.06539104      -0.86382590       0.37654096
C        1.13390443      -0.20316052       0.73313705
C        2.34500646      -0.56167522       0.23084905
C        0.70976259       1.16417342       0.92128675
N       -0.47130174       1.34795152       0.44207655
H       -2.41175042       0.77897142      -1.18274246
H       -2.94496678       0.01879814       0.34538044
H       -2.33242842      -0.98571149      -1.00132032
H       -0.21371324      -1.88480567       0.06402677
H        0.36959716       0.57350125      -1.83178325
H        2.51720366      -1.55502988      -0.16250181
H        3.18927912       0.11327943       0.27050769
H        1.29854949       2.00025827       1.26722209
15
Frame=1 idx=009324 GeodesicLength=0.0730816717402021 rxn_smarts="[C:1]([n:2]1[c:3]([H:11])[c:4]([C:5]([H:12])([H:13])[H:14])[c:6]([H:15])[n:7]1)([H:8])([H:9])[H:10]>>[C:1]([N:2]1[C+:3]([H:11])[C:4](=[C:5]([H:13])[H:14])[C-:6]([H:15])[N:7]1[H:12])([H:8])([H:9])[H:10]"
C       -2.24189077      -0.03881200      -0.48566725
N       -0.89356607       0.08628780       0.02053120
C       -0.07198243      -0.86712093       0.39480770
C        1.13403287      -0.20767261       0.73197560
C        2.33522108      -0.54470866       0.17743744
C        0.70337305       1.15542136       0.93492156
N       -0.45811793       1.34711441       0.40339201
H       -2.40607857       0.75494633      -1.20812716
H       -2.95351676       0.04345670       0.33765139
H       -2.34219914      -1.00389488      -0.97658508
H       -0.22529779      -1.89118285       0.09455912
H        0.42663573       0.61069799      -1.78597679
H        2.51042906      -1.54755283      -0.19028451
H        3.19137512       0.10990200       0.27325693
H        1.29158255       1.99311818       1.27810785
15
Frame=2 idx=009324 GeodesicLength=0.14628862130395448 rxn_smarts="[C:1]([n:2]1[c:3]([H:11])[c:4]([C:5]([H:12])([H:13])[H:14])[c:6]([H:15])[n:7]1)([H:8])([H:9])[H:10]>>[C:1]([N:2]1[C+:3]([H:11])[C:4](=[C:5]([H:13])[H:14])[C-:6]([H:15])[N:7]1[H:12])([H:8])([H:9])[H:10]"
C       -2.24523316      -0.04348159      -0.48646165
N       -0.90105592       0.08218240       0.02826196
C       -0.07780793      -0.86999106       0.41135863
C        1.13407195      -0.21195968       0.73173875
C        2.32575839      -0.52889074       0.13144758
C        0.69715965       1.14742710       0.94638387
N       -0.44511036       1.34443755       0.36734726
H       -2.40098582       0.73161242      -1.23142898
H       -2.96099329       0.06678341       0.33015605
H       -2.35188363      -1.02044807      -0.95255044
H       -0.23533978      -1.89655923       0.12140470
H        0.48185710       0.64553617      -1.74096287
H        2.50325186      -1.53840768      -0.21745011
H        3.19193298       0.10477527       0.27372288
H        1.28437795       1.98698373       1.28703237
15
Frame=3 idx=009324 GeodesicLength=0.21948648408935809 rxn_smarts="[C:1]([n:2]1[c:3]([H:11])[c:4]([C:5]([H:12])([H:13])[H:14])[c:6]([H:15])[n:7]1)([H:8])([H:9])[H:10]>>[C:1]([N:2]1[C+:3]([H:11])[C:4](=[C:5]([H:13])[H:14])[C-:6]([H:15])[N:7]1[H:12])([H:8])([H:9])[H:10]"
C       -2.24840111      -0.04785225      -0.48701958
N       -0.90793235       0.07864809       0.03501090
C       -0.08301520      -0.87250963       0.42646063
C        1.13401763      -0.21606601       0.73231096
C        2.31682444      -0.51419466       0.09181846
C        0.69109353       1.14007117       0.95611636
N       -0.43234798       1.34025839       0.33351842
H       -2.39645810       0.70873463      -1.25303380
H       -2.96753103       0.08907408       0.32278826
H       -2.36152746      -1.03557275      -0.92899203
H       -0.24421654      -1.90116401       0.14544490
H        0.53559467       0.67831621      -1.69665811
H        2.49549926      -1.52808605      -0.24465257
H        3.19148830       0.09865429       0.27248460
H        1.27691194       1.98168850       1.29440258
15
Frame=4 idx=009324 GeodesicLength=0.29258812879400353 rxn_smarts="[C:1]([n:2]1[c:3]([H:11])[c:4]([C:5]([H:12])([H:13])[H:14])[c:6]([H:15])[n:7]1)([H:8])([H:9])[H:10]>>[C:1]([N:2]1[C+:3]([H:11])[C:4](=[C:5]([H:13])[H:14])[C-:6]([H:15])[N:7]1[H:12])([H:8])([H:9])[H:10]"
C       -2.25151397      -0.05196098      -0.48732660
N       -0.91426853       0.07559829       0.04073226
C       -0.08767741      -0.87472811       0.44013259
C        1.13391743      -0.21999316       0.73336399
C        2.30853300      -0.50039115       0.05720771
C        0.68515119       1.13325642       0.96434260
N       -0.41986719       1.33483310       0.30151382
H       -2.39264957       0.68616502      -1.27306803
H       -2.97321496       0.11047020       0.31561189
H       -2.37129682      -1.04936929      -0.90571505
H       -0.25213902      -1.90511728       0.16701090
H        0.58791187       0.70944271      -1.65307959
H        2.48733920      -1.51714783      -0.27161691
H        3.19060683       0.09183719       0.27045418
H        1.26916796       1.97710488       1.30043623
15
Frame=5 idx=009324 GeodesicLength=0.36546631316881817 rxn_smarts="[C:1]([n:2]1[c:3]([H:11])[c:4]([C:5]([H:12])([H:13])[H:14])[c:6]([H:15])[n:7]1)([H:8])([H:9])[H:10]>>[C:1]([N:2]1[C+:3]([H:11])[C:4](=[C:5]([H:13])[H:14])[C-:6]([H:15])[N:7]1[H:12])([H:8])([H:9])[H:10]"
C       -2.25463320      -0.05582313      -0.48740897
N       -0.92010861       0.07294601       0.04542001
C       -0.09185264      -0.87670861       0.45243981
C        1.13379149      -0.22375511       0.73474396
C        2.30098178      -0.48733021       0.02684307
C        0.67928812       1.12688689       0.97129581
N       -0.40764796       1.32836246       0.27100252
H       -2.38962963       0.66377149      -1.29161670
H       -2.97810948       0.13111929       0.30860065
H       -2.38128834      -1.06186142      -0.88258516
H       -0.25924532      -1.90853526       0.18633429
H        0.63893973       0.73918468      -1.61015578
H        2.47893036      -1.50587018      -0.29806946
H        3.18947760       0.08452721       0.26779072
H        1.26110609       1.97308590       1.30536523
15
Frame=6 idx=009324 GeodesicLength=0.43825010300839895 rxn_smarts="[C:1]([n:2]1[c:3]([H:11])[c:4]([C:5]([H:12])([H:13])[H:14])[c:6]([H:15])[n:7]1)([H:8])([H:9])[H:10]>>[C:1]([N:2]1[C+:3]([H:11])[C:4](=[C:5]([H:13])[H:14])[C-:6]([H:15])[N:7]1[H:12])([H:8])([H:9])[H:10]"
C       -2.25789172      -0.05945120      -0.48718860
N       -0.92552017       0.07061107       0.04903763
C       -0.09558112      -0.87851221       0.46333350
C        1.13369259      -0.22735932       0.73612069
C        2.29418666      -0.47477415      -0.00045906
C        0.67347634       1.12086984       0.97704938
N       -0.39564366       1.32100015       0.24155488
H       -2.38755928       0.64157355      -1.30886184
H       -2.98228852       0.15126138       0.30203952
H       -2.39170786      -1.07330320      -0.85940505
H       -0.26567653      -1.91156257       0.20353676
H        0.68865352       0.76782079      -1.56794369
H        2.47057754      -1.49447750      -0.32378922
H        3.18857726       0.07677234       0.26564037
H        1.25270495       1.96953104       1.30933475
15
Frame=7 idx=009324 GeodesicLength=0.5109038192412669 rxn_smarts="[C:1]([n:2]1[c:3]([H:11])[c:4]([C:5]([H:12])([H:13])[H:14])[c:6]([H:15])[n:7]1)([H:8])([H:9])[H:10]>>[C:1]([N:2]1[C+:3]([H:11])[C:4](=[C:5]([H:13])[H:14])[C-:6]([H:15])[N:7]1[H:12])([H:8])([H:9])[H:10]"
C       -2.26131338      -0.06286230      -0.48666386
N       -0.93052951       0.06853034       0.05160094
C       -0.09890045      -0.88018963       0.47288175
C        1.13363194      -0.23082738       0.73742258
C        2.28817636      -0.46262917      -0.02514266
C        0.66766836       1.11513893       0.98175711
N       -0.38378955       1.31283942       0.21289455
H       -2.38645649       0.61951331      -1.32487377
H       -2.98577051       0.17102022       0.29590163
H       -2.40261066      -1.08374156      -0.83607899
H       -0.27150360      -1.91427026       0.21876446
H        0.73715360       0.79550923      -1.52634449
H        2.46237996      -1.48304041      -0.34867245
H        3.18793987       0.06864102       0.26405266
H        1.24392405       1.96636825       1.31250054
15
Frame=8 idx=009324 GeodesicLength=0.5834538282059676 rxn_smarts="[C:1]([n:2]1[c:3]([H:11])[c:4]([C:5]([H:12])([H:13])[H:14])[c:6]([H:15])[n:7]1)([H:8])([H:9])[H:10]>>[C:1]([N:2]1[C+:3]([H:11])[C:4](=[C:5]([H:13])[H:14])[C-:6]([H:15])[N:7]1[H:12])([H:8])([H:9])[H:10]"
C       -2.26493304      -0.06605013      -0.48583259
N       -0.93516097       0.06663737       0.05312190
C       -0.10184332      -0.88179358       0.48114421
C        1.13361455      -0.23417924       0.73859482
C        2.28298011      -0.45080741      -0.04761543
C        0.66182416       1.10963443       0.98549786
N       -0.37201723       1.30393383       0.18477245
H       -2.38636896       0.59759092      -1.33976162
H       -2.98859135       0.19052160       0.29025552
H       -2.41402664      -1.09326359      -0.81253088
H       -0.27679807      -1.91674633       0.23215193
H        0.78453907       0.82239168      -1.48525567
H        2.45445072      -1.47158383      -0.37269314
H        3.18760823       0.06016649       0.26319782
H        1.23472274       1.96354779       1.31495282
15
Frame=9 idx=009324 GeodesicLength=0.6561537781206033 rxn_smarts="[C:1]([n:2]1[c:3]([H:11])[c:4]([C:5]([H:12])([H:13])[H:14])[c:6]([H:15])[n:7]1)([H:8])([H:9])[H:10]>>[C:1]([N:2]1[C+:3]([H:11])[C:4](=[C:5]([H:13])[H:14])[C-:6]([H:15])[N:7]1[H:12])([H:8])([H:9])[H:10]"
C       -2.26872355      -0.06906070      -0.48466356
N       -0.93947776       0.06489771       0.05362926
C       -0.10445398      -0.88336326       0.48814228
C        1.13357973      -0.23744521       0.73959416
C        2.27844458      -0.43931703      -0.06794899
C        0.65590961       1.10428939       0.98830034
N       -0.36018575       1.29429759       0.15674834
H       -2.38714089       0.57564252      -1.35364849
H       -2.99077689       0.20995922       0.28508398
H       -2.42601591      -1.10211113      -0.78841726
H       -0.28158415      -1.91904654       0.24369859
H        0.83104252       0.84888279      -1.44422496
H        2.44672645      -1.45999295      -0.39614003
H        3.18754586       0.05127287       0.26320159
H        1.22511014       1.96109473       1.31664475
15
Frame=10 idx=009324 GeodesicLength=0.7287800640030022 rxn_smarts="[C:1]([n:2]1[c:3]([H:11])[c:4]([C:5]([H:12])([H:13])[H:14])[c:6]([H:15])[n:7]1)([H:8])([H:9])[H:10]>>[C:1]([N:2]1[C+:3]([H:11])[C:4](=[C:5]([H:13])[H:14])[C-:6]([H:15])[N:7]1[H:12])([H:8])([H:9])[H:10]"
C       -2.27271960      -0.07183547      -0.48319257
N       -0.94345015       0.06324695       0.05313657
C       -0.10673818      -0.88494627       0.49398028
C        1.13359128      -0.24062796       0.74042250
C        2.27473172      -0.42801594      -0.08660199
C        0.64986510       1.09908731       0.99029208
N       -0.34830777       1.28394916       0.12888004
H       -2.38894832       0.55379149      -1.36654702
H       -2.99231922       0.22935204       0.28037628
H       -2.43849879      -1.11008404      -0.76391274
H       -0.28592149      -1.92123471       0.25361526
H        0.87656724       0.87472168      -1.40347213
H        2.43940810      -1.44838547      -0.41873238
H        3.18779036       0.04209278       0.26398073
H        1.21494971       1.95888846       1.31777508
15
Frame=11 idx=009324 GeodesicLength=0.801341703538688 rxn_smarts="[C:1]([n:2]1[c:3]([H:11])[c:4]([C:5]([H:12])([H:13])[H:14])[c:6]([H:15])[n:7]1)([H:8])([H:9])[H:10]>>[C:1]([N:2]1[C+:3]([H:11])[C:4](=[C:5]([H:13])[H:14])[C-:6]([H:15])[N:7]1[H:12])([H:8])([H:9])[H:10]"
C       -2.27690700      -0.07437279      -0.48142461
N       -0.94708819       0.06163701       0.05167703
C       -0.10872263      -0.88657867       0.49875381
C        1.13364007      -0.24374599       0.74110528
C        2.27181929      -0.41686070      -0.10377054
C        0.64365745       1.09399387       0.99151852
N       -0.33632237       1.27287733       0.10104595
H       -2.39174990       0.53201407      -1.37848544
H       -2.99321573       0.24876298       0.27609260
H       -2.45143317      -1.11716614      -0.73900641
H       -0.28984904      -1.92335792       0.26201837
H        0.92117144       0.89995005      -1.36287022
H        2.43250091      -1.43671795      -0.44052061
H        3.18830815       0.03264977       0.26549141
H        1.20419073       1.95691506       1.31837484
15
Frame=12 idx=009324 GeodesicLength=0.8738419555324464 rxn_smarts="[C:1]([n:2]1[c:3]([H:11])[c:4]([C:5]([H:12])([H:13])[H:14])[c:6]([H:15])[n:7]1)([H:8])([H:9])[H:10]>>[C:1]([N:2]1[C+:3]([H:11])[C:4](=[C:5]([H:13])[H:14])[C-:6]([H:15])[N:7]1[H:12])([H:8])([H:9])[H:10]"
C       -2.28127375      -0.07665413      -0.47937189
N       -0.95039122       0.06001056       0.04926339
C       -0.11042987      -0.88831085       0.50254583
C        1.13372613      -0.24682107       0.74166713
C        2.26967908      -0.40582220      -0.11956957
C        0.63724534       1.08897088       0.99202074
N       -0.32415008       1.26106089       0.07309556
H       -2.39552927       0.51032963      -1.38955363
H       -2.99346556       0.26831488       0.27222643
H       -2.46479005      -1.12340714      -0.71362628
H       -0.29339942      -1.92548646       0.26900897
H        0.96489217       0.92461112      -1.32228551
H        2.42604555      -1.42494645      -0.46160201
H        3.18906818       0.02299601       0.26769168
H        1.19277279       1.95515434       1.31848915
15
Frame=13 idx=009324 GeodesicLength=0.9462671133810591 rxn_smarts="[C:1]([n:2]1[c:3]([H:11])[c:4]([C:5]([H:12])([H:13])[H:14])[c:6]([H:15])[n:7]1)([H:8])([H:9])[H:10]>>[C:1]([N:2]1[C+:3]([H:11])[C:4](=[C:5]([H:13])[H:14])[C-:6]([H:15])[N:7]1[H:12])([H:8])([H:9])[H:10]"
C       -2.28579170      -0.07867114      -0.47705106
N       -0.95336065       0.05832713       0.04592207
C       -0.11188031      -0.89017262       0.50544029
C        1.13384712      -0.24986888       0.74213046
C        2.26827252      -0.39486327      -0.13413607
C        0.63059981       1.08399126       0.99183025
N       -0.31173299       1.24846747       0.04496288
H       -2.40024191       0.48874016      -1.39974573
H       -2.99303041       0.28803001       0.26872229
H       -2.47851995      -1.12876074      -0.68777918
H       -0.29659940      -1.92764818       0.27467063
H        1.00771674       0.94870019      -1.28159820
H        2.42003726      -1.41303777      -0.48199426
H        3.19003500       0.01316365       0.27051014
H        1.18064886       1.95360273       1.31811550
15
Frame=14 idx=009324 GeodesicLength=1.0187303001408083 rxn_smarts="[C:1]([n:2]1[c:3]([H:11])[c:4]([C:5]([H:12])([H:13])[H:14])[c:6]([H:15])[n:7]1)([H:8])([H:9])[H:10]>>[C:1]([N:2]1[C+:3]([H:11])[C:4](=[C:5]([H:13])[H:14])[C-:6]([H:15])[N:7]1[H:12])([H:8])([H:9])[H:10]"
C       -2.29042992      -0.08040382      -0.47447995
N       -0.95598639       0.05653635       0.04166640
C       -0.11309129      -0.89220823       0.50753470
C        1.13400281      -0.25290903       0.74253028
C        2.26755569      -0.38393770      -0.14760351
C        0.62368296       1.07902141       0.99098122
N       -0.29898341       1.23505014       0.01652189
H       -2.40585196       0.46728431      -1.40915934
H       -2.99190353       0.30802844       0.26556324
H       -2.49256796      -1.13326367      -0.66141336
H       -0.29947064      -1.92990666       0.27912009
H        1.04961675       0.97221343      -1.24064633
H        2.41450065      -1.40095343      -0.50179607
H        3.19117489       0.00320552       0.27388597
H        1.16775133       1.95224295       1.31729477
15
Frame=15 idx=009324 GeodesicLength=1.091270356663503 rxn_smarts="[C:1]([n:2]1[c:3]([H:11])[c:4]([C:5]([H:12])([H:13])[H:14])[c:6]([H:15])[n:7]1)([H:8])([H:9])[H:10]>>[C:1]([N:2]1[C+:3]([H:11])[C:4](=[C:5]([H:13])[H:14])[C-:6]([H:15])[N:7]1[H:12])([H:8])([H:9])[H:10]"
C       -2.29514441      -0.08183635      -0.47168236
N       -0.95825680       0.05459861       0.03651922
C       -0.11407687      -0.89444805       0.50892010
C        1.13419664      -0.25595655       0.74289892
C        2.26747999      -0.37300564      -0.16007539
C        0.61647265       1.07403466       0.98950260
N       -0.28583113       1.22075802      -0.01226740
H       -2.41230440       0.44599587      -1.41779271
H       -2.99004164       0.32833568       0.26268785
H       -2.50686751      -1.13685469      -0.63455416
H       -0.30203020      -1.93229368       0.28244099
H        1.09048190       0.99508406      -1.19931324
H        2.40943527      -1.38866202      -0.52103122
H        3.19245438      -0.00682222       0.27772790
H        1.15403215       1.95107231       1.31601890
15
Frame=16 idx=009324 GeodesicLength=1.163991390515391 rxn_smarts="[C:1]([n:2]1[c:3]([H:11])[c:4]([C:5]([H:12])([H:13])[H:14])[c:6]([H:15])[n:7]1)([H:8])([H:9])[H:10]>>[C:1]([N:2]1[C+:3]([H:11])[C:4](=[C:5]([H:13])[H:14])[C-:6]([H:15])[N:7]1[H:12])([H:8])([H:9])[H:10]"
C       -2.29988642      -0.08294159      -0.46868840
N       -0.96015689       0.05247290       0.03050702
C       -0.11484778      -0.89692407       0.50969496
C        1.13443276      -0.25902796       0.74326812
C        2.26798678      -0.36201865      -0.17166217
C        0.60895081       1.06900006       0.98743033
N       -0.27220639       1.20554616      -0.04143856
H       -2.41953422       0.42490643      -1.42568811
H       -2.98741619       0.34901597       0.26002915
H       -2.52134662      -1.13951271      -0.60719753
H       -0.30428817      -1.93484794       0.28472678
H        1.13018828       1.01723142      -1.15746986
H        2.40483447      -1.37612366      -0.53975080
H        3.19383853      -0.01685891       0.28193993
H        1.13945106       1.95008253       1.31429914
