23
Frame=0 idx=011677 GeodesicLength=0.0 rxn_smarts="[C:1]([C:2]([C@@:3]([C:4]([H:14])([H:15])[H:16])([C:5]([C:6]([H:18])([H:19])[H:20])([C:7]([H:21])([H:22])[H:23])[H:17])[H:13])([H:11])[H:12])([H:8])([H:9])[H:10]>>[C:1]([C:2]([C@@:3]([C:4]([H:14])([H:15])[H:16])([C:5](=[C:6]([H:19])[H:20])[C:7]([H:21])([H:22])[H:23])[H:13])([H:11])[H:12])([H:8])([H:9])[H:10].[H:17][H:18]"
C        2.25944842       0.26564556      -0.93344492
C        1.60364843       0.07421690       0.42834742
C        0.22255345      -0.58878269       0.43183675
C       -0.27035639      -0.75014722       1.87336582
C       -0.84864912       0.14510357      -0.36845602
C       -0.93091606       1.57245744      -0.28051782
C       -2.15285343      -0.58984386      -0.55903606
H        2.32649125      -0.67556604      -1.48235987
H        3.27153533       0.65561422      -0.81094587
H        1.71596892       0.97722265      -1.55904983
H        2.25270750      -0.55289815       1.04656754
H        1.54245586       1.03505850       0.94792140
H        0.32028867      -1.58397979      -0.01564716
H        0.48570273      -1.27210738       2.46197914
H       -0.45242027       0.22107987       2.33579543
H       -1.19110817      -1.33195407       1.92937479
H       -0.29404703      -0.28723823      -1.77674640
H       -0.44588735       0.74825795      -1.43400271
H       -1.84754877       2.06806490      -0.56390860
H       -0.11200162       2.15192118       0.11412776
H       -2.74230976      -0.12827778      -1.34985034
H       -1.98954193      -1.63996147      -0.80473716
H       -2.72316073      -0.51388615       0.36938681
23
Frame=1 idx=011677 GeodesicLength=0.10331677603238187 rxn_smarts="[C:1]([C:2]([C@@:3]([C:4]([H:14])([H:15])[H:16])([C:5]([C:6]([H:18])([H:19])[H:20])([C:7]([H:21])([H:22])[H:23])[H:17])[H:13])([H:11])[H:12])([H:8])([H:9])[H:10]>>[C:1]([C:2]([C@@:3]([C:4]([H:14])([H:15])[H:16])([C:5](=[C:6]([H:19])[H:20])[C:7]([H:21])([H:22])[H:23])[H:13])([H:11])[H:12])([H:8])([H:9])[H:10].[H:17][H:18]"
C        2.26591273       0.25568851      -0.92958372
C        1.60440933       0.07411488       0.43063029
C        0.22195905      -0.58605006       0.43284862
C       -0.26972138      -0.74402162       1.87537811
C       -0.84647981       0.14358139      -0.37576362
C       -0.93245776       1.57022875      -0.28295235
C       -2.15011124      -0.59582972      -0.56023476
H        2.33010404      -0.68861107      -1.47362264
H        3.27956466       0.64149573      -0.80673721
H        1.72670047       0.96838812      -1.55746678
H        2.25151616      -0.54952973       1.05457281
H        1.54390966       1.03831231       0.94421270
H        0.32050345      -1.58320582      -0.01050446
H        0.48355105      -1.26802983       2.46585462
H       -0.44934275       0.22854478       2.33616783
H       -1.19166179      -1.32355473       1.93488779
H       -0.30110229      -0.26375131      -1.80625187
H       -0.45961494       0.77701924      -1.46990756
H       -1.86373167       2.06289436      -0.52103128
H       -0.11221006       2.15132793       0.10792747
H       -2.75022282      -0.13175998      -1.34173044
H       -1.98338171      -1.64284561      -0.81730733
H       -2.71809240      -0.53440654       0.37061379
23
Frame=2 idx=011677 GeodesicLength=0.20646880707272924 rxn_smarts="[C:1]([C:2]([C@@:3]([C:4]([H:14])([H:15])[H:16])([C:5]([C:6]([H:18])([H:19])[H:20])([C:7]([H:21])([H:22])[H:23])[H:17])[H:13])([H:11])[H:12])([H:8])([H:9])[H:10]>>[C:1]([C:2]([C@@:3]([C:4]([H:14])([H:15])[H:16])([C:5](=[C:6]([H:19])[H:20])[C:7]([H:21])([H:22])[H:23])[H:13])([H:11])[H:12])([H:8])([H:9])[H:10].[H:17][H:18]"
C        2.27196206       0.24551318      -0.92578535
C        1.60518720       0.07391596       0.43299010
C        0.22140624      -0.58345844       0.43421661
C       -0.26916948      -0.73764425       1.87771763
C       -0.84410536       0.14182321      -0.38292802
C       -0.93398456       1.56778839      -0.28559090
C       -2.14699008      -0.60211616      -0.56178606
H        2.33309249      -0.70187758      -1.46489444
H        3.28719959       0.62713828      -0.80286165
H        1.73689675       0.95919927      -1.55596201
H        2.25040991      -0.54617313       1.06258351
H        1.54544982       1.04149667       0.94044292
H        0.32073210      -1.58264365      -0.00480166
H        0.48126423      -1.26360014       2.47019105
H       -0.44622416       0.23637211       2.33666483
H       -1.19240624      -1.31470879       1.94068288
H       -0.30863164      -0.23859045      -1.83595577
H       -0.47433348       0.80742365      -1.50607559
H       -1.87822784       2.05658482      -0.47754885
H       -0.11252557       2.15051678       0.10178321
H       -2.75759511      -0.13556292      -1.33384583
H       -1.97670188      -1.64580677      -0.83048329
H       -2.71270499      -0.55559003       0.37124669
23
Frame=3 idx=011677 GeodesicLength=0.3096078801851271 rxn_smarts="[C:1]([C:2]([C@@:3]([C:4]([H:14])([H:15])[H:16])([C:5]([C:6]([H:18])([H:19])[H:20])([C:7]([H:21])([H:22])[H:23])[H:17])[H:13])([H:11])[H:12])([H:8])([H:9])[H:10]>>[C:1]([C:2]([C@@:3]([C:4]([H:14])([H:15])[H:16])([C:5](=[C:6]([H:19])[H:20])[C:7]([H:21])([H:22])[H:23])[H:13])([H:11])[H:12])([H:8])([H:9])[H:10].[H:17][H:18]"
C        2.27758122       0.23511423      -0.92204818
C        1.60598372       0.07360800       0.43543927
C        0.22090184      -0.58103210       0.43596534
C       -0.26869964      -0.73101937       1.88040542
C       -0.84152109       0.13979562      -0.38991255
C       -0.93550078       1.56511064      -0.28846705
C       -2.14348583      -0.60872942      -0.56368424
H        2.33543792      -0.71536628      -1.45617678
H        3.29442622       0.61253802      -0.79932721
H        1.74653432       0.94964643      -1.55453259
H        2.24939943      -0.54283609       1.07060852
H        1.54707140       1.04459880       0.93661986
H        0.32097974      -1.58231855       0.00149528
H        0.47884222      -1.25881413       2.47501663
H       -0.44306208       0.24456180       2.33729342
H       -1.19334435      -1.30541281       1.94677593
H       -0.31669935      -0.21159783      -1.86579780
H       -0.49012548       0.83964158      -1.54251050
H       -1.89088711       2.04910462      -0.43365354
H       -0.11294842       2.14945840       0.09567094
H       -2.76442149      -0.13971987      -1.32619193
H       -1.96948202      -1.64885342      -0.84427111
H       -2.70698039      -0.57747827       0.37128286
23
Frame=4 idx=011677 GeodesicLength=0.41290447958129267 rxn_smarts="[C:1]([C:2]([C@@:3]([C:4]([H:14])([H:15])[H:16])([C:5]([C:6]([H:18])([H:19])[H:20])([C:7]([H:21])([H:22])[H:23])[H:17])[H:13])([H:11])[H:12])([H:8])([H:9])[H:10]>>[C:1]([C:2]([C@@:3]([C:4]([H:14])([H:15])[H:16])([C:5](=[C:6]([H:19])[H:20])[C:7]([H:21])([H:22])[H:23])[H:13])([H:11])[H:12])([H:8])([H:9])[H:10].[H:17][H:18]"
C        2.28274752       0.22448160      -0.91837276
C        1.60680310       0.07317208       0.43799344
C        0.22045736      -0.57880552       0.43812900
C       -0.26830998      -0.72415120       1.88347219
C       -0.83871750       0.13745242      -0.39667008
C       -0.93700621       1.56216268      -0.29162300
C       -2.13958610      -0.61570630      -0.56592830
H        2.33710799      -0.72908066      -1.44747765
H        3.30122344       0.59768272      -0.79615140
H        1.75558046       0.93971555      -1.55317707
H        2.24850142      -0.53953312       1.07865632
H        1.54877184       1.04759877       0.93275403
H        0.32125694      -1.58226732       0.00843431
H        0.47628604      -1.25366592       2.48037234
H       -0.43985201       0.25311628       2.33806441
H       -1.19448092      -1.29565859       1.95319034
H       -0.32539566      -0.18255970      -1.89567983
H       -0.50710318       0.87391122      -1.57920263
H       -1.90154122       2.04042326      -0.38961920
H       -0.11348054       2.14811393       0.08957578
H       -2.77068634      -0.14427872      -1.31876562
H       -1.96168981      -1.65199727      -0.85868751
H       -2.70088665      -0.60012617       0.37071291
23
Frame=5 idx=011677 GeodesicLength=0.5159311244784504 rxn_smarts="[C:1]([C:2]([C@@:3]([C:4]([H:14])([H:15])[H:16])([C:5]([C:6]([H:18])([H:19])[H:20])([C:7]([H:21])([H:22])[H:23])[H:17])[H:13])([H:11])[H:12])([H:8])([H:9])[H:10]>>[C:1]([C:2]([C@@:3]([C:4]([H:14])([H:15])[H:16])([C:5](=[C:6]([H:19])[H:20])[C:7]([H:21])([H:22])[H:23])[H:13])([H:11])[H:12])([H:8])([H:9])[H:10].[H:17][H:18]"
C        2.28746089       0.21357833      -0.91476930
C        1.60766834       0.07258130       0.44065788
C        0.22008181      -0.57678009       0.44072652
C       -0.26801888      -0.71699897       1.88691319
C       -0.83563442       0.13479576      -0.40324481
C       -0.93847628       1.55893432      -0.29499750
C       -2.13521576      -0.62305756      -0.56856881
H        2.33809753      -0.74306066      -1.43879488
H        3.30758904       0.58254488      -0.79336823
H        1.76400622       0.92934442      -1.55192096
H        2.24773321      -0.53630074       1.08672548
H        1.55058879       1.05046890       0.92884310
H        0.32156711      -1.58250525       0.01608268
H        0.47355266      -1.24812306       2.48626511
H       -0.43657908       0.26207978       2.33895791
H       -1.19585795      -1.28536581       1.95989466
H       -0.33473830      -0.15141873      -1.92545194
H       -0.52544372       0.91028026      -1.61602651
H       -1.91044055       2.03055503      -0.34541632
H       -0.11404842       2.14648335       0.08343989
H       -2.77633225      -0.14924570      -1.31163445
H       -1.95322362      -1.65522597      -0.87379048
H       -2.69433637      -0.62356379       0.36947778
23
Frame=6 idx=011677 GeodesicLength=0.6191345612059923 rxn_smarts="[C:1]([C:2]([C@@:3]([C:4]([H:14])([H:15])[H:16])([C:5]([C:6]([H:18])([H:19])[H:20])([C:7]([H:21])([H:22])[H:23])[H:17])[H:13])([H:11])[H:12])([H:8])([H:9])[H:10]>>[C:1]([C:2]([C@@:3]([C:4]([H:14])([H:15])[H:16])([C:5](=[C:6]([H:19])[H:20])[C:7]([H:21])([H:22])[H:23])[H:13])([H:11])[H:12])([H:8])([H:9])[H:10].[H:17][H:18]"
C        2.29170417       0.20239895      -0.91122882
C        1.60857527       0.07182317       0.44345025
C        0.21978944      -0.57500412       0.44379055
C       -0.26780952      -0.70959214       1.89076748
C       -0.83229366       0.13174845      -0.40954660
C       -0.93992399       1.55537437      -0.29870269
C       -2.13040316      -0.63084234      -0.57157026
H        2.33838672      -0.75730607      -1.43012639
H        3.31350771       0.56711462      -0.79097430
H        1.77179752       0.91852851      -1.55075278
H        2.24710832      -0.53313526       1.09483605
H        1.55249579       1.05319883       0.92489483
H        0.32192567      -1.58307401       0.02446371
H        0.47067000      -1.24219350       2.49274609
H       -0.43324442       0.27142955       2.33999077
H       -1.19745190      -1.27457146       1.96693276
H       -0.34486239      -0.11786627      -1.95502513
H       -0.54521747       0.94909319      -1.65298535
H       -1.91725342       2.01948980      -0.30149645
H       -0.11469603       2.14450853       0.07724627
H       -2.78137479      -0.15469703      -1.30475654
H       -1.94409449      -1.65857463      -0.88955606
H       -2.68733535      -0.64785115       0.36760259
23
Frame=7 idx=011677 GeodesicLength=0.7225736216351035 rxn_smarts="[C:1]([C:2]([C@@:3]([C:4]([H:14])([H:15])[H:16])([C:5]([C:6]([H:18])([H:19])[H:20])([C:7]([H:21])([H:22])[H:23])[H:17])[H:13])([H:11])[H:12])([H:8])([H:9])[H:10]>>[C:1]([C:2]([C@@:3]([C:4]([H:14])([H:15])[H:16])([C:5](=[C:6]([H:19])[H:20])[C:7]([H:21])([H:22])[H:23])[H:13])([H:11])[H:12])([H:8])([H:9])[H:10].[H:17][H:18]"
C        2.29546564       0.19090908      -0.90775531
C        1.60953693       0.07087155       0.44638233
C        0.21959723      -0.57351212       0.44735492
C       -0.26768503      -0.70192067       1.89505988
C       -0.82867065       0.12825714      -0.41554233
C       -0.94133436       1.55144535      -0.30278813
C       -2.12511230      -0.63910987      -0.57494474
H        2.33795328      -0.77185021      -1.42147107
H        3.31896785       0.55135709      -0.78899476
H        1.77892914       0.90722010      -1.54968510
H        2.24664759      -0.53005547       1.10299909
H        1.55450114       1.05576511       0.92090626
H        0.32234706      -1.58401453       0.03363601
H        0.46762654      -1.23585441       2.49985701
H       -0.42984236       0.28118633       2.34115916
H       -1.19927878      -1.26324295       1.97431673
H       -0.35589176      -0.08165487      -1.98423070
H       -0.56656946       0.99062759      -1.68999902
H       -1.92194003       2.00724230      -0.25812692
H       -0.11541473       2.14215066       0.07096915
H       -2.78577590      -0.16069999      -1.29814983
H       -1.93423742      -1.66205557      -0.90600994
H       -2.67981962      -0.67306164       0.36505730
23
Frame=8 idx=011677 GeodesicLength=0.8262533284402639 rxn_smarts="[C:1]([C:2]([C@@:3]([C:4]([H:14])([H:15])[H:16])([C:5]([C:6]([H:18])([H:19])[H:20])([C:7]([H:21])([H:22])[H:23])[H:17])[H:13])([H:11])[H:12])([H:8])([H:9])[H:10]>>[C:1]([C:2]([C@@:3]([C:4]([H:14])([H:15])[H:16])([C:5](=[C:6]([H:19])[H:20])[C:7]([H:21])([H:22])[H:23])[H:13])([H:11])[H:12])([H:8])([H:9])[H:10].[H:17][H:18]"
C        2.29874285       0.17907267      -0.90434798
C        1.61056656       0.06970113       0.44946417
C        0.21952272      -0.57233474       0.45144556
C       -0.26764139      -0.69397741       1.89980672
C       -0.82474431       0.12427022      -0.42120643
C       -0.94269915       1.54710585      -0.30730457
C       -2.11931634      -0.64791209      -0.57870007
H        2.33679107      -0.78672959      -1.41281892
H        3.32396534       0.53523569      -0.78744344
H        1.78538912       0.89536710      -1.54873010
H        2.24637012      -0.52707852       1.11122672
H        1.55661112       1.05814560       0.91687080
H        0.32284856      -1.58536078       0.04364842
H        0.46442076      -1.22908673       2.50763159
H       -0.42636534       0.29136363       2.34245280
H       -1.20134192      -1.25135580       1.98205143
H       -0.36794191      -0.04253884      -2.01289481
H       -0.58963268       1.03514726      -1.72694576
H       -1.92449961       1.99385902      -0.21560746
H       -0.11619706       2.13937000       0.06456931
H       -2.78950802      -0.16732117      -1.29183058
H       -1.92360069      -1.66569590      -0.92316672
H       -2.67173980      -0.69924662       0.36182933
23
Frame=9 idx=011677 GeodesicLength=0.9292822066755235 rxn_smarts="[C:1]([C:2]([C@@:3]([C:4]([H:14])([H:15])[H:16])([C:5]([C:6]([H:18])([H:19])[H:20])([C:7]([H:21])([H:22])[H:23])[H:17])[H:13])([H:11])[H:12])([H:8])([H:9])[H:10]>>[C:1]([C:2]([C@@:3]([C:4]([H:14])([H:15])[H:16])([C:5](=[C:6]([H:19])[H:20])[C:7]([H:21])([H:22])[H:23])[H:13])([H:11])[H:12])([H:8])([H:9])[H:10].[H:17][H:18]"
C        2.30158070       0.16684061      -0.90101697
C        1.61168915       0.06830736       0.45267816
C        0.21956422      -0.57142689       0.45603354
C       -0.26771179      -0.68569986       1.90493504
C       -0.82044931       0.11984115      -0.42664674
C       -0.94399743       1.54237408      -0.31216232
C       -2.11292486      -0.65722909      -0.58290694
H        2.33499166      -0.80201813      -1.40411607
H        3.32852728       0.51875406      -0.78633509
H        1.79117306       0.88284575      -1.54795143
H        2.24627485      -0.52421293       1.11951635
H        1.55886819       1.06033568       0.91275198
H        0.32341649      -1.58707159       0.05451780
H        0.46097951      -1.22184811       2.51599972
H       -0.42280018       0.30201123       2.34380288
H       -1.20369694      -1.23880730       1.99001878
H       -0.38099573      -0.00068507      -2.04079842
H       -0.61463629       1.08246416      -1.76348475
H       -1.92531676       1.97939618      -0.17367264
H       -0.11695546       2.13619593       0.05796242
H       -2.79251486      -0.17451925      -1.28590460
H       -1.91207052      -1.66946493      -0.94107118
H       -2.66299497      -0.72638307       0.35785047
23
Frame=10 idx=011677 GeodesicLength=1.0324360112832267 rxn_smarts="[C:1]([C:2]([C@@:3]([C:4]([H:14])([H:15])[H:16])([C:5]([C:6]([H:18])([H:19])[H:20])([C:7]([H:21])([H:22])[H:23])[H:17])[H:13])([H:11])[H:12])([H:8])([H:9])[H:10]>>[C:1]([C:2]([C@@:3]([C:4]([H:14])([H:15])[H:16])([C:5](=[C:6]([H:19])[H:20])[C:7]([H:21])([H:22])[H:23])[H:13])([H:11])[H:12])([H:8])([H:9])[H:10].[H:17][H:18]"
C        2.30395267       0.15417516      -0.89775488
C        1.61290880       0.06665507       0.45604727
C        0.21975464      -0.57087392       0.46117612
C       -0.26786754      -0.67711757       1.91052109
C       -0.81579624       0.11482679      -0.43174891
C       -0.94523394       1.53716520      -0.31754594
C       -2.10596208      -0.66717471      -0.58751823
H        2.33249658      -0.81774474      -1.39537015
H        3.33263628       0.50184235      -0.78568230
H        1.79627245       0.86963248      -1.54733557
H        2.24639211      -0.52146718       1.12789493
H        1.56124712       1.06230937       0.90854833
H        0.32409216      -1.58923495       0.06630669
H        0.45734980      -1.21412550       2.52507029
H       -0.41915061       0.31312348       2.34523137
H       -1.20631043      -1.22562919       1.99830878
H       -0.39532924       0.04447462      -2.06778078
H       -0.64162569       1.13322860      -1.79955331
H       -1.92405718       1.96389141      -0.13311554
H       -0.11777345       2.13253670       0.05117222
H       -2.79478435      -0.18247417      -1.28032323
H       -1.89964950      -1.67343403      -0.95968978
H       -2.65356234      -0.75458523       0.35314153
23
Frame=11 idx=011677 GeodesicLength=1.135743235353118 rxn_smarts="[C:1]([C:2]([C@@:3]([C:4]([H:14])([H:15])[H:16])([C:5]([C:6]([H:18])([H:19])[H:20])([C:7]([H:21])([H:22])[H:23])[H:17])[H:13])([H:11])[H:12])([H:8])([H:9])[H:10]>>[C:1]([C:2]([C@@:3]([C:4]([H:14])([H:15])[H:16])([C:5](=[C:6]([H:19])[H:20])[C:7]([H:21])([H:22])[H:23])[H:13])([H:11])[H:12])([H:8])([H:9])[H:10].[H:17][H:18]"
C        2.30587249       0.14101892      -0.89456548
C        1.61424083       0.06472568       0.45956882
C        0.22010684      -0.57068911       0.46688460
C       -0.26811787      -0.66820061       1.91655750
C       -0.81075533       0.10918673      -0.43651970
C       -0.94639633       1.53144212      -0.32349920
C       -2.09837882      -0.67780501      -0.59255510
H        2.32932953      -0.83398080      -1.38654717
H        3.33629988       0.48445852      -0.78550142
H        1.80068055       0.85562556      -1.54691992
H        2.24673333      -0.51884418       1.13637602
H        1.56375999       1.06405520       0.90422712
H        0.32488546      -1.59186910       0.07906012
H        0.45350626      -1.20587617       2.53485689
H       -0.41541401       0.32473560       2.34670508
H       -1.20920221      -1.21177007       2.00689532
H       -0.41109452       0.09313231      -2.09364269
H       -0.67067735       1.18768171      -1.83494952
H       -1.92083742       1.94739940      -0.09410876
H       -0.11864297       2.12836246       0.04415517
H       -2.79627368      -0.19125865      -1.27512636
H       -1.88625629      -1.67763243      -0.97902618
H       -2.64336835      -0.78389808       0.34767487
23
Frame=12 idx=011677 GeodesicLength=1.239096582560901 rxn_smarts="[C:1]([C:2]([C@@:3]([C:4]([H:14])([H:15])[H:16])([C:5]([C:6]([H:18])([H:19])[H:20])([C:7]([H:21])([H:22])[H:23])[H:17])[H:13])([H:11])[H:12])([H:8])([H:9])[H:10]>>[C:1]([C:2]([C@@:3]([C:4]([H:14])([H:15])[H:16])([C:5](=[C:6]([H:19])[H:20])[C:7]([H:21])([H:22])[H:23])[H:13])([H:11])[H:12])([H:8])([H:9])[H:10].[H:17][H:18]"
C        2.30736797       0.12731856      -0.89144804
C        1.61569991       0.06250760       0.46323430
C        0.22063168      -0.57087268       0.47315038
C       -0.26847260      -0.65891671       1.92301647
C       -0.80529387       0.10289838      -0.44099140
C       -0.94748237       1.52518600      -0.33005457
C       -2.09013501      -0.68915868      -0.59803625
H        2.32554767      -0.85079650      -1.37759729
H        3.33953378       0.46657623      -0.78579515
H        1.80440283       0.84071602      -1.54674617
H        2.24730329      -0.51634028       1.14497113
H        1.56641706       1.06556693       0.89974987
H        0.32580574      -1.59497583       0.09279914
H        0.44942121      -1.19706113       2.54535099
H       -0.41158816       0.33688067       2.34817450
H       -1.21239206      -1.19717197       2.01572612
H       -0.42843981       0.14539665      -2.11817927
H       -0.70187779       1.24596824      -1.86938017
H       -1.91577393       1.92998723      -0.05680111
H       -0.11955733       2.12365879       0.03686547
H       -2.79694628      -0.20093512      -1.27035209
H       -1.87183301      -1.68207820      -0.99908055
H       -2.63233894      -0.81435420       0.34142368
23
Frame=13 idx=011677 GeodesicLength=1.3424406226204277 rxn_smarts="[C:1]([C:2]([C@@:3]([C:4]([H:14])([H:15])[H:16])([C:5]([C:6]([H:18])([H:19])[H:20])([C:7]([H:21])([H:22])[H:23])[H:17])[H:13])([H:11])[H:12])([H:8])([H:9])[H:10]>>[C:1]([C:2]([C@@:3]([C:4]([H:14])([H:15])[H:16])([C:5](=[C:6]([H:19])[H:20])[C:7]([H:21])([H:22])[H:23])[H:13])([H:11])[H:12])([H:8])([H:9])[H:10].[H:17][H:18]"
C        2.30846719       0.11301948      -0.88840674
C        1.61730015       0.05999243       0.46702866
C        0.22133806      -0.57141900       0.47996024
C       -0.26894105      -0.64923327       1.92986623
C       -0.79938085       0.09594289      -0.44520098
C       -0.94849314       1.51837886      -0.33724108
C       -2.08118616      -0.70127529      -0.60398258
H        2.32120981      -0.86826625      -1.36847108
H        3.34235372       0.44817150      -0.78657430
H        1.80743778       0.82478848      -1.54686318
H        2.24810603      -0.51394769       1.15368513
H        1.56922919       1.06684097       0.89507050
H        0.32686021      -1.59854975       0.10754113
H        0.44506907      -1.18764407       2.55653572
H       -0.40766911       0.34959033       2.34959134
H       -1.21589806      -1.18177988       2.02474603
H       -0.44752321       0.20133984      -2.14117607
H       -0.73524465       1.30823122      -1.90249056
H       -1.90902574       1.91172556      -0.02136902
H       -0.12052159       2.11841218       0.02927697
H       -2.79675737      -0.21156663      -1.26606362
H       -1.85632077      -1.68679765      -1.01982944
H       -2.62040950      -0.84595425       0.33436668
23
Frame=14 idx=011677 GeodesicLength=1.4457202793454202 rxn_smarts="[C:1]([C:2]([C@@:3]([C:4]([H:14])([H:15])[H:16])([C:5]([C:6]([H:18])([H:19])[H:20])([C:7]([H:21])([H:22])[H:23])[H:17])[H:13])([H:11])[H:12])([H:8])([H:9])[H:10]>>[C:1]([C:2]([C@@:3]([C:4]([H:14])([H:15])[H:16])([C:5](=[C:6]([H:19])[H:20])[C:7]([H:21])([H:22])[H:23])[H:13])([H:11])[H:12])([H:8])([H:9])[H:10].[H:17][H:18]"
C        2.30921678       0.09807607      -0.88543666
C        1.61905297       0.05718189       0.47093266
C        0.22223129      -0.57230887       0.48727972
C       -0.26953511      -0.63911950       1.93705180
C       -0.79298516       0.08832061      -0.44920893
C       -0.94943411       1.51102045      -0.34508653
C       -2.07150120      -0.71416868      -0.61041215
H        2.31641913      -0.88646037      -1.35909460
H        3.34478675       0.42924517      -0.78782641
H        1.80980274       0.80772366      -1.54732006
H        2.24913641      -0.51164702       1.16252523
H        1.57220217       1.06788221       0.89013940
H        0.32805432      -1.60256842       0.12327241
H        0.44041978      -1.17759102       2.56837005
H       -0.40366111       0.36288974       2.35089114
H       -1.21973721      -1.16554613       2.03387453
H       -0.46850618       0.26092935      -2.16244191
H       -0.77080006       1.37450334      -1.93389157
H       -1.90073364       1.89269199       0.01208030
H       -0.12153801       2.11262270       0.02135761
H       -2.79568144      -0.22319516      -1.26229701
H       -1.83968857      -1.69180211      -1.04124700
H       -2.60752054      -0.87867991       0.32648798
23
Frame=15 idx=011677 GeodesicLength=1.5489190943883067 rxn_smarts="[C:1]([C:2]([C@@:3]([C:4]([H:14])([H:15])[H:16])([C:5]([C:6]([H:18])([H:19])[H:20])([C:7]([H:21])([H:22])[H:23])[H:17])[H:13])([H:11])[H:12])([H:8])([H:9])[H:10]>>[C:1]([C:2]([C@@:3]([C:4]([H:14])([H:15])[H:16])([C:5](=[C:6]([H:19])[H:20])[C:7]([H:21])([H:22])[H:23])[H:13])([H:11])[H:12])([H:8])([H:9])[H:10].[H:17][H:18]"
C        2.30966362       0.08244718      -0.88253906
C        1.62096750       0.05408372       0.47491878
C        0.22331148      -0.57351224       0.49506499
C       -0.27026787      -0.62854418       1.94450907
C       -0.78608122       0.08004503      -0.45308265
C       -0.95031581       1.50311954      -0.35360449
C       -2.06104966      -0.72784563      -0.61733871
H        2.31128348      -0.90544643      -1.34939752
H        3.34686087       0.40980622      -0.78954581
H        1.81151006       0.78940240      -1.54816939
H        2.25038537      -0.50941318       1.17148891
H        1.57534244       1.06870115       0.88489957
H        0.32938678      -1.60699680       0.13996626
H        0.43544154      -1.16687593       2.58079627
H       -0.39956386       0.37680054       2.35201102
H       -1.22392814      -1.14842163       2.04302078
H       -0.49155675       0.32404552      -2.18179015
H       -0.80846603       1.44477428      -1.96312403
H       -1.89108859       1.87296971       0.04343170
H       -0.12262109       2.10629890       0.01310244
H       -2.79368961      -0.23585392      -1.25911227
H       -1.82190949      -1.69710242      -1.06328474
H       -2.59361504      -0.91248184       0.31777903
23
Frame=16 idx=011677 GeodesicLength=1.6520131633192516 rxn_smarts="[C:1]([C:2]([C@@:3]([C:4]([H:14])([H:15])[H:16])([C:5]([C:6]([H:18])([H:19])[H:20])([C:7]([H:21])([H:22])[H:23])[H:17])[H:13])([H:11])[H:12])([H:8])([H:9])[H:10]>>[C:1]([C:2]([C@@:3]([C:4]([H:14])([H:15])[H:16])([C:5](=[C:6]([H:19])[H:20])[C:7]([H:21])([H:22])[H:23])[H:13])([H:11])[H:12])([H:8])([H:9])[H:10].[H:17][H:18]"
C        2.30986517       0.06610635      -0.87970964
C        1.62304854       0.05071667       0.47895470
C        0.22457324      -0.57498442       0.50325241
C       -0.27115512      -0.61747920       1.95215352
C       -0.77864567       0.07115287      -0.45690878
C       -0.95115795       1.49470273      -0.36279587
C       -2.04981142      -0.74228736      -0.62477778
H        2.30594138      -0.92527952      -1.33929442
H        3.34860856       0.38989182      -0.79171254
H        1.81257893       0.76971064      -1.54946327
H        2.25183485      -0.50721261       1.18057065
H        1.57865101       1.06931467       0.87929389
H        0.33085169      -1.61177978       0.15756764
H        0.43009947      -1.15548167       2.59373178
H       -0.39538221       0.39133621       2.35287766
H       -1.22848890      -1.13036269       2.05206994
H       -0.51682400       0.39042561      -2.19906514
H       -0.84815483       1.51892866      -1.98966147
H       -1.88024967       1.85264196       0.07262746
H       -0.12378272       2.09946341       0.00450018
H       -2.79076217      -0.24954891      -1.25656419
H       -1.80298305      -1.70270014      -1.08588292
H       -2.57865515      -0.94727528       0.30823620
