12
Frame=0 idx=009913 GeodesicLength=0.0 rxn_smarts="[N:1]#[C:2][C:3]12[C:4]([H:8])([H:9])[C:5]([H:10])([C:6]1([H:11])[H:12])[O:7]2>>[N:1]#[C:2][C:6]([C@@:5]1([H:10])[C:4]([H:8])([H:9])[C-:3]=[O+:7]1)([H:11])[H:12]"
N       -1.65945981       2.17883511       0.13347498
C       -0.84779315       1.34458970       0.30831348
C        0.45389279       0.75843495       0.73707343
C        1.30434112       0.05948506      -0.31778632
C        0.32211464      -0.99963324       0.17511635
C       -0.97624062      -0.32513800      -0.28509516
O        0.36457825      -0.40520595       1.51098957
H        1.25127250       0.39941418      -1.34842383
H        2.32250687      -0.07982227       0.03689772
H        0.46565499      -2.08513718       0.14704934
H       -1.13473362      -0.21250510      -1.35433381
H       -1.86613396      -0.63331729       0.25672420
12
Frame=1 idx=009913 GeodesicLength=0.07950392108392744 rxn_smarts="[N:1]#[C:2][C:3]12[C:4]([H:8])([H:9])[C:5]([H:10])([C:6]1([H:11])[H:12])[O:7]2>>[N:1]#[C:2][C:6]([C@@:5]1([H:10])[C:4]([H:8])([H:9])[C-:3]=[O+:7]1)([H:11])[H:12]"
N       -1.65892372       2.20079451       0.12971738
C       -0.86123066       1.35550859       0.30305227
C        0.45823918       0.75493428       0.74243876
C        1.30723695       0.05828538      -0.31512563
C        0.32209716      -1.00098381       0.17283658
C       -0.97718636      -0.32587388      -0.28240696
O        0.36575791      -0.41071117       1.51102486
H        1.25197286       0.40709872      -1.34285632
H        2.32725340      -0.08352257       0.03312619
H        0.46596118      -2.08563229       0.14204004
H       -1.13697493      -0.22646744      -1.35302288
H       -1.86420299      -0.64343031       0.25917572
12
Frame=2 idx=009913 GeodesicLength=0.15899717608651676 rxn_smarts="[N:1]#[C:2][C:3]12[C:4]([H:8])([H:9])[C:5]([H:10])([C:6]1([H:11])[H:12])[O:7]2>>[N:1]#[C:2][C:6]([C@@:5]1([H:10])[C:4]([H:8])([H:9])[C-:3]=[O+:7]1)([H:11])[H:12]"
N       -1.65801497       2.22324567       0.12588371
C       -0.87517532       1.36643292       0.29750716
C        0.46265610       0.75131716       0.74796410
C        1.31011599       0.05710728      -0.31243614
C        0.32210604      -1.00234408       0.17053925
C       -0.97813176      -0.32663092      -0.27967297
O        0.36694618      -0.41636733       1.51108314
H        1.25259106       0.41490458      -1.33713367
H        2.33198170      -0.08718401       0.02924837
H        0.46632720      -2.08612439       0.13693162
H       -1.13924770      -0.24063072      -1.35152251
H       -1.86215452      -0.65372616       0.26160793
12
Frame=3 idx=009913 GeodesicLength=0.2384920845773711 rxn_smarts="[N:1]#[C:2][C:3]12[C:4]([H:8])([H:9])[C:5]([H:10])([C:6]1([H:11])[H:12])[O:7]2>>[N:1]#[C:2][C:6]([C@@:5]1([H:10])[C:4]([H:8])([H:9])[C-:3]=[O+:7]1)([H:11])[H:12]"
N       -1.65673123       2.24618031       0.12203274
C       -0.88965096       1.37737609       0.29163670
C        0.46714667       0.74758771       0.75364217
C        1.31298455       0.05594780      -0.30972045
C        0.32214169      -1.00371510       0.16822752
C       -0.97907719      -0.32741060      -0.27690033
O        0.36813951      -0.42216495       1.51116366
H        1.25313707       0.42281569      -1.33125976
H        2.33669852      -0.09080298       0.02526451
H        0.46675181      -2.08661819       0.13173916
H       -1.14154875      -0.25499259      -1.34983440
H       -1.85999168      -0.66420321       0.26400848
12
Frame=4 idx=009913 GeodesicLength=0.31794482253938117 rxn_smarts="[N:1]#[C:2][C:3]12[C:4]([H:8])([H:9])[C:5]([H:10])([C:6]1([H:11])[H:12])[O:7]2>>[N:1]#[C:2][C:6]([C@@:5]1([H:10])[C:4]([H:8])([H:9])[C-:3]=[O+:7]1)([H:11])[H:12]"
N       -1.65503837       2.26958247       0.11821483
C       -0.90468862       1.38830989       0.28538245
C        0.47171544       0.74374014       0.75947165
C        1.31583141       0.05480692      -0.30697786
C        0.32220228      -1.00508738       0.16590666
C       -0.98001338      -0.32821073      -0.27409366
O        0.36933879      -0.42810095       1.51126610
H        1.25359373       0.43082254      -1.32523217
H        2.34138453      -0.09437534       0.02117505
H        0.46723162      -2.08709505       0.12647729
H       -1.14386156      -0.26954647      -1.34795965
H       -1.85769587      -0.67484603       0.26636932
12
Frame=5 idx=009913 GeodesicLength=0.39739911746917833 rxn_smarts="[N:1]#[C:2][C:3]12[C:4]([H:8])([H:9])[C:5]([H:10])([C:6]1([H:11])[H:12])[O:7]2>>[N:1]#[C:2][C:6]([C@@:5]1([H:10])[C:4]([H:8])([H:9])[C-:3]=[O+:7]1)([H:11])[H:12]"
N       -1.65292927       2.29344905       0.11448753
C       -0.92031837       1.39926076       0.27869657
C        0.47636399       0.73978138       0.76544777
C        1.31866868       0.05368265      -0.30421055
C        0.32228891      -1.00646585       0.16357794
C       -0.98094591      -0.32903411      -0.27125710
O        0.37053738      -0.43416644       1.51139075
H        1.25397985       0.43891855      -1.31905239
H        2.34605551      -0.09789818       0.01697903
H        0.46776750      -2.08756815       0.12115209
H       -1.14618949      -0.28430383      -1.34589648
H       -1.85527878      -0.68565582       0.26868483
12
Frame=6 idx=009913 GeodesicLength=0.4768394039660774 rxn_smarts="[N:1]#[C:2][C:3]12[C:4]([H:8])([H:9])[C:5]([H:10])([C:6]1([H:11])[H:12])[O:7]2>>[N:1]#[C:2][C:6]([C@@:5]1([H:10])[C:4]([H:8])([H:9])[C-:3]=[O+:7]1)([H:11])[H:12]"
N       -1.65036985       2.31776629       0.11090163
C       -0.93656928       1.41022640       0.27151795
C        0.48109191       0.73570870       0.77156912
C        1.32149281       0.05257564      -0.30141736
C        0.32240093      -1.00784673       0.16124433
C       -0.98187258      -0.32988094      -0.26839368
O        0.37173258      -0.44035828       1.51153726
H        1.25429040       0.44710159      -1.31271626
H        2.35070468      -0.10136641       0.01267750
H        0.46835949      -2.08803076       0.11576992
H       -1.14852811      -0.29927189      -1.34364287
H       -1.85273298      -0.69662360       0.27095245
12
Frame=7 idx=009913 GeodesicLength=0.556261488269068 rxn_smarts="[N:1]#[C:2][C:3]12[C:4]([H:8])([H:9])[C:5]([H:10])([C:6]1([H:11])[H:12])[O:7]2>>[N:1]#[C:2][C:6]([C@@:5]1([H:10])[C:4]([H:8])([H:9])[C-:3]=[O+:7]1)([H:11])[H:12]"
N       -1.64733500       2.34251618       0.10752540
C       -0.95347240       1.42120928       0.26377408
C        0.48590069       0.73152381       0.77783187
C        1.32430457       0.05148523      -0.29859819
C        0.32253750      -1.00922714       0.15890927
C       -0.98279220      -0.33075045      -0.26550804
O        0.37292004      -0.44666886       1.51170556
H        1.25452771       0.45536595      -1.30622209
H        2.35533051      -0.10477712       0.00827150
H        0.46900606      -2.08847967       0.11033974
H       -1.15087200      -0.31445956      -1.34119772
H       -1.85005548      -0.70773764       0.27316862
12
Frame=8 idx=009913 GeodesicLength=0.6356658283643548 rxn_smarts="[N:1]#[C:2][C:3]12[C:4]([H:8])([H:9])[C:5]([H:10])([C:6]1([H:11])[H:12])[O:7]2>>[N:1]#[C:2][C:6]([C@@:5]1([H:10])[C:4]([H:8])([H:9])[C-:3]=[O+:7]1)([H:11])[H:12]"
N       -1.64380157       2.36767237       0.10443725
C       -0.97105954       1.43221553       0.25538265
C        0.49079275       0.72722942       0.78423100
C        1.32710565       0.05041024      -0.29575314
C        0.32269752      -1.01060378       0.15657666
C       -0.98370346      -0.33164018      -0.26260557
O        0.37409497      -0.45308891       1.51189554
H        1.25469595       0.46370463      -1.29956882
H        2.35993228      -0.10812843       0.00376261
H        0.46970453      -2.08891172       0.10487185
H       -1.15321498      -0.32987676      -1.33856035
H       -1.84724409      -0.71898239       0.27533033
12
Frame=9 idx=009913 GeodesicLength=0.7150466076443243 rxn_smarts="[N:1]#[C:2][C:3]12[C:4]([H:8])([H:9])[C:5]([H:10])([C:6]1([H:11])[H:12])[O:7]2>>[N:1]#[C:2][C:6]([C@@:5]1([H:10])[C:4]([H:8])([H:9])[C-:3]=[O+:7]1)([H:11])[H:12]"
N       -1.63975919       2.39319672       0.10173987
C       -0.98935700       1.44325413       0.24624068
C        0.49577236       0.72283132       0.79075858
C        1.32989961       0.04934759      -0.29288254
C        0.32287923      -1.01197218       0.15425158
C       -0.98460386      -0.33254476      -0.25969433
O        0.37525164      -0.45960399       1.51210718
H        1.25480340       0.47210576      -1.29275754
H        2.36451066      -0.11142219      -0.00084597
H        0.47044933      -2.08932324       0.09938089
H       -1.15554954      -0.34553402      -1.33573168
H       -1.84429663      -0.73033514       0.27743328
12
Frame=10 idx=009913 GeodesicLength=0.7944077434866471 rxn_smarts="[N:1]#[C:2][C:3]12[C:4]([H:8])([H:9])[C:5]([H:10])([C:6]1([H:11])[H:12])[O:7]2>>[N:1]#[C:2][C:6]([C@@:5]1([H:10])[C:4]([H:8])([H:9])[C-:3]=[O+:7]1)([H:11])[H:12]"
N       -1.63520080       2.41904370       0.09954432
C       -1.00839269       1.45433778       0.23623381
C        0.50084656       0.71833760       0.79740735
C        1.33269150       0.04829406      -0.28998651
C        0.32308086      -1.01332855       0.15193962
C       -0.98549152      -0.33345649      -0.25678329
O        0.37638621      -0.46619922       1.51234215
H        1.25485949       0.48055811      -1.28579032
H        2.36906854      -0.11466202      -0.00555003
H        0.47123393      -2.08971324       0.09388185
H       -1.15786926      -0.36144332      -1.33271343
H       -1.84121281      -0.74176840       0.27947447
12
Frame=11 idx=009913 GeodesicLength=0.8737896634310823 rxn_smarts="[N:1]#[C:2][C:3]12[C:4]([H:8])([H:9])[C:5]([H:10])([C:6]1([H:11])[H:12])[O:7]2>>[N:1]#[C:2][C:6]([C@@:5]1([H:10])[C:4]([H:8])([H:9])[C-:3]=[O+:7]1)([H:11])[H:12]"
N       -1.63017030       2.44518433       0.09800361
C       -1.02818852       1.46549798       0.22521534
C        0.50602852       0.71376974       0.80417722
C        1.33549672       0.04723727      -0.28706315
C        0.32330815      -1.01467666       0.14964650
C       -0.98636943      -0.33436382      -0.25389084
O        0.37750681      -0.47284968       1.51261209
H        1.25487759       0.48903517      -1.27867600
H        2.37362915      -0.11786754      -0.01033657
H        0.47206306      -2.09009944       0.08839006
H       -1.16018084      -0.37762596      -1.32952312
H       -1.83800093      -0.75324138       0.28144487
12
Frame=12 idx=009913 GeodesicLength=0.9530928033127424 rxn_smarts="[N:1]#[C:2][C:3]12[C:4]([H:8])([H:9])[C:5]([H:10])([C:6]1([H:11])[H:12])[O:7]2>>[N:1]#[C:2][C:6]([C@@:5]1([H:10])[C:4]([H:8])([H:9])[C-:3]=[O+:7]1)([H:11])[H:12]"
N       -1.62449954       2.47135620       0.09705821
C       -1.04877015       1.47674066       0.21314858
C        0.51130335       0.70906362       0.81105134
C        1.33828224       0.04620154      -0.28411682
C        0.32352819      -1.01596879       0.14737049
C       -0.98720743      -0.33523724      -0.25097464
O        0.37855679      -0.47958398       1.51287554
H        1.25485947       0.49758243      -1.27137508
H        2.37811539      -0.12099987      -0.01524388
H        0.47287625      -2.09038324       0.08288847
H       -1.16242514      -0.39405090      -1.32608003
H       -1.83461941      -0.76472042       0.28339783
12
Frame=13 idx=009913 GeodesicLength=1.0324746870506036 rxn_smarts="[N:1]#[C:2][C:3]12[C:4]([H:8])([H:9])[C:5]([H:10])([C:6]1([H:11])[H:12])[O:7]2>>[N:1]#[C:2][C:6]([C@@:5]1([H:10])[C:4]([H:8])([H:9])[C-:3]=[O+:7]1)([H:11])[H:12]"
N       -1.61839626       2.49768590       0.09695774
C       -1.07016127       1.48812274       0.19982303
C        0.51672377       0.70429996       0.81805234
C        1.34110034       0.04515290      -0.28113889
C        0.32377197      -1.01725132       0.14512211
C       -0.98803435      -0.33606946      -0.24808886
O        0.37960744      -0.48635920       1.51318951
H        1.25482376       0.50614868      -1.26392530
H        2.38262515      -0.12412728      -0.02022787
H        0.47371270      -2.09067871       0.07740481
H       -1.16466147      -0.41076448      -1.32246013
H       -1.83111177      -0.77615971       0.28529149
12
Frame=14 idx=009913 GeodesicLength=1.1117022860140477 rxn_smarts="[N:1]#[C:2][C:3]12[C:4]([H:8])([H:9])[C:5]([H:10])([C:6]1([H:11])[H:12])[O:7]2>>[N:1]#[C:2][C:6]([C@@:5]1([H:10])[C:4]([H:8])([H:9])[C-:3]=[O+:7]1)([H:11])[H:12]"
N       -1.61187206       2.52387289       0.09808014
C       -1.09231321       1.49962323       0.18492378
C        0.52227855       0.69948565       0.82509136
C        1.34395188       0.04407983      -0.27814564
C        0.32400489      -1.01845999       0.14292061
C       -0.98881232      -0.33681901      -0.24525180
O        0.38057269      -0.49308776       1.51350369
H        1.25484555       0.51466922      -1.25633594
H        2.38711559      -0.12726392      -0.02530146
H        0.47450224      -2.09087885       0.07202387
H       -1.16680756      -0.42777549      -1.31863062
H       -1.82746625      -0.78744580       0.28712200
12
Frame=15 idx=009913 GeodesicLength=1.1911541380777069 rxn_smarts="[N:1]#[C:2][C:3]12[C:4]([H:8])([H:9])[C:5]([H:10])([C:6]1([H:11])[H:12])[O:7]2>>[N:1]#[C:2][C:6]([C@@:5]1([H:10])[C:4]([H:8])([H:9])[C-:3]=[O+:7]1)([H:11])[H:12]"
N       -1.60505022       2.54994146       0.10037443
C       -1.11528585       1.51140380       0.16837477
C        0.52803803       0.69464409       0.83226079
C        1.34686631       0.04297033      -0.27511854
C        0.32425690      -1.01965439       0.14076145
C       -0.98956564      -0.33745523      -0.24247143
O        0.38155532      -0.49982411       1.51389709
H        1.25489638       0.52318699      -1.24861137
H        2.39165479      -0.13046043      -0.03043739
H        0.47527696      -2.09111323       0.06669084
H       -1.16895123      -0.44509287      -1.31463380
H       -1.82369176      -0.79854641       0.28891318
12
Frame=16 idx=009913 GeodesicLength=1.2702382552299034 rxn_smarts="[N:1]#[C:2][C:3]12[C:4]([H:8])([H:9])[C:5]([H:10])([C:6]1([H:11])[H:12])[O:7]2>>[N:1]#[C:2][C:6]([C@@:5]1([H:10])[C:4]([H:8])([H:9])[C-:3]=[O+:7]1)([H:11])[H:12]"
N       -1.59770615       2.57536250       0.10348868
C       -1.13901771       1.52329701       0.15026894
C        0.53397879       0.68963187       0.83955851
C        1.34979892       0.04186896      -0.27205564
C        0.32446046      -1.02071046       0.13861467
C       -0.99024882      -0.33789603      -0.23962618
O        0.38244546      -0.50663670       1.51424657
H        1.25499560       0.53180211      -1.24062095
H        2.39612876      -0.13366313      -0.03573167
H        0.47591315      -2.09112753       0.06129884
H       -1.17099674      -0.46256880      -1.31022958
H       -1.81975172      -0.80935981       0.29078781
