10
Frame=0 idx=008639 GeodesicLength=0.0 rxn_smarts="[N:1](=[C:2]1/[C:3]([H:9])=[C:4]([H:10])[C:5](=[O:6])[O:7]1)\[H:8]>>[N:1](=[C:2]=[O:7])[H:8].[c:3]1([H:9])[c:4]([H:10])[c:5]1=[O:6]"
N        1.87095653      -0.24112081      -0.43418026
C        1.45851114       0.57865745       0.40410599
C       -0.30740641      -0.69905712       0.56144115
C       -1.46343820      -0.61528355      -0.18261095
C       -1.70340281       0.71532162      -0.35157065
O       -1.86117068       1.83170703      -0.46248593
O        1.37543919       1.51418144       1.10351518
H        2.77414984      -0.00891858      -0.83169110
H       -0.00656072      -1.72146466       0.80142437
H       -2.13707788      -1.35402282      -0.60794780
10
Frame=1 idx=008639 GeodesicLength=0.09834448460425801 rxn_smarts="[N:1](=[C:2]1/[C:3]([H:9])=[C:4]([H:10])[C:5](=[O:6])[O:7]1)\[H:8]>>[N:1](=[C:2]=[O:7])[H:8].[c:3]1([H:9])[c:4]([H:10])[c:5]1=[O:6]"
N        1.87540630      -0.23086709      -0.43897645
C        1.45605600       0.53804192       0.44147303
C       -0.31458477      -0.72433125       0.57073804
C       -1.48651876      -0.62401895      -0.13940153
C       -1.63983774       0.72203282      -0.31784116
O       -1.77647499       1.82733268      -0.54354855
O        1.32163314       1.49872477       1.10756752
H        2.73145497       0.07847277      -0.88703027
H       -0.01121049      -1.74482979       0.81252149
H       -2.15592367      -1.34055788      -0.60550213
10
Frame=2 idx=008639 GeodesicLength=0.19684392013986401 rxn_smarts="[N:1](=[C:2]1/[C:3]([H:9])=[C:4]([H:10])[C:5](=[O:6])[O:7]1)\[H:8]>>[N:1](=[C:2]=[O:7])[H:8].[c:3]1([H:9])[c:4]([H:10])[c:5]1=[O:6]"
N        1.88286215      -0.22260367      -0.43935967
C        1.45452655       0.50058068       0.47346343
C       -0.32164315      -0.74572780       0.57874917
C       -1.50420526      -0.62817131      -0.10438396
C       -1.57816831       0.72871430      -0.28624583
O       -1.69659912       1.81332296      -0.61728942
O        1.27325694       1.47968212       1.11144667
H        2.67793421       0.16259351      -0.93915798
H       -0.01775266      -1.76390343       0.82625688
H       -2.17021136      -1.32448735      -0.60347930
10
Frame=3 idx=008639 GeodesicLength=0.2962922781257641 rxn_smarts="[N:1](=[C:2]1/[C:3]([H:9])=[C:4]([H:10])[C:5](=[O:6])[O:7]1)\[H:8]>>[N:1](=[C:2]=[O:7])[H:8].[c:3]1([H:9])[c:4]([H:10])[c:5]1=[O:6]"
N        1.90131361      -0.21119071      -0.43623396
C        1.45354672       0.46775341       0.49976311
C       -0.32530944      -0.76705193       0.57290926
C       -1.52311233      -0.62901317      -0.07252788
C       -1.51658182       0.73331391      -0.26554709
O       -1.61907489       1.79129974      -0.68920017
O        1.22612676       1.45706632       1.11824486
H        2.62856906       0.24678988      -0.97753519
H       -0.02184495      -1.78281707       0.82746352
H       -2.20363271      -1.30615039      -0.57733646
10
Frame=4 idx=008639 GeodesicLength=0.39706191150746867 rxn_smarts="[N:1](=[C:2]1/[C:3]([H:9])=[C:4]([H:10])[C:5](=[O:6])[O:7]1)\[H:8]>>[N:1](=[C:2]=[O:7])[H:8].[c:3]1([H:9])[c:4]([H:10])[c:5]1=[O:6]"
N        1.92603876      -0.19522980      -0.43223576
C        1.45248131       0.43793860       0.52195883
C       -0.32665977      -0.78848008       0.55688487
C       -1.54243439      -0.62654113      -0.04108350
C       -1.45613146       0.73558876      -0.25272513
O       -1.54240429       1.76216896      -0.76051120
O        1.17984183       1.43175729       1.12691701
H        2.58222878       0.32935997      -1.00425506
H       -0.02398772      -1.80176298       0.81908658
H       -2.24897305      -1.28479958      -0.53403664
10
Frame=5 idx=008639 GeodesicLength=0.49739682231160093 rxn_smarts="[N:1](=[C:2]1/[C:3]([H:9])=[C:4]([H:10])[C:5](=[O:6])[O:7]1)\[H:8]>>[N:1](=[C:2]=[O:7])[H:8].[c:3]1([H:9])[c:4]([H:10])[c:5]1=[O:6]"
N        1.95910055      -0.18214945      -0.41945583
C        1.45150316       0.41131076       0.54151706
C       -0.32641454      -0.80739782       0.53647022
C       -1.55702607      -0.62181467      -0.01548839
C       -1.39760433       0.73623327      -0.24457908
O       -1.47570583       1.73301759      -0.81858661
O        1.13576544       1.40841658       1.13214434
H        2.52537616       0.40107035      -1.03049785
H       -0.02618504      -1.81677047       0.81286757
H       -2.28880950      -1.26191615      -0.49439144
10
Frame=6 idx=008639 GeodesicLength=0.5987115695499277 rxn_smarts="[N:1](=[C:2]1/[C:3]([H:9])=[C:4]([H:10])[C:5](=[O:6])[O:7]1)\[H:8]>>[N:1](=[C:2]=[O:7])[H:8].[c:3]1([H:9])[c:4]([H:10])[c:5]1=[O:6]"
N        1.99146339      -0.16249415      -0.40985777
C        1.44956532       0.38614961       0.55787771
C       -0.32548627      -0.82640392       0.51071644
C       -1.57060767      -0.61491518       0.01049227
C       -1.34120358       0.73463504      -0.24084453
O       -1.40999147       1.69967965      -0.87596508
O        1.09223512       1.38285795       1.13830259
H        2.47297702       0.46789328      -1.04706363
H       -0.02697139      -1.83125787       0.80202381
H       -2.33198046      -1.23614442      -0.44568179
10
Frame=7 idx=008639 GeodesicLength=0.7003316121729345 rxn_smarts="[N:1](=[C:2]1/[C:3]([H:9])=[C:4]([H:10])[C:5](=[O:6])[O:7]1)\[H:8]>>[N:1](=[C:2]=[O:7])[H:8].[c:3]1([H:9])[c:4]([H:10])[c:5]1=[O:6]"
N        2.02552587      -0.14059909      -0.39842516
C        1.44699016       0.36252143       0.57182474
C       -0.32396108      -0.84437678       0.48163586
C       -1.58090216      -0.60681789       0.03341862
C       -1.28735533       0.73167007      -0.23927071
O       -1.35001963       1.66651675      -0.92624930
O        1.04999813       1.35729604       1.14310021
H        2.41800648       0.52564973      -1.06075027
H       -0.02738463      -1.84302339       0.79296809
H       -2.37089783      -1.20883687      -0.39825207
10
Frame=8 idx=008639 GeodesicLength=0.8024181596345211 rxn_smarts="[N:1](=[C:2]1/[C:3]([H:9])=[C:4]([H:10])[C:5](=[O:6])[O:7]1)\[H:8]>>[N:1](=[C:2]=[O:7])[H:8].[c:3]1([H:9])[c:4]([H:10])[c:5]1=[O:6]"
N        2.06049097      -0.11572410      -0.38536837
C        1.44375776       0.34013526       0.58370849
C       -0.32194501      -0.86152229       0.44948192
C       -1.58808040      -0.59809765       0.05335280
C       -1.23596929       0.72762448      -0.23913113
O       -1.29534094       1.63449934      -0.97010258
O        1.00888174       1.33149889       1.14702654
H        2.36082231       0.57388301      -1.07248736
H       -0.02726639      -1.85177166       0.78621420
H       -2.40535076      -1.18052528      -0.35269452
10
Frame=9 idx=008639 GeodesicLength=0.9051124803331743 rxn_smarts="[N:1](=[C:2]1/[C:3]([H:9])=[C:4]([H:10])[C:5](=[O:6])[O:7]1)\[H:8]>>[N:1](=[C:2]=[O:7])[H:8].[c:3]1([H:9])[c:4]([H:10])[c:5]1=[O:6]"
N        2.09348433      -0.08727385      -0.37313929
C        1.43990950       0.31827870       0.59322683
C       -0.32027004      -0.87786475       0.41653213
C       -1.59256930      -0.58937268       0.07028905
C       -1.18680569       0.72260548      -0.23969747
O       -1.24452507       1.60395644      -1.00826258
O        0.96936089       1.30476631       1.15063093
H        2.30347148       0.61419213      -1.08242434
H       -0.02705465      -1.85726479       0.78324182
H       -2.43500146      -1.15202299      -0.31039709
10
Frame=10 idx=008639 GeodesicLength=1.0084408020763065 rxn_smarts="[N:1](=[C:2]1/[C:3]([H:9])=[C:4]([H:10])[C:5](=[O:6])[O:7]1)\[H:8]>>[N:1](=[C:2]=[O:7])[H:8].[c:3]1([H:9])[c:4]([H:10])[c:5]1=[O:6]"
N        2.12317566      -0.05543062      -0.36262284
C        1.43560379       0.29664666       0.60025459
C       -0.31954788      -0.89328458       0.38479980
C       -1.59504802      -0.58097366       0.08455104
C       -1.13963826       0.71664781      -0.24049849
O       -1.19655844       1.57481879      -1.04155133
O        0.93178889       1.27704731       1.15396774
H        2.24744914       0.64817615      -1.09071413
H       -0.02697048      -1.85975632       0.78362508
H       -2.46025439      -1.12389154      -0.27181147
10
Frame=11 idx=008639 GeodesicLength=1.1122923267415072 rxn_smarts="[N:1](=[C:2]1/[C:3]([H:9])=[C:4]([H:10])[C:5](=[O:6])[O:7]1)\[H:8]>>[N:1](=[C:2]=[O:7])[H:8].[c:3]1([H:9])[c:4]([H:10])[c:5]1=[O:6]"
N        2.15013187      -0.02067570      -0.35255977
C        1.43105443       0.27567642       0.60528631
C       -0.31986495      -0.90730780       0.35569778
C       -1.59603457      -0.57304195       0.09638912
C       -1.09444686       0.71003527      -0.24097482
O       -1.15146094       1.54743841      -1.07015190
O        0.89629581       1.24943587       1.15677352
H        2.19237570       0.67505606      -1.09836365
H       -0.02667070      -1.85992571       0.78532391
H       -2.48137979      -1.09669089      -0.23742049
10
Frame=12 idx=008639 GeodesicLength=1.2164421709205986 rxn_smarts="[N:1](=[C:2]1/[C:3]([H:9])=[C:4]([H:10])[C:5](=[O:6])[O:7]1)\[H:8]>>[N:1](=[C:2]=[O:7])[H:8].[c:3]1([H:9])[c:4]([H:10])[c:5]1=[O:6]"
N        2.17499978       0.01697320      -0.34168821
C        1.42628594       0.25592795       0.60880038
C       -0.32117752      -0.91954493       0.32981168
C       -1.59614505      -0.56550381       0.10649882
C       -1.05141806       0.70303478      -0.24081208
O       -1.10918237       1.52172544      -1.09472647
O        0.86267293       1.22300968       1.15881342
H        2.13886351       0.69398519      -1.10585058
H       -0.02569362      -1.85896259       0.78556728
H       -2.49920554      -1.07064490      -0.20641424
10
Frame=13 idx=008639 GeodesicLength=1.320691327156073 rxn_smarts="[N:1](=[C:2]1/[C:3]([H:9])=[C:4]([H:10])[C:5](=[O:6])[O:7]1)\[H:8]>>[N:1](=[C:2]=[O:7])[H:8].[c:3]1([H:9])[c:4]([H:10])[c:5]1=[O:6]"
N        2.19524721       0.05669819      -0.33383733
C        1.42165949       0.23615748       0.60918091
C       -0.32435530      -0.93067930       0.30826733
C       -1.59648561      -0.55867647       0.11505055
C       -1.01052666       0.69525429      -0.23948902
O       -1.06773757       1.49632921      -1.11615371
O        0.83182855       1.19605351       1.16014715
H        2.09091736       0.71152540      -1.11186173
H       -0.02569128      -1.85666098       0.78829614
H       -2.51485619      -1.04600133      -0.17960029
10
Frame=14 idx=008639 GeodesicLength=1.424828691634966 rxn_smarts="[N:1](=[C:2]1/[C:3]([H:9])=[C:4]([H:10])[C:5](=[O:6])[O:7]1)\[H:8]>>[N:1](=[C:2]=[O:7])[H:8].[c:3]1([H:9])[c:4]([H:10])[c:5]1=[O:6]"
N        2.21342727       0.09877296      -0.32553434
C        1.41716103       0.21740154       0.60768453
C       -0.32857311      -0.94028553       0.28988146
C       -1.59696896      -0.55236586       0.12230864
C       -0.97192311       0.68724838      -0.23691808
O       -1.02825857       1.47212091      -1.13426416
O        0.80303440       1.17014151       1.16077873
H        2.04625893       0.72357717      -1.11813929
H       -0.02552745      -1.85378597       0.79026762
H       -2.52863044      -1.02282513      -0.15606513
10
Frame=15 idx=008639 GeodesicLength=1.528821329917798 rxn_smarts="[N:1](=[C:2]1/[C:3]([H:9])=[C:4]([H:10])[C:5](=[O:6])[O:7]1)\[H:8]>>[N:1](=[C:2]=[O:7])[H:8].[c:3]1([H:9])[c:4]([H:10])[c:5]1=[O:6]"
N        2.22875858       0.14278777      -0.31813474
C        1.41305504       0.19909493       0.60369787
C       -0.33400777      -0.94880456       0.27466255
C       -1.59800364      -0.54672570       0.12822439
C       -0.93545388       0.67887864      -0.23289527
O       -0.98988508       1.44865844      -1.14936275
O        0.77661729       1.14438834       1.16093854
H        2.00593302       0.73293796      -1.12449179
H       -0.02590141      -1.85001651       0.79356636
H       -2.54111215      -1.00119931      -0.13620516
10
Frame=16 idx=008639 GeodesicLength=1.6325750753688688 rxn_smarts="[N:1](=[C:2]1/[C:3]([H:9])=[C:4]([H:10])[C:5](=[O:6])[O:7]1)\[H:8]>>[N:1](=[C:2]=[O:7])[H:8].[c:3]1([H:9])[c:4]([H:10])[c:5]1=[O:6]"
N        2.24111911       0.18810851      -0.31214065
C        1.40942531       0.18093734       0.59674724
C       -0.34079330      -0.95650814       0.26255314
C       -1.59994766      -0.54182994       0.13290261
C       -0.90114685       0.67007929      -0.22725041
O       -0.95214337       1.42555976      -1.16171199
O        0.75275445       1.11839618       1.16061686
H        1.97078125       0.74167436      -1.13083726
H       -0.02720192      -1.84521751       0.79913494
H       -2.55284700      -0.98119986      -0.12001449
