12
Frame=0 idx=005829 GeodesicLength=0.0 rxn_smarts="[N:1]([C@@:2]([C:3]([O:4][H:12])([H:10])[H:11])([C:5]#[N:6])[H:9])([H:7])[H:8]>>[N:1]([C:2](=[C:5]=[N:6][C:3]([O:4][H:12])([H:10])[H:11])[H:9])([H:7])[H:8]"
N        1.07292534       1.25343581       1.30399428
C        1.02244262      -0.04967597       0.76227347
C       -1.25555449      -0.65680602      -0.70336178
O       -2.53963986      -0.86973036      -0.90411691
C        1.20788131      -0.33042053      -0.56499429
N        0.97670553      -0.59963911      -1.69124678
H        1.80633718       1.37398372       1.98789125
H        1.15252722       1.97023185       0.59910735
H        1.14376901      -0.85675001       1.47287785
H       -0.88672296       0.34870960      -0.71096290
H       -0.70621867      -1.52874113      -0.41551721
H       -2.99445226      -0.05459780      -1.13594436
12
Frame=1 idx=005829 GeodesicLength=0.059942470419048315 rxn_smarts="[N:1]([C@@:2]([C:3]([O:4][H:12])([H:10])[H:11])([C:5]#[N:6])[H:9])([H:7])[H:8]>>[N:1]([C:2](=[C:5]=[N:6][C:3]([O:4][H:12])([H:10])[H:11])[H:9])([H:7])[H:8]"
N        1.05628658       1.24995475       1.30185061
C        1.00114166      -0.05323634       0.75728564
C       -1.23019843      -0.65018638      -0.70478717
O       -2.52437164      -0.86342901      -0.87671596
C        1.22177681      -0.33262811      -0.56655811
N        0.98136089      -0.60451996      -1.69091638
H        1.79468234       1.36629426       1.98125850
H        1.13936698       1.96764130       0.59803118
H        1.12859272      -0.85962486       1.46809446
H       -0.88511982       0.36509457      -0.74705023
H       -0.70416836      -1.53822021      -0.41624136
H       -2.97934972      -0.04714001      -1.10425118
12
Frame=2 idx=005829 GeodesicLength=0.12008434578074484 rxn_smarts="[N:1]([C@@:2]([C:3]([O:4][H:12])([H:10])[H:11])([C:5]#[N:6])[H:9])([H:7])[H:8]>>[N:1]([C:2](=[C:5]=[N:6][C:3]([O:4][H:12])([H:10])[H:11])[H:9])([H:7])[H:8]"
N        1.03962868       1.24619606       1.29955861
C        0.98139445      -0.05704774       0.75192222
C       -1.20535359      -0.64368262      -0.70497370
O       -2.50885677      -0.85654871      -0.85029345
C        1.23536628      -0.33487794      -0.56799893
N        0.98517528      -0.60887219      -1.69042545
H        1.78292964       1.35909121       1.97434391
H        1.12520665       1.96490770       0.59684138
H        1.11469593      -0.86265390       1.46305257
H       -0.88420171       0.37972323      -0.78115809
H       -0.70282681      -1.54728976      -0.41629266
H       -2.96315803      -0.03894534      -1.07457641
12
Frame=3 idx=005829 GeodesicLength=0.18037938715580926 rxn_smarts="[N:1]([C@@:2]([C:3]([O:4][H:12])([H:10])[H:11])([C:5]#[N:6])[H:9])([H:7])[H:8]>>[N:1]([C:2](=[C:5]=[N:6][C:3]([O:4][H:12])([H:10])[H:11])[H:9])([H:7])[H:8]"
N        1.02301908       1.24222095       1.29713384
C        0.96306055      -0.06108378       0.74629606
C       -1.18097286      -0.63728119      -0.70425670
O       -2.49315730      -0.84929414      -0.82524689
C        1.24871172      -0.33717893      -0.56928218
N        0.98835729      -0.61275692      -1.68974882
H        1.77113897       1.35237241       1.96719293
H        1.11026872       1.96203786       0.59550767
H        1.10189558      -0.86581366       1.45787035
H       -0.88392521       0.39272090      -0.81349435
H       -0.70215144      -1.55585747      -0.41573286
H       -2.94624509      -0.03008603      -1.04623904
12
Frame=4 idx=005829 GeodesicLength=0.2407267318207174 rxn_smarts="[N:1]([C@@:2]([C:3]([O:4][H:12])([H:10])[H:11])([C:5]#[N:6])[H:9])([H:7])[H:8]>>[N:1]([C:2](=[C:5]=[N:6][C:3]([O:4][H:12])([H:10])[H:11])[H:9])([H:7])[H:8]"
N        1.00691099       1.23803084       1.29477390
C        0.94623288      -0.06530095       0.74054566
C       -1.15730067      -0.63083169      -0.70214008
O       -2.47757753      -0.84187965      -0.80137458
C        1.26160859      -0.33934757      -0.57047924
N        0.99041831      -0.61589047      -1.68890042
H        1.76000587       1.34601528       1.95975701
H        1.09485888       1.95907610       0.59424785
H        1.09054344      -0.86914884       1.45253585
H       -0.88462930       0.40436376      -0.84346702
H       -0.70225933      -1.56375050      -0.41416434
H       -2.92881213      -0.02133631      -1.02133459
12
Frame=5 idx=005829 GeodesicLength=0.3010598261947087 rxn_smarts="[N:1]([C@@:2]([C:3]([O:4][H:12])([H:10])[H:11])([C:5]#[N:6])[H:9])([H:7])[H:8]>>[N:1]([C:2](=[C:5]=[N:6][C:3]([O:4][H:12])([H:10])[H:11])[H:9])([H:7])[H:8]"
N        0.99135792       1.23370835       1.29247357
C        0.93078111      -0.06965315       0.73477564
C       -1.13428905      -0.62431574      -0.69886775
O       -2.46210982      -0.83461951      -0.77970872
C        1.27411982      -0.34143681      -0.57154306
N        0.99155374      -0.61841187      -1.68782949
H        1.74955633       1.34005161       1.95206581
H        1.07918361       1.95603849       0.59300156
H        1.08045312      -0.87259595       1.44718752
H       -0.88623833       0.41476322      -0.87130279
H       -0.70311976      -1.57090833      -0.41159880
H       -2.91124869      -0.01262030      -0.99865349
12
Frame=6 idx=005829 GeodesicLength=0.36136997448181485 rxn_smarts="[N:1]([C@@:2]([C:3]([O:4][H:12])([H:10])[H:11])([C:5]#[N:6])[H:9])([H:7])[H:8]>>[N:1]([C:2](=[C:5]=[N:6][C:3]([O:4][H:12])([H:10])[H:11])[H:9])([H:7])[H:8]"
N        0.97620367       1.22937086       1.29016336
C        0.91647094      -0.07410990       0.72904882
C       -1.11176872      -0.61780444      -0.69498730
O       -2.44666174      -0.82781260      -0.76150063
C        1.28639799      -0.34359329      -0.57240497
N        0.99221523      -0.62064009      -1.68651905
H        1.73951376       1.33459309       1.94419803
H        1.06331068       1.95296314       0.59161576
H        1.07122746      -0.87608548       1.44200152
H       -0.88848390       0.42393829      -0.89761509
H       -0.70463872      -1.57736947      -0.40825728
H       -2.89378664      -0.00345011      -0.97574316
12
Frame=7 idx=005829 GeodesicLength=0.4212343292129177 rxn_smarts="[N:1]([C@@:2]([C:3]([O:4][H:12])([H:10])[H:11])([C:5]#[N:6])[H:9])([H:7])[H:8]>>[N:1]([C:2](=[C:5]=[N:6][C:3]([O:4][H:12])([H:10])[H:11])[H:9])([H:7])[H:8]"
N        0.96407540       1.22477545       1.28898243
C        0.90455278      -0.07849773       0.72382781
C       -1.09135737      -0.61026260      -0.68630994
O       -2.43275042      -0.82189550      -0.74396864
C        1.29705803      -0.34476985      -0.57361233
N        0.98870221      -0.62061237      -1.68502691
H        1.73393528       1.32889599       1.93563814
H        1.04842723       1.95001258       0.59152698
H        1.06566287      -0.87989171       1.43653256
H       -0.89359551       0.43312809      -0.91770047
H       -0.70770121      -1.58225853      -0.40145829
H       -2.87700929       0.00137619      -0.96843135
12
Frame=8 idx=005829 GeodesicLength=0.4812044138633891 rxn_smarts="[N:1]([C@@:2]([C:3]([O:4][H:12])([H:10])[H:11])([C:5]#[N:6])[H:9])([H:7])[H:8]>>[N:1]([C:2](=[C:5]=[N:6][C:3]([O:4][H:12])([H:10])[H:11])[H:9])([H:7])[H:8]"
N        0.95063358       1.22033103       1.28695634
C        0.89265863      -0.08299514       0.71843688
C       -1.07024870      -0.60335293      -0.68025997
O       -2.41804339      -0.81653434      -0.73235512
C        1.30853023      -0.34670180      -0.57412749
N        0.98756260      -0.62166088      -1.68300585
H        1.72604399       1.32409041       1.92716617
H        1.03284006       1.94676403       0.59029452
H        1.05870448      -0.88337219       1.43156589
H       -0.89764542       0.44039341      -0.93982123
H       -0.71062833      -1.58682576      -0.39583411
H       -2.86040774       0.00986416      -0.94901603
12
Frame=9 idx=005829 GeodesicLength=0.541157093444984 rxn_smarts="[N:1]([C@@:2]([C:3]([O:4][H:12])([H:10])[H:11])([C:5]#[N:6])[H:9])([H:7])[H:8]>>[N:1]([C:2](=[C:5]=[N:6][C:3]([O:4][H:12])([H:10])[H:11])[H:9])([H:7])[H:8]"
N        0.93769326       1.21587509       1.28509253
C        0.88163688      -0.08758963       0.71315520
C       -1.04958779      -0.59639038      -0.67407426
O       -2.40380678      -0.81116631      -0.72099921
C        1.31981981      -0.34862365      -0.57459037
N        0.98617290      -0.62219919      -1.68097321
H        1.71868745       1.31956364       1.91868095
H        1.01732979       1.94353914       0.58911712
H        1.05233379      -0.88703935       1.42673791
H       -0.90225063       0.44678617      -0.96070231
H       -0.71396541      -1.59067969      -0.38986473
H       -2.84406326       0.01792417      -0.93157962
12
Frame=10 idx=005829 GeodesicLength=0.6008717501582012 rxn_smarts="[N:1]([C@@:2]([C:3]([O:4][H:12])([H:10])[H:11])([C:5]#[N:6])[H:9])([H:7])[H:8]>>[N:1]([C:2](=[C:5]=[N:6][C:3]([O:4][H:12])([H:10])[H:11])[H:9])([H:7])[H:8]"
N        0.92674517       1.21112422       1.28404846
C        0.87217110      -0.09216922       0.70819570
C       -1.03025631      -0.58870325      -0.66549419
O       -2.39088784      -0.80573550      -0.70652827
C        1.33015693      -0.34985026      -0.57532393
N        0.98247526      -0.62101049      -1.67886091
H        1.71413550       1.31471838       1.90984970
H        1.00256396       1.94027086       0.58895201
H        1.04811847      -0.89101046       1.42162052
H       -0.90863634       0.45307625      -0.97771488
H       -0.71814840      -1.59316501      -0.38216453
H       -2.82843751       0.02245449      -0.92657968
12
Frame=11 idx=005829 GeodesicLength=0.6614962366759131 rxn_smarts="[N:1]([C@@:2]([C:3]([O:4][H:12])([H:10])[H:11])([C:5]#[N:6])[H:9])([H:7])[H:8]>>[N:1]([C:2](=[C:5]=[N:6][C:3]([O:4][H:12])([H:10])[H:11])[H:9])([H:7])[H:8]"
N        0.91187905       1.20626380       1.28139558
C        0.86136847      -0.09725458       0.70233978
C       -1.00868866      -0.58279375      -0.66371944
O       -2.37665501      -0.79761931      -0.68820861
C        1.34255306      -0.35223507      -0.57522574
N        0.98457518      -0.62144873      -1.67683879
H        1.70360113       1.31071869       1.90173675
H        0.98555656       1.93640639       0.58687534
H        1.04015741      -0.89499747       1.41670739
H       -0.91217974       0.45649085      -1.00097499
H       -0.72091777      -1.59649288      -0.37924581
H       -2.81124969       0.03296203      -0.90484146
12
Frame=12 idx=005829 GeodesicLength=0.7226627746004957 rxn_smarts="[N:1]([C@@:2]([C:3]([O:4][H:12])([H:10])[H:11])([C:5]#[N:6])[H:9])([H:7])[H:8]>>[N:1]([C:2](=[C:5]=[N:6][C:3]([O:4][H:12])([H:10])[H:11])[H:9])([H:7])[H:8]"
N        0.89608228       1.20118472       1.27841457
C        0.85069240      -0.10262875       0.69621951
C       -0.98676557      -0.57744697      -0.66379804
O       -2.36228118      -0.78803256      -0.66613249
C        1.35537078      -0.35478425      -0.57488639
N        0.98814331      -0.62176158      -1.67493082
H        1.69163780       1.30698087       1.89378220
H        0.96767454       1.93226283       0.58439086
H        1.03162495      -0.89924429       1.41173191
H       -0.91538372       0.45848406      -1.02523920
H       -0.72347488      -1.59967519      -0.37774297
H       -2.79332070       0.04466112      -0.88180914
12
Frame=13 idx=005829 GeodesicLength=0.7843028801164484 rxn_smarts="[N:1]([C@@:2]([C:3]([O:4][H:12])([H:10])[H:11])([C:5]#[N:6])[H:9])([H:7])[H:8]>>[N:1]([C:2](=[C:5]=[N:6][C:3]([O:4][H:12])([H:10])[H:11])[H:9])([H:7])[H:8]"
N        0.87944707       1.19595593       1.27505475
C        0.84014620      -0.10822046       0.68989424
C       -0.96460614      -0.57265287      -0.66534609
O       -2.34756551      -0.77758117      -0.64309980
C        1.36850286      -0.35751120      -0.57421661
N        0.99295971      -0.62208202      -1.67297995
H        1.67840576       1.30360728       1.88585605
H        0.94894667       1.92784084       0.58140504
H        1.02261141      -0.90363238       1.40676925
H       -0.91831083       0.45899841      -1.05035617
H       -0.72595273      -1.60269792      -0.37724258
H       -2.77458447       0.05797556      -0.85573813
12
Frame=14 idx=005829 GeodesicLength=0.846534401810865 rxn_smarts="[N:1]([C@@:2]([C:3]([O:4][H:12])([H:10])[H:11])([C:5]#[N:6])[H:9])([H:7])[H:8]>>[N:1]([C:2](=[C:5]=[N:6][C:3]([O:4][H:12])([H:10])[H:11])[H:9])([H:7])[H:8]"
N        0.86192243       1.19059918       1.27134880
C        0.82969586      -0.11406790       0.68337515
C       -0.94224337      -0.56843881      -0.66826951
O       -2.33238465      -0.76620176      -0.61905942
C        1.38190334      -0.36042369      -0.57328128
N        0.99894976      -0.62242574      -1.67110679
H        1.66388501       1.30062858       1.87797441
H        0.92927366       1.92320838       0.57790845
H        1.01315150      -0.90825418       1.40184114
H       -0.92103486       0.45805936      -1.07634507
H       -0.72837703      -1.60566836      -0.37771852
H       -2.75474164       0.07298494      -0.82666735
12
Frame=15 idx=005829 GeodesicLength=0.9095340329369108 rxn_smarts="[N:1]([C@@:2]([C:3]([O:4][H:12])([H:10])[H:11])([C:5]#[N:6])[H:9])([H:7])[H:8]>>[N:1]([C:2](=[C:5]=[N:6][C:3]([O:4][H:12])([H:10])[H:11])[H:9])([H:7])[H:8]"
N        0.84341957       1.18487998       1.26717860
C        0.81929570      -0.12018392       0.67656830
C       -0.91964673      -0.56483525      -0.67256017
O       -2.31650476      -0.75338486      -0.59228698
C        1.39551490      -0.36333490      -0.57196408
N        1.00605164      -0.62252093      -1.66910224
H        1.64798272       1.29784205       1.86997267
H        0.90854130       1.91805544       0.57392677
H        1.00325677      -0.91301999       1.39669200
H       -0.92365939       0.45554144      -1.10306052
H       -0.73072870      -1.60847894      -0.37938914
H       -2.73352303       0.08943989      -0.79597522
12
Frame=16 idx=005829 GeodesicLength=0.9731022686528353 rxn_smarts="[N:1]([C@@:2]([C:3]([O:4][H:12])([H:10])[H:11])([C:5]#[N:6])[H:9])([H:7])[H:8]>>[N:1]([C:2](=[C:5]=[N:6][C:3]([O:4][H:12])([H:10])[H:11])[H:9])([H:7])[H:8]"
N        0.82448927       1.17902696       1.26283558
C        0.80913598      -0.12649257       0.66967661
C       -0.89716266      -0.56163462      -0.67738364
O       -2.30010417      -0.73986221      -0.56492658
C        1.40908033      -0.36624993      -0.57046979
N        1.01358546      -0.62235027      -1.66716371
H        1.63146509       1.29533292       1.86193953
H        0.88716046       1.91272359       0.56963727
H        0.99335805      -0.91802903       1.39152991
H       -0.92655605       0.45175938      -1.12982190
H       -0.73324933      -1.61111700      -0.38145954
H       -2.71120243       0.10689278      -0.76439373
