15
Frame=0 idx=006425 GeodesicLength=0.0 rxn_smarts="[C:1]([O:2][C:3](=[O:4])[C@@:5]([C:6]([H:12])([H:13])[H:14])([O:7][H:15])[H:11])([H:8])([H:9])[H:10]>>[C:1]([O:2][C:3](=[O:4])[C:5](=[O:7])[H:11])([H:8])([H:9])[H:10].[C:6]([H:12])([H:13])([H:14])[H:15]"
C        2.61413340      -0.28365515       0.80748178
O        1.23468367       0.01519310       1.03467070
C        0.43004723      -0.13494907      -0.00971383
O        0.78283965      -0.43089814      -1.11731644
C       -1.01404673       0.04457242       0.47942486
C       -1.95501165       0.52027860      -1.08155503
O       -1.55651555      -1.05854688       0.96310670
H        2.72352571      -1.30999256       0.45880006
H        3.10593092      -0.15201019       1.76701737
H        3.03163466       0.39574191       0.06457434
H       -1.15784095       0.99365567       1.01955011
H       -1.13584109       0.82330984      -1.72081138
H       -2.62461102       1.31594079      -0.77628574
H       -2.52244723      -0.24807181      -1.63373823
H       -1.95648100      -0.49056848      -0.25520523
15
Frame=1 idx=006425 GeodesicLength=0.10872882071621458 rxn_smarts="[C:1]([O:2][C:3](=[O:4])[C@@:5]([C:6]([H:12])([H:13])[H:14])([O:7][H:15])[H:11])([H:8])([H:9])[H:10]>>[C:1]([O:2][C:3](=[O:4])[C:5](=[O:7])[H:11])([H:8])([H:9])[H:10].[C:6]([H:12])([H:13])([H:14])[H:15]"
C        2.61781526      -0.26052213       0.79746052
O        1.23633603       0.02358478       1.03077657
C        0.41992949      -0.19002091       0.00694819
O        0.76193720      -0.54356550      -1.08712359
C       -1.02056270       0.02281323       0.49228993
C       -1.94545888       0.54447033      -1.08123916
O       -1.59131930      -1.07563236       0.94919169
H        2.74194667      -1.30187279       0.50224439
H        3.12186766      -0.06791407       1.74019409
H        3.01075190       0.38535254       0.01243132
H       -1.14839366       0.96218085       1.05245284
H       -1.11222612       0.87514932      -1.68904040
H       -2.61957370       1.33019620      -0.75949678
H       -2.49917046      -0.19390730      -1.68418664
H       -1.97387939      -0.51031217      -0.28290297
15
Frame=2 idx=006425 GeodesicLength=0.2175565632456159 rxn_smarts="[C:1]([O:2][C:3](=[O:4])[C@@:5]([C:6]([H:12])([H:13])[H:14])([O:7][H:15])[H:11])([H:8])([H:9])[H:10]>>[C:1]([O:2][C:3](=[O:4])[C:5](=[O:7])[H:11])([H:8])([H:9])[H:10].[C:6]([H:12])([H:13])([H:14])[H:15]"
C        2.61960114      -0.23685909       0.78419355
O        1.23657813       0.03117372       1.02688829
C        0.40841888      -0.24615267       0.02821729
O        0.73984570      -0.65413917      -1.05011530
C       -1.02837772       0.00064109       0.50732126
C       -1.93199252       0.56769196      -1.08078589
O       -1.62940662      -1.09152297       0.93521929
H        2.76040173      -1.28971448       0.54190545
H        3.13561115       0.01578425       1.70605659
H        2.98594628       0.37387656      -0.04081654
H       -1.14136063       0.92966659       1.08700128
H       -1.08366384       0.92371326      -1.65365232
H       -2.61121341       1.34381386      -0.74565259
H       -2.46945126      -0.13819149      -1.73372160
H       -1.99093700      -0.52978143      -0.31205878
15
Frame=3 idx=006425 GeodesicLength=0.3264995311706402 rxn_smarts="[C:1]([O:2][C:3](=[O:4])[C@@:5]([C:6]([H:12])([H:13])[H:14])([O:7][H:15])[H:11])([H:8])([H:9])[H:10]>>[C:1]([O:2][C:3](=[O:4])[C:5](=[O:7])[H:11])([H:8])([H:9])[H:10].[C:6]([H:12])([H:13])([H:14])[H:15]"
C        2.61924903      -0.21290865       0.76769138
O        1.23543377       0.03882212       1.02272860
C        0.39572793      -0.30241814       0.05402463
O        0.71686142      -0.76226210      -1.00648201
C       -1.03736798      -0.02181997       0.52444316
C       -1.91469163       0.58986656      -1.08003577
O       -1.66999845      -1.10623869       0.92074218
H        2.77819106      -1.27396769       0.57800004
H        3.14671332       0.09875653       1.66467543
H        2.95742122       0.36058620      -0.09521733
H       -1.13700776       0.89609805       1.12336118
H       -1.05084244       0.96970728      -1.61445812
H       -2.60016317       1.35630618      -0.73442475
H       -2.43255178      -0.08133953      -1.78209593
H       -2.00697452      -0.54918814      -0.34295270
15
Frame=4 idx=006425 GeodesicLength=0.43570392518378664 rxn_smarts="[C:1]([O:2][C:3](=[O:4])[C@@:5]([C:6]([H:12])([H:13])[H:14])([O:7][H:15])[H:11])([H:8])([H:9])[H:10]>>[C:1]([O:2][C:3](=[O:4])[C:5](=[O:7])[H:11])([H:8])([H:9])[H:10].[C:6]([H:12])([H:13])([H:14])[H:15]"
C        2.61660789      -0.18891552       0.74804052
O        1.23288662       0.04700107       1.01806993
C        0.38211156      -0.35799396       0.08422806
O        0.69333186      -0.86758303      -0.95642170
C       -1.04740947      -0.04439506       0.54355034
C       -1.89373427       0.61093095      -1.07886798
O       -1.71231960      -1.11972304       0.90536758
H        2.79492927      -1.25496530       0.61053263
H        3.15479848       0.18051917       1.61627239
H        2.92533229       0.34501733      -0.15057654
H       -1.13548976       0.86158282       1.16161729
H       -1.01460274       1.01359206      -1.57143504
H       -2.58697429       1.36735888      -0.72560905
H       -2.38811009      -0.02372318      -1.82893360
H       -2.02135777      -0.56870319      -0.37583484
15
Frame=5 idx=006425 GeodesicLength=0.5450620336105984 rxn_smarts="[C:1]([O:2][C:3](=[O:4])[C@@:5]([C:6]([H:12])([H:13])[H:14])([O:7][H:15])[H:11])([H:8])([H:9])[H:10]>>[C:1]([O:2][C:3](=[O:4])[C:5](=[O:7])[H:11])([H:8])([H:9])[H:10].[C:6]([H:12])([H:13])([H:14])[H:15]"
C        2.61146433      -0.16507348       0.72519496
O        1.22885936       0.05627107       1.01248676
C        0.36768437      -0.41225176       0.11864327
O        0.66942517      -0.96981259      -0.90008116
C       -1.05847038      -0.06704786       0.56452727
C       -1.86911244       0.63081075      -1.07706747
O       -1.75591457      -1.13200590       0.88857169
H        2.81002322      -1.23304398       0.64004752
H        3.15960094       0.26103873       1.56062155
H        2.88988545       0.32652432      -0.20686960
H       -1.13691162       0.82601955       1.20176071
H       -0.97554281       1.05610935      -1.52410081
H       -2.57200771       1.37645663      -0.71892809
H       -2.33558022       0.03453608      -1.87381245
H       -2.03340310      -0.58853092      -0.41099414
15
Frame=6 idx=006425 GeodesicLength=0.654757747119881 rxn_smarts="[C:1]([O:2][C:3](=[O:4])[C@@:5]([C:6]([H:12])([H:13])[H:14])([O:7][H:15])[H:11])([H:8])([H:9])[H:10]>>[C:1]([O:2][C:3](=[O:4])[C:5](=[O:7])[H:11])([H:8])([H:9])[H:10].[C:6]([H:12])([H:13])([H:14])[H:15]"
C        2.60397205      -0.14197889       0.69968720
O        1.22348648       0.06693569       1.00572784
C        0.35300075      -0.46368068       0.15651886
O        0.64582596      -1.06773939      -0.83816150
C       -1.07019087      -0.08919156       0.58704692
C       -1.84169255       0.64933549      -1.07464838
O       -1.79921954      -1.14283034       0.87020076
H        2.82317970      -1.20883227       0.66640111
H        3.16092585       0.33877579       1.49884377
H        2.85191656       0.30469713      -0.26311641
H       -1.14117405       0.79006700       1.24347518
H       -0.93557336       1.09751265      -1.47313313
H       -2.55640161       1.38319237      -0.71436120
H       -2.27569474       0.09266989      -1.91603108
H       -2.04236065      -0.60893287      -0.44844993
15
Frame=7 idx=006425 GeodesicLength=0.7648565958722482 rxn_smarts="[C:1]([O:2][C:3](=[O:4])[C@@:5]([C:6]([H:12])([H:13])[H:14])([O:7][H:15])[H:11])([H:8])([H:9])[H:10]>>[C:1]([O:2][C:3](=[O:4])[C:5](=[O:7])[H:11])([H:8])([H:9])[H:10].[C:6]([H:12])([H:13])([H:14])[H:15]"
C        2.59406266      -0.11977048       0.67161895
O        1.21669076       0.07850159       0.99788743
C        0.33819085      -0.51207576       0.19759782
O        0.62268619      -1.16145899      -0.77074320
C       -1.08249355      -0.11068133       0.61096767
C       -1.81162068       0.66652745      -1.07156414
O       -1.84185033      -1.15199275       0.84998198
H        2.83455852      -1.18241611       0.68941033
H        3.15865949       0.41344649       1.43114390
H        2.81120727       0.27976190      -0.31894649
H       -1.14802826       0.75388071       1.28656977
H       -0.89546331       1.13822901      -1.41850880
H       -2.54036303       1.38741474      -0.71196917
H       -2.20852460       0.15061019      -1.95513787
H       -2.04771197      -0.62997667      -0.48830818
15
Frame=8 idx=006425 GeodesicLength=0.8755760636887551 rxn_smarts="[C:1]([O:2][C:3](=[O:4])[C@@:5]([C:6]([H:12])([H:13])[H:14])([O:7][H:15])[H:11])([H:8])([H:9])[H:10]>>[C:1]([O:2][C:3](=[O:4])[C:5](=[O:7])[H:11])([H:8])([H:9])[H:10].[C:6]([H:12])([H:13])([H:14])[H:15]"
C        2.58192846      -0.09877318       0.64137522
O        1.20860010       0.09069974       0.98912271
C        0.32355272      -0.55682558       0.24132710
O        0.60039960      -1.25058592      -0.69824047
C       -1.09519334      -0.13118363       0.63605369
C       -1.77948858       0.68239623      -1.06787991
O       -1.88296519      -1.15934792       0.82773714
H        2.84430834      -1.15424447       0.70891623
H        3.15288932       0.48429991       1.35835278
H        2.76811736       0.25181602      -0.37373949
H       -1.15723657       0.71789581       1.33078246
H       -0.85655443       1.17858486      -1.36072400
H       -2.52447501       1.38904698      -0.71184872
H       -2.13492062       0.20807433      -1.99064562
H       -2.04896216      -0.65185317      -0.53058911
15
Frame=9 idx=006425 GeodesicLength=0.9864989207045987 rxn_smarts="[C:1]([O:2][C:3](=[O:4])[C@@:5]([C:6]([H:12])([H:13])[H:14])([O:7][H:15])[H:11])([H:8])([H:9])[H:10]>>[C:1]([O:2][C:3](=[O:4])[C:5](=[O:7])[H:11])([H:8])([H:9])[H:10].[C:6]([H:12])([H:13])([H:14])[H:15]"
C        2.56777990      -0.07949873       0.60934465
O        1.19934651       0.10441773       0.97851185
C        0.30930241      -0.59694974       0.28667627
O        0.57920000      -1.33404513      -0.62154761
C       -1.10805107      -0.15048020       0.66202276
C       -1.74595284       0.69689809      -1.06350083
O       -1.92153039      -1.16495358       0.80329002
H        2.85150899      -1.12509083       0.72645185
H        3.14385319       0.55086555       1.28074215
H        2.72414997       0.21969036      -0.42703819
H       -1.16854262       0.68212217       1.37582745
H       -0.82060398       1.21960412      -1.29969328
H       -2.50977064       1.38707205      -0.71382339
H       -2.05532529       0.26514573      -2.02208340
H       -2.04536416      -0.67479758      -0.57518029
15
Frame=10 idx=006425 GeodesicLength=1.0979147304886696 rxn_smarts="[C:1]([O:2][C:3](=[O:4])[C@@:5]([C:6]([H:12])([H:13])[H:14])([O:7][H:15])[H:11])([H:8])([H:9])[H:10]>>[C:1]([O:2][C:3](=[O:4])[C:5](=[O:7])[H:11])([H:8])([H:9])[H:10].[C:6]([H:12])([H:13])([H:14])[H:15]"
C        2.55204933      -0.06214631       0.57612468
O        1.18918913       0.11877146       0.96670081
C        0.29577157      -0.63232038       0.33304936
O        0.55948883      -1.41187143      -0.54108658
C       -1.12083509      -0.16825376       0.68862471
C       -1.71178759       0.71018671      -1.05870863
O       -1.95681654      -1.16864036       0.77664512
H        2.85702674      -1.09522486       0.74127474
H        3.13190725       0.61221805       1.19983006
H        2.67939518       0.18429770      -0.47797478
H       -1.18148564       0.64712614       1.42133731
H       -0.78888857       1.26103011      -1.23665867
H       -2.49643780       1.38210352      -0.71817462
H       -1.97172266       0.32161733      -2.04905375
H       -2.03685414      -0.69889392      -0.62192977
15
Frame=11 idx=006425 GeodesicLength=1.209801274039486 rxn_smarts="[C:1]([O:2][C:3](=[O:4])[C@@:5]([C:6]([H:12])([H:13])[H:14])([O:7][H:15])[H:11])([H:8])([H:9])[H:10]>>[C:1]([O:2][C:3](=[O:4])[C:5](=[O:7])[H:11])([H:8])([H:9])[H:10].[C:6]([H:12])([H:13])([H:14])[H:15]"
C        2.53471382      -0.04671919       0.54175196
O        1.17811762       0.13346191       0.95378900
C        0.28289838      -0.66324876       0.38029114
O        0.54117602      -1.48427800      -0.45687365
C       -1.13355345      -0.18459005       0.71586451
C       -1.67695287       0.72245041      -1.05352266
O       -1.98864246      -1.17040488       0.74767644
H        2.86095570      -1.06470338       0.75341433
H        3.11710475       0.66845091       1.11565922
H        2.63367322       0.14584402      -0.52650233
H       -1.19589895       0.61273296       1.46730893
H       -0.76191151       1.30311181      -1.17169286
H       -2.48425729       1.37410588      -0.72509615
H       -1.88435073       0.37786896      -2.07134128
H       -2.02307225      -0.72408260      -0.67072659
15
Frame=12 idx=006425 GeodesicLength=1.3222452741471196 rxn_smarts="[C:1]([O:2][C:3](=[O:4])[C@@:5]([C:6]([H:12])([H:13])[H:14])([O:7][H:15])[H:11])([H:8])([H:9])[H:10]>>[C:1]([O:2][C:3](=[O:4])[C:5](=[O:7])[H:11])([H:8])([H:9])[H:10].[C:6]([H:12])([H:13])([H:14])[H:15]"
C        2.51596943      -0.03330161       0.50648694
O        1.16622512       0.14843206       0.93979251
C        0.27075966      -0.68983528       0.42807238
O        0.52434542      -1.55119844      -0.36922470
C       -1.14616664      -0.19952353       0.74367847
C       -1.64172567       0.73390347      -1.04802350
O       -2.01656297      -1.17036324       0.71630196
H        2.86347080      -1.03379748       0.76300536
H        3.09966655       0.71940625       1.02879775
H        2.58725031       0.10445585      -0.57238464
H       -1.21164903       0.57888589       1.51369276
H       -0.74036673       1.34578323      -1.10542805
H       -2.47306288       1.36336563      -0.73463967
H       -1.79432774       0.43415301      -2.08871391
H       -2.00382565      -0.75036583      -0.72141367
15
Frame=13 idx=006425 GeodesicLength=1.43511894548427 rxn_smarts="[C:1]([O:2][C:3](=[O:4])[C@@:5]([C:6]([H:12])([H:13])[H:14])([O:7][H:15])[H:11])([H:8])([H:9])[H:10]>>[C:1]([O:2][C:3](=[O:4])[C:5](=[O:7])[H:11])([H:8])([H:9])[H:10].[C:6]([H:12])([H:13])([H:14])[H:15]"
C        2.49596371      -0.02210856       0.47045008
O        1.15342856       0.16421914       0.92377446
C        0.25935684      -0.71200372       0.47591401
O        0.50891893      -1.61221346      -0.27870526
C       -1.15864600      -0.21318406       0.77203962
C       -1.60627958       0.74477702      -1.04211357
O       -2.04005066      -1.16867059       0.68251514
H        2.86410787      -1.00267763       0.77128725
H        3.07978937       0.76503649       0.93907339
H        2.54109924       0.05926188      -0.61553045
H       -1.22863348       0.54524108       1.56051552
H       -0.72531679       1.38952096      -1.03769499
H       -2.46307085       1.34935869      -0.74686788
H       -1.70192688       0.49106864      -2.10092251
H       -1.97874027      -0.77762587      -0.77373481
15
Frame=14 idx=006425 GeodesicLength=1.5487365811723757 rxn_smarts="[C:1]([O:2][C:3](=[O:4])[C@@:5]([C:6]([H:12])([H:13])[H:14])([O:7][H:15])[H:11])([H:8])([H:9])[H:10]>>[C:1]([O:2][C:3](=[O:4])[C:5](=[O:7])[H:11])([H:8])([H:9])[H:10].[C:6]([H:12])([H:13])([H:14])[H:15]"
C        2.47449922      -0.01289952       0.43359180
O        1.13962624       0.18006306       0.90647468
C        0.24858749      -0.73041997       0.52419908
O        0.49477278      -1.66771280      -0.18512731
C       -1.17116620      -0.22577587       0.80104640
C       -1.57023391       0.75529687      -1.03585763
O       -2.05904586      -1.16535980       0.64629903
H        2.86341446      -0.97116498       0.77711715
H        3.05727917       0.80541638       0.84684884
H        2.49414331       0.01138613      -0.65590271
H       -1.24697800       0.51165650       1.60778944
H       -0.71627498       1.43346297      -0.96930255
H       -2.45304846       1.33297167      -0.76192407
H       -1.60787495       0.54877732      -2.10777594
H       -1.94770031      -0.80569796      -0.82747621
15
Frame=15 idx=006425 GeodesicLength=1.6634048419325569 rxn_smarts="[C:1]([O:2][C:3](=[O:4])[C@@:5]([C:6]([H:12])([H:13])[H:14])([O:7][H:15])[H:11])([H:8])([H:9])[H:10]>>[C:1]([O:2][C:3](=[O:4])[C:5](=[O:7])[H:11])([H:8])([H:9])[H:10].[C:6]([H:12])([H:13])([H:14])[H:15]"
C        2.45122990      -0.00557121       0.39570658
O        1.12459045       0.19572285       0.88805085
C        0.23831286      -0.74547470       0.57327726
O        0.48169785      -1.71770981      -0.08847135
C       -1.18391109      -0.23755418       0.83080985
C       -1.53306982       0.76568196      -1.02914281
O       -2.07328461      -1.16052088       0.60768633
H        2.86135206      -0.93913626       0.78006278
H        3.03176499       0.84070329       0.75184880
H        2.44567500      -0.03886197      -0.69366990
H       -1.26693384       0.47780984       1.65556136
H       -0.71300373       1.47726737      -0.90036671
H       -2.44208737       1.31440816      -0.77997445
H       -1.51201894       0.60760714      -2.10902989
H       -1.91031370      -0.83437161      -0.88234868
15
Frame=16 idx=006425 GeodesicLength=1.7794876615477369 rxn_smarts="[C:1]([O:2][C:3](=[O:4])[C@@:5]([C:6]([H:12])([H:13])[H:14])([O:7][H:15])[H:11])([H:8])([H:9])[H:10]>>[C:1]([O:2][C:3](=[O:4])[C:5](=[O:7])[H:11])([H:8])([H:9])[H:10].[C:6]([H:12])([H:13])([H:14])[H:15]"
C        2.42600868      -0.00013750       0.35682618
O        1.10815257       0.21118977       0.86841637
C        0.22852547      -0.75728094       0.62319236
O        0.46962442      -1.76192403       0.01074730
C       -1.19697596      -0.24871956       0.86132700
C       -1.49461394       0.77616174      -1.02187819
O       -2.08225856      -1.15433064       0.56690532
H        2.85780500      -0.90669956       0.78008086
H        3.00303145       0.87086030       0.65423345
H        2.39559908      -0.09137697      -0.72879717
H       -1.28865778       0.44349343       1.70374504
H       -0.71547063       1.52051516      -0.83139855
H       -2.42950390       1.29397224      -0.80096157
H       -1.41487220       0.66777039      -2.10448777
H       -1.86639368      -0.86349383      -0.93795062
