14
Frame=0 idx=002989 GeodesicLength=0.0 rxn_smarts="[C:1]([C@@:2]1([H:10])[O:3][C@:4]1([C:5]([O:6][H:14])([H:12])[H:13])[H:11])([H:7])([H:8])[H:9]>>[C:1]([C@@:2]([O:3][H:14])([C@:4]1([H:11])[C:5]([H:12])([H:13])[O:6]1)[H:10])([H:7])([H:8])[H:9]"
C        1.71871479       0.40318968       0.00347065
C        0.61341856      -0.41328155       0.65388369
O       -0.16315210       0.30158989       1.55317782
C       -0.51052763      -0.79100663      -0.23488782
C       -1.34759738       0.20937259      -0.89543162
O       -2.17951835       0.11525346       0.25293027
H        1.31513054       1.28787848      -0.49132430
H        2.29516117      -0.18440660      -0.71623068
H        2.39000563       0.74205169       0.79340346
H        1.05021407      -1.31895382       1.10245562
H       -0.91783176      -1.79663388      -0.23488609
H       -1.87815182      -0.11820266      -1.78664376
H       -0.89747240       1.19268427      -1.02659341
H       -1.48839329       0.37046512       1.02667617
14
Frame=1 idx=002989 GeodesicLength=0.07893127737621931 rxn_smarts="[C:1]([C@@:2]1([H:10])[O:3][C@:4]1([C:5]([O:6][H:14])([H:12])[H:13])[H:11])([H:7])([H:8])[H:9]>>[C:1]([C@@:2]([O:3][H:14])([C@:4]1([H:11])[C:5]([H:12])([H:13])[O:6]1)[H:10])([H:7])([H:8])[H:9]"
C        1.71267478       0.41031092       0.00564311
C        0.61948497      -0.42392130       0.65117804
O       -0.16414998       0.27016476       1.56253130
C       -0.52079611      -0.79211948      -0.21915212
C       -1.34076049       0.20483671      -0.90663501
O       -2.17594847       0.13577591       0.24044856
H        1.30253234       1.30598490      -0.46306811
H        2.27849854      -0.15939471      -0.73632468
H        2.39381476       0.73332403       0.79379714
H        1.06312875      -1.33163882       1.08710425
H       -0.93210938      -1.79623758      -0.20813442
H       -1.86873483      -0.13576994      -1.79446085
H       -0.88048746       1.18131806      -1.05168058
H       -1.48714740       0.39736655       1.03875337
14
Frame=2 idx=002989 GeodesicLength=0.1580137569076962 rxn_smarts="[C:1]([C@@:2]1([H:10])[O:3][C@:4]1([C:5]([O:6][H:14])([H:12])[H:13])[H:11])([H:7])([H:8])[H:9]>>[C:1]([C@@:2]([O:3][H:14])([C@:4]1([H:11])[C:5]([H:12])([H:13])[O:6]1)[H:10])([H:7])([H:8])[H:9]"
C        1.70644329       0.41754488       0.00826428
C        0.62529738      -0.43454275       0.64803769
O       -0.16532883       0.23841225       1.57128631
C       -0.53092720      -0.79285046      -0.20400000
C       -1.33397490       0.19993325      -0.91794634
O       -2.17123102       0.15688547       0.22823819
H        1.28979629       1.32330779      -0.43437674
H        2.26171590      -0.13372499      -0.75509584
H        2.39711205       0.72503810       0.79434448
H        1.07546678      -1.34440734       1.07090640
H       -0.94647300      -1.79523331      -0.18183440
H       -1.86048580      -0.15384290      -1.80146802
H       -0.86319929       1.16894811      -1.07762913
H       -1.48421166       0.42453189       1.05127311
14
Frame=3 idx=002989 GeodesicLength=0.23722692213235586 rxn_smarts="[C:1]([C@@:2]1([H:10])[O:3][C@:4]1([C:5]([O:6][H:14])([H:12])[H:13])[H:11])([H:7])([H:8])[H:9]>>[C:1]([C@@:2]([O:3][H:14])([C@:4]1([H:11])[C:5]([H:12])([H:13])[O:6]1)[H:10])([H:7])([H:8])[H:9]"
C        1.70003165       0.42485685       0.01130529
C        0.63083176      -0.44508188       0.64448772
O       -0.16669093       0.20650913       1.57938307
C       -0.54089400      -0.79318473      -0.18946256
C       -1.32725946       0.19471830      -0.92934349
O       -2.16537851       0.17852382       0.21626566
H        1.27692640       1.33973861      -0.40549967
H        2.24492670      -0.10757307      -0.77245280
H        2.39985333       0.71729792       0.79504381
H        1.08717327      -1.35716159       1.05397190
H       -0.96084602      -1.79362060      -0.15609418
H       -1.85340564      -0.17225960      -1.80767739
H       -0.84563485       1.15559160      -1.10431713
H       -1.47963370       0.45164525       1.06438976
14
Frame=4 idx=002989 GeodesicLength=0.3165474277070542 rxn_smarts="[C:1]([C@@:2]1([H:10])[O:3][C@:4]1([C:5]([O:6][H:14])([H:12])[H:13])[H:11])([H:7])([H:8])[H:9]>>[C:1]([C@@:2]([O:3][H:14])([C@:4]1([H:11])[C:5]([H:12])([H:13])[O:6]1)[H:10])([H:7])([H:8])[H:9]"
C        1.69345949       0.43220666       0.01472383
C        0.63607107      -0.45547263       0.64055938
O       -0.16823107       0.17464749       1.58677208
C       -0.55067464      -0.79310518      -0.17555663
C       -1.32062795       0.18925302      -0.94080340
O       -2.15842168       0.20062228       0.20448818
H        1.26393997       1.35519314      -0.37669308
H        2.22824075      -0.08113395      -0.78833102
H        2.40200769       0.71019254       0.79588729
H        1.09819964      -1.36980276       1.03642043
H       -0.97514736      -1.79140338      -0.13101417
H       -1.84746560      -0.19085864      -1.81311709
H       -0.82783147       1.14128289      -1.13160616
H       -1.47351884       0.47837850       1.07827037
14
Frame=5 idx=002989 GeodesicLength=0.3958678288288048 rxn_smarts="[C:1]([C@@:2]1([H:10])[O:3][C@:4]1([C:5]([O:6][H:14])([H:12])[H:13])[H:11])([H:7])([H:8])[H:9]>>[C:1]([C@@:2]([O:3][H:14])([C@:4]1([H:11])[C:5]([H:12])([H:13])[O:6]1)[H:10])([H:7])([H:8])[H:9]"
C        1.68674968       0.43955555       0.01847162
C        0.64100053      -0.46564820       0.63629064
O       -0.16994196       0.14302644       1.59341577
C       -0.56025293      -0.79259515      -0.16228964
C       -1.31408704       0.18360096      -0.95230970
O       -2.15038928       0.22313447       0.19285962
H        1.25086062       1.36961938      -0.34820199
H        2.21175831      -0.05459867      -0.80271272
H        2.40356830       0.70378466       0.79686382
H        1.10850966      -1.38222899       1.01839780
H       -0.98930503      -1.78859188      -0.10668163
H       -1.84263144      -0.20948710      -1.81782283
H       -0.80981115       1.12606363      -1.15936627
H       -1.46602826       0.50436490       1.09308552
14
Frame=6 idx=002989 GeodesicLength=0.47520194869890875 rxn_smarts="[C:1]([C@@:2]1([H:10])[O:3][C@:4]1([C:5]([O:6][H:14])([H:12])[H:13])[H:11])([H:7])([H:8])[H:9]>>[C:1]([C@@:2]([O:3][H:14])([C@:4]1([H:11])[C:5]([H:12])([H:13])[O:6]1)[H:10])([H:7])([H:8])[H:9]"
C        1.67992129       0.44687120       0.02249401
C        0.64562061      -0.47555711       0.63171988
O       -0.17179905       0.11179656       1.59931566
C       -0.56962414      -0.79164178      -0.14963620
C       -1.30762947       0.17781066      -0.96385249
O       -2.14132846       0.24599790       0.18131125
H        1.23770573       1.38300125      -0.32023033
H        2.19555330      -0.02813495      -0.81561999
H        2.40454057       0.69811078       0.79795632
H        1.11809457      -1.39436996       1.00000643
H       -1.00326146      -1.78520039      -0.08314329
H       -1.83882151      -0.22801781      -1.82184823
H       -0.79159999       1.10997583      -1.18746684
H       -1.45737198       0.52935783       1.10899383
14
Frame=7 idx=002989 GeodesicLength=0.5545277179256284 rxn_smarts="[C:1]([C@@:2]1([H:10])[O:3][C@:4]1([C:5]([O:6][H:14])([H:12])[H:13])[H:11])([H:7])([H:8])[H:9]>>[C:1]([C@@:2]([O:3][H:14])([C@:4]1([H:11])[C:5]([H:12])([H:13])[O:6]1)[H:10])([H:7])([H:8])[H:9]"
C        1.67299012       0.45412971       0.02673666
C        0.64993461      -0.48515925       0.62688273
O       -0.17377929       0.08108471       1.60448405
C       -0.57878883      -0.79023626      -0.13756616
C       -1.30124439       0.17192072      -0.97543074
O       -2.13126364       0.26918492       0.16977454
H        1.22448522       1.39535694      -0.29294025
H        2.17968367      -0.00188044      -0.82710685
H        2.40494318       0.69318110       0.79915095
H        1.12695980      -1.40616544       0.98134490
H       -1.01697914      -1.78124594      -0.06042375
H       -1.83595577      -0.24634364      -1.82524141
H       -0.77321154       1.09304386      -1.21580909
H       -1.44777400       0.55312901       1.12614443
14
Frame=8 idx=002989 GeodesicLength=0.6338366574340857 rxn_smarts="[C:1]([C@@:2]1([H:10])[O:3][C@:4]1([C:5]([O:6][H:14])([H:12])[H:13])[H:11])([H:7])([H:8])[H:9]>>[C:1]([C@@:2]([O:3][H:14])([C@:4]1([H:11])[C:5]([H:12])([H:13])[O:6]1)[H:10])([H:7])([H:8])[H:9]"
C        1.66597392       0.46131212       0.03115140
C        0.65395003      -0.49442559       0.62180856
O       -0.17586241       0.05099348       1.60894369
C       -0.58775033      -0.78836908      -0.12604527
C       -1.29491955       0.16595908      -0.98704459
O       -2.12022819       0.29266755       0.15819627
H        1.21121371       1.40672338      -0.26645761
H        2.16419344       0.02405217      -0.83723768
H        2.40479951       0.68899172       0.80043532
H        1.13511596      -1.41757390       0.96249493
H       -1.03042329      -1.77674704      -0.03854177
H       -1.83396940      -0.26439187      -1.82805357
H       -0.75465059       1.07529347      -1.24430546
H       -1.43744279       0.57551451       1.14465579
14
Frame=9 idx=002989 GeodesicLength=0.7129251793558445 rxn_smarts="[C:1]([C@@:2]1([H:10])[O:3][C@:4]1([C:5]([O:6][H:14])([H:12])[H:13])[H:11])([H:7])([H:8])[H:9]>>[C:1]([C@@:2]([O:3][H:14])([C@:4]1([H:11])[C:5]([H:12])([H:13])[O:6]1)[H:10])([H:7])([H:8])[H:9]"
C        1.65885319       0.46842781       0.03569471
C        0.65770589      -0.50338259       0.61651010
O       -0.17799120       0.02149755       1.61277894
C       -0.59655563      -0.78605274      -0.11497280
C       -1.28859768       0.15994765      -0.99870736
O       -2.10811545       0.31657124       0.14642366
H        1.19785932       1.41717889      -0.24084901
H        2.14903886       0.04966140      -0.84612505
H        2.40411109       0.68554934       0.80178122
H        1.14265499      -1.42859298       0.94346491
H       -1.04367770      -1.77170094      -0.01736264
H       -1.83273959      -0.28204310      -1.83024011
H       -0.73584883       1.05663943      -1.27296664
H       -1.42669726       0.59629904       1.16457007
14
Frame=10 idx=002989 GeodesicLength=0.7920127788360001 rxn_smarts="[C:1]([C@@:2]1([H:10])[O:3][C@:4]1([C:5]([O:6][H:14])([H:12])[H:13])[H:11])([H:7])([H:8])[H:9]>>[C:1]([C@@:2]([O:3][H:14])([C@:4]1([H:11])[C:5]([H:12])([H:13])[O:6]1)[H:10])([H:7])([H:8])[H:9]"
C        1.65165747       0.47546259       0.04034498
C        0.66118804      -0.51198291       0.61101812
O       -0.18017589      -0.00731102       1.61598672
C       -0.60517323      -0.78327460      -0.10437615
C       -1.28229974       0.15388315      -1.01042243
O       -2.09498608       0.34080577       0.13448867
H        1.18444410       1.42677160      -0.21617062
H        2.13430260       0.07483728      -0.85382570
H        2.40290500       0.68282317       0.80322825
H        1.14954135      -1.43919325       0.92432682
H       -1.05665525      -1.76614048       0.00300895
H       -1.83231318      -0.29931100      -1.83189249
H       -0.71685473       1.03710954      -1.30172127
H       -1.41558047       0.61552017       1.18600615
14
Frame=11 idx=002989 GeodesicLength=0.8711073884947877 rxn_smarts="[C:1]([C@@:2]1([H:10])[O:3][C@:4]1([C:5]([O:6][H:14])([H:12])[H:13])[H:11])([H:7])([H:8])[H:9]>>[C:1]([C@@:2]([O:3][H:14])([C@:4]1([H:11])[C:5]([H:12])([H:13])[O:6]1)[H:10])([H:7])([H:8])[H:9]"
C        1.64438045       0.48242656       0.04507981
C        0.66440913      -0.52023273       0.60534778
O       -0.18239927      -0.03544436       1.61860825
C       -0.61361227      -0.78004667      -0.09422488
C       -1.27600930       0.14775910      -1.02220338
O       -2.08077757       0.36542196       0.12233792
H        1.17094357       1.43557507      -0.19243951
H        2.11999845       0.09956502      -0.86042465
H        2.40118780       0.68080328       0.80479889
H        1.15581688      -1.44937476       0.90509669
H       -1.06937523      -1.76008288       0.02259959
H       -1.83268765      -0.31615401      -1.83301261
H       -0.69764614       1.01663908      -1.33058025
H       -1.40422885       0.63314533       1.20901635
14
Frame=12 idx=002989 GeodesicLength=0.9502677753505624 rxn_smarts="[C:1]([C@@:2]1([H:10])[O:3][C@:4]1([C:5]([O:6][H:14])([H:12])[H:13])[H:11])([H:7])([H:8])[H:9]>>[C:1]([C@@:2]([O:3][H:14])([C@:4]1([H:11])[C:5]([H:12])([H:13])[O:6]1)[H:10])([H:7])([H:8])[H:9]"
C        1.63701753       0.48932819       0.04988065
C        0.66738148      -0.52813513       0.59951531
O       -0.18464613      -0.06291392       1.62068850
C       -0.62188427      -0.77637058      -0.08448325
C       -1.26971047       0.14156957      -1.03405717
O       -2.06546615       0.39043704       0.10992792
H        1.15734460       1.44365866      -0.16966671
H        2.10612661       0.12383026      -0.86599945
H        2.39896753       0.67947316       0.80650150
H        1.16151351      -1.45914268       0.88578248
H       -1.08184855      -1.75354434       0.04142850
H       -1.83383992      -0.33254561      -1.83361850
H       -0.67821533       0.99518087      -1.35952770
H       -1.39274043       0.64917451       1.23362793
14
Frame=13 idx=002989 GeodesicLength=1.0295334009536932 rxn_smarts="[C:1]([C@@:2]1([H:10])[O:3][C@:4]1([C:5]([O:6][H:14])([H:12])[H:13])[H:11])([H:7])([H:8])[H:9]>>[C:1]([C@@:2]([O:3][H:14])([C@:4]1([H:11])[C:5]([H:12])([H:13])[O:6]1)[H:10])([H:7])([H:8])[H:9]"
C        1.62955472       0.49618408       0.05473597
C        0.67011998      -0.53570278       0.59353004
O       -0.18690828      -0.08975688       1.62226470
C       -0.63000010      -0.77225483      -0.07511950
C       -1.26339217       0.13529815      -1.04599342
O       -2.04897037       0.41590326       0.09720942
H        1.14361277       1.45109395      -0.14783608
H        2.09268239       0.14764742      -0.87062946
H        2.39624208       0.67882199       0.80835926
H        1.16667188      -1.46850477       0.86637819
H       -1.09410130      -1.74653795       0.05952677
H       -1.83577949      -0.34844891      -1.83370336
H       -0.65853456       0.97264308      -1.38858253
H       -1.38119752       0.66361421       1.25985999
14
Frame=14 idx=002989 GeodesicLength=1.1089607352618644 rxn_smarts="[C:1]([C@@:2]1([H:10])[O:3][C@:4]1([C:5]([O:6][H:14])([H:12])[H:13])[H:11])([H:7])([H:8])[H:9]>>[C:1]([C@@:2]([O:3][H:14])([C@:4]1([H:11])[C:5]([H:12])([H:13])[O:6]1)[H:10])([H:7])([H:8])[H:9]"
C        1.62198306       0.50300463       0.05963444
C        0.67263561      -0.54294415       0.58740009
O       -0.18918580      -0.11599380       1.62336848
C       -0.63796696      -0.76770488      -0.06610988
C       -1.25704569       0.12893554      -1.05801036
O       -2.03124789       0.44182168       0.08414547
H        1.12972960       1.45794245      -0.12694447
H        2.07965924       0.17102364      -0.87437787
H        2.39301180       0.67883351       0.81038705
H        1.17131908      -1.47747105       0.84688718
H       -1.10614137      -1.73907927       0.07690773
H       -1.83850157      -0.36383109      -1.83326821
H       -0.63860307       0.94896423      -1.41772636
H       -1.36964605       0.67649855       1.28770670
14
Frame=15 idx=002989 GeodesicLength=1.188593352123343 rxn_smarts="[C:1]([C@@:2]1([H:10])[O:3][C@:4]1([C:5]([O:6][H:14])([H:12])[H:13])[H:11])([H:7])([H:8])[H:9]>>[C:1]([C@@:2]([O:3][H:14])([C@:4]1([H:11])[C:5]([H:12])([H:13])[O:6]1)[H:10])([H:7])([H:8])[H:9]"
C        1.61428728       0.50980471       0.06456883
C        0.67493997      -0.54987011       0.58113479
O       -0.19148206      -0.14165976       1.62402520
C       -0.64579375      -0.76272823      -0.05742928
C       -1.25066394       0.12246637      -1.07011004
O       -2.01221807       0.46821067       0.07069059
H        1.11566425       1.46426432      -0.10697060
H        2.06703862       0.19398413      -0.87730903
H        2.38927231       0.67949596       0.81260134
H        1.17548658      -1.48604617       0.82730850
H       -1.11798734      -1.73118307       0.09358988
H       -1.84201934      -0.37864303      -1.83230251
H       -0.61840684       0.92404913      -1.44695332
H       -1.35811766       0.68785509       1.31715566
14
Frame=16 idx=002989 GeodesicLength=1.2684952228400594 rxn_smarts="[C:1]([C@@:2]1([H:10])[O:3][C@:4]1([C:5]([O:6][H:14])([H:12])[H:13])[H:11])([H:7])([H:8])[H:9]>>[C:1]([C@@:2]([O:3][H:14])([C@:4]1([H:11])[C:5]([H:12])([H:13])[O:6]1)[H:10])([H:7])([H:8])[H:9]"
C        1.60645577       0.51659243       0.06952696
C        0.67704140      -0.55648959       0.57474194
O       -0.19380903      -0.16676843       1.62425762
C       -0.65348776      -0.75733000      -0.04905506
C       -1.24424312       0.11587945      -1.08228624
O       -1.99184917       0.49503416       0.05680629
H        1.10140139       1.47011274      -0.08790024
H        2.05479792       0.21654233      -0.87948747
H        2.38502573       0.68078960       0.81500975
H        1.17919531      -1.49423378       0.80765503
H       -1.12964382      -1.72286782       0.10958109
H       -1.84631481      -0.39283737      -1.83081730
H       -0.59795666       0.89784153      -1.47621520
H       -1.34661316       0.69773474       1.34818282
