12
Frame=0 idx=005639 GeodesicLength=0.0 rxn_smarts="[C:1]1([H:7])([H:8])[C@@:2]2([H:9])[C@@:3]3([H:10])[O:4][C@:5]1([H:11])[C@@:6]23[H:12]>>[C:1]1([H:7])([H:8])[C:2]([H:9])([H:12])[C@@:3]2([H:10])[O:4][C@:5]1([H:11])[C:6]2"
C        1.04134827      -0.39961717      -0.20225166
C        0.32436782       0.93379969      -0.03748278
C       -1.15570948       0.51336716      -0.24910349
O       -1.15625160      -0.77116915      -0.85348948
C       -0.24390488      -1.11183531       0.22046264
C       -0.86634472       0.02586298       1.12949055
H        1.85704800      -0.52413848       0.50894390
H        1.36987980      -0.65907531      -1.20908879
H        0.65384487       1.91545798      -0.36277796
H       -1.89296977       1.23425736      -0.58411431
H       -0.24789365      -2.16300217       0.49586717
H        0.31658539       1.00609238       1.14354417
12
Frame=1 idx=005639 GeodesicLength=0.06364601348940169 rxn_smarts="[C:1]1([H:7])([H:8])[C@@:2]2([H:9])[C@@:3]3([H:10])[O:4][C@:5]1([H:11])[C@@:6]23[H:12]>>[C:1]1([H:7])([H:8])[C:2]([H:9])([H:12])[C@@:3]2([H:10])[O:4][C@:5]1([H:11])[C:6]2"
C        1.04194463      -0.39962159      -0.20476726
C        0.32578643       0.93393815      -0.03449089
C       -1.15207849       0.51882580      -0.25345498
O       -1.16358695      -0.77292356      -0.84358393
C       -0.24026053      -1.11476096       0.22055741
C       -0.86907180       0.02009741       1.12143902
H        1.85791404      -0.52627255       0.50587760
H        1.37090206      -0.65726129      -1.21194117
H        0.65777560       1.91031989      -0.37240454
H       -1.89178578       1.23858120      -0.58464786
H       -0.24345944      -2.16598627       0.49533150
H        0.30592023       1.01506377       1.16208511
12
Frame=2 idx=005639 GeodesicLength=0.12729184576533434 rxn_smarts="[C:1]1([H:7])([H:8])[C@@:2]2([H:9])[C@@:3]3([H:10])[O:4][C@:5]1([H:11])[C@@:6]23[H:12]>>[C:1]1([H:7])([H:8])[C:2]([H:9])([H:12])[C@@:3]2([H:10])[O:4][C@:5]1([H:11])[C:6]2"
C        1.04257074      -0.39968355      -0.20735376
C        0.32727021       0.93405494      -0.03161605
C       -1.14839683       0.52420472      -0.25775108
O       -1.17081597      -0.77453371      -0.83363594
C       -0.23661530      -1.11767803       0.22060766
C       -0.87154485       0.01445405       1.11340283
H        1.85881256      -0.52841584       0.50274037
H        1.37197503      -0.65553969      -1.21484384
H        0.66174941       1.90502713      -0.38201991
H       -1.89055201       1.24284784      -0.58503228
H       -0.23910927      -2.16895801       0.49474968
H        0.29465628       1.02422015       1.18075232
12
Frame=3 idx=005639 GeodesicLength=0.19093672129441563 rxn_smarts="[C:1]1([H:7])([H:8])[C@@:2]2([H:9])[C@@:3]3([H:10])[O:4][C@:5]1([H:11])[C@@:6]23[H:12]>>[C:1]1([H:7])([H:8])[C:2]([H:9])([H:12])[C@@:3]2([H:10])[O:4][C@:5]1([H:11])[C:6]2"
C        1.04322783      -0.39980613      -0.21001427
C        0.32882321       0.93414883      -0.02886203
C       -1.14466430       0.52950350      -0.26198557
O       -1.17793102      -0.77599879      -0.82365227
C       -0.23297026      -1.12058501       0.22061439
C       -0.87375520       0.00893473       1.10539247
H        1.85974625      -0.53057457       0.49952716
H        1.37309813      -0.65391434      -1.21780034
H        0.66576613       1.89958360      -0.39162382
H       -1.88926570       1.24705706      -0.58526311
H       -0.23484586      -2.17191599       0.49412247
H        0.28277079       1.03356710       1.19954493
12
Frame=4 idx=005639 GeodesicLength=0.2545757345882741 rxn_smarts="[C:1]1([H:7])([H:8])[C@@:2]2([H:9])[C@@:3]3([H:10])[O:4][C@:5]1([H:11])[C@@:6]23[H:12]>>[C:1]1([H:7])([H:8])[C:2]([H:9])([H:12])[C@@:3]2([H:10])[O:4][C@:5]1([H:11])[C:6]2"
C        1.04391787      -0.39999362      -0.21275278
C        0.33045072       0.93421770      -0.02623647
C       -1.14088079       0.53472247      -0.26615231
O       -1.18492335      -0.77731843      -0.81364054
C       -0.22932606      -1.12348062       0.22057839
C       -0.87569264       0.00354236       1.09741859
H        1.86071785      -0.53275493       0.49623284
H        1.37427118      -0.65239266      -1.22081450
H        0.66982267       1.89399934      -0.40120803
H       -1.88792573       1.25120748      -0.58533615
H       -0.23067446      -2.17485865       0.49345277
H        0.27024275       1.04310956       1.21845819
12
Frame=5 idx=005639 GeodesicLength=0.31821020686355234 rxn_smarts="[C:1]1([H:7])([H:8])[C@@:2]2([H:9])[C@@:3]3([H:10])[O:4][C@:5]1([H:11])[C@@:6]23[H:12]>>[C:1]1([H:7])([H:8])[C:2]([H:9])([H:12])[C@@:3]2([H:10])[O:4][C@:5]1([H:11])[C:6]2"
C        1.04464254      -0.40024927      -0.21557319
C        0.33215733       0.93426062      -0.02374300
C       -1.13704576       0.53986269      -0.27024562
O       -1.19178678      -0.77849253      -0.80360589
C       -0.22568277      -1.12636377       0.22050144
C       -0.87734980      -0.00172111       1.08949152
H        1.86173118      -0.53496374       0.49285107
H        1.37549308      -0.65097859      -1.22389158
H        0.67392008       1.88827944      -0.41077250
H       -1.88652916       1.25530056      -0.58524812
H       -0.22659608      -2.17778519       0.49274297
H        0.25704614       1.05285088       1.23749289
12
Frame=6 idx=005639 GeodesicLength=0.38183940119940085 rxn_smarts="[C:1]1([H:7])([H:8])[C@@:2]2([H:9])[C@@:3]3([H:10])[O:4][C@:5]1([H:11])[C@@:6]23[H:12]>>[C:1]1([H:7])([H:8])[C:2]([H:9])([H:12])[C@@:3]2([H:10])[O:4][C@:5]1([H:11])[C:6]2"
C        1.04540348      -0.40057637      -0.21847957
C        0.33394864       0.93427618      -0.02138518
C       -1.13315791       0.54492563      -0.27425981
O       -1.19851561      -0.77952145      -0.79355219
C       -0.22204004      -1.12923340       0.22038521
C       -0.87871901      -0.00685395       1.08162103
H        1.86278995      -0.53720763       0.48937484
H        1.37676172      -0.64967627      -1.22703668
H        0.67805975       1.88242923      -0.42031675
H       -1.88507198       1.25933803      -0.58499531
H       -0.22261141      -2.18069458       0.49199528
H        0.24315242       1.06279458       1.25664912
12
Frame=7 idx=005639 GeodesicLength=0.44546310385292015 rxn_smarts="[C:1]1([H:7])([H:8])[C@@:2]2([H:9])[C@@:3]3([H:10])[O:4][C@:5]1([H:11])[C@@:6]23[H:12]>>[C:1]1([H:7])([H:8])[C:2]([H:9])([H:12])[C@@:3]2([H:10])[O:4][C@:5]1([H:11])[C:6]2"
C        1.04620245      -0.40097814      -0.22147636
C        0.33583062       0.93426311      -0.01916639
C       -1.12921557       0.54991341      -0.27818941
O       -1.20510489      -0.78040575      -0.78348213
C       -0.21839700      -1.13208851       0.22023177
C       -0.87979303      -0.01185430       1.07381667
H        1.86389844      -0.53949330       0.48579637
H        1.37807451      -0.64848976      -1.23025571
H        0.68224377       1.87645409      -0.42984067
H       -1.88354981       1.26332230      -0.58457452
H       -0.21872032      -2.18358582       0.49121262
H        0.22853084       1.07294267       1.27592775
12
Frame=8 idx=005639 GeodesicLength=0.5090810664634907 rxn_smarts="[C:1]1([H:7])([H:8])[C@@:2]2([H:9])[C@@:3]3([H:10])[O:4][C@:5]1([H:11])[C@@:6]23[H:12]>>[C:1]1([H:7])([H:8])[C:2]([H:9])([H:12])[C@@:3]2([H:10])[O:4][C@:5]1([H:11])[C:6]2"
C        1.04704133      -0.40145777      -0.22456839
C        0.33780980       0.93422026      -0.01708982
C       -1.12521651       0.55482867      -0.28202916
O       -1.21155036      -0.78114605      -0.77339702
C       -0.21475231      -1.13492810       0.22004347
C       -0.88056486      -0.01672015       1.06608765
H        1.86506131      -0.54182739       0.48210704
H        1.37942822      -0.64742320      -1.23355516
H        0.68647496       1.87035942      -0.43934450
H       -1.88195770       1.26725638      -0.58398284
H       -0.21492201      -2.18645781       0.49039847
H        0.21314813       1.08329573       1.29533026
12
Frame=9 idx=005639 GeodesicLength=0.5726932718739317 rxn_smarts="[C:1]1([H:7])([H:8])[C@@:2]2([H:9])[C@@:3]3([H:10])[O:4][C@:5]1([H:11])[C@@:6]23[H:12]>>[C:1]1([H:7])([H:8])[C:2]([H:9])([H:12])[C@@:3]2([H:10])[O:4][C@:5]1([H:11])[C:6]2"
C        1.04792206      -0.40201841      -0.22776088
C        0.33989318       0.93414654      -0.01515864
C       -1.12115794       0.55967462      -0.28577403
O       -1.21784841      -0.78174304      -0.76329688
C       -0.21110417      -1.13775110       0.21982297
C       -0.88102757      -0.02144928       1.05844277
H        1.86628365      -0.54421645       0.47829748
H        1.38081906      -0.64648080      -1.23694209
H        0.69075684       1.86415068      -0.44882887
H       -1.88029021       1.27114381      -0.58321752
H       -0.21121507      -2.18930931       0.48955696
H        0.19696857       1.09385273       1.31485873
12
Frame=10 idx=005639 GeodesicLength=0.6362996630979427 rxn_smarts="[C:1]1([H:7])([H:8])[C@@:2]2([H:9])[C@@:3]3([H:10])[O:4][C@:5]1([H:11])[C@@:6]23[H:12]>>[C:1]1([H:7])([H:8])[C:2]([H:9])([H:12])[C@@:3]2([H:10])[O:4][C@:5]1([H:11])[C:6]2"
C        1.04884671      -0.40266315      -0.23105941
C        0.34208835       0.93404096      -0.01337597
C       -1.11703649       0.56445501      -0.28941907
O       -1.22399601      -0.78219726      -0.75318029
C       -0.20745026      -1.14055637       0.21957321
C       -0.88117424      -0.02603920       1.05089058
H        1.86757091      -0.54666698       0.47435758
H        1.38224268      -0.64566684      -1.24042414
H        0.69509360       1.85783317      -0.45829525
H       -1.87854133       1.27498875      -0.58227586
H       -0.20759746      -2.19213889       0.48869272
H        0.17995354       1.10461081       1.33451588
12
Frame=11 idx=005639 GeodesicLength=0.6999005320833573 rxn_smarts="[C:1]1([H:7])([H:8])[C@@:2]2([H:9])[C@@:3]3([H:10])[O:4][C@:5]1([H:11])[C@@:6]23[H:12]>>[C:1]1([H:7])([H:8])[C:2]([H:9])([H:12])[C@@:3]2([H:10])[O:4][C@:5]1([H:11])[C:6]2"
C        1.04981747      -0.40339504      -0.23446988
C        0.34440353       0.93390275      -0.01174500
C       -1.11284818       0.56917418      -0.29295941
O       -1.22999067      -0.78250916      -0.74304449
C       -0.20378787      -1.14334277       0.21929745
C       -0.88099773      -0.03048714       1.04343941
H        1.86892898      -0.54918537       0.47027657
H        1.38369423      -0.64498579      -1.24400953
H        0.69949013       1.85141221      -0.46774614
H       -1.87670450       1.27879603      -0.58115512
H       -0.20406673      -2.19494518       0.48781093
H        0.16206135       1.11556528       1.35430521
12
Frame=12 idx=005639 GeodesicLength=0.7634944225558323 rxn_smarts="[C:1]1([H:7])([H:8])[C@@:2]2([H:9])[C@@:3]3([H:10])[O:4][C@:5]1([H:11])[C@@:6]23[H:12]>>[C:1]1([H:7])([H:8])[C:2]([H:9])([H:12])[C@@:3]2([H:10])[O:4][C@:5]1([H:11])[C:6]2"
C        1.05083667      -0.40421697      -0.23799851
C        0.34684765       0.93373124      -0.01026896
C       -1.10858839       0.57383688      -0.29639004
O       -1.23583009      -0.78267818      -0.73288464
C       -0.20011365      -1.14610839       0.21899920
C       -0.88049074      -0.03478989       1.03609736
H        1.87036413      -0.55177804       0.46604271
H        1.38516840      -0.64444226      -1.24770661
H        0.70395167       1.84489184      -0.47718532
H       -1.87477241       1.28257092      -0.57985235
H       -0.20061977      -2.19772554       0.48691695
H        0.14324651       1.12670839       1.37423021
12
Frame=13 idx=005639 GeodesicLength=0.8270833554181642 rxn_smarts="[C:1]1([H:7])([H:8])[C@@:2]2([H:9])[C@@:3]3([H:10])[O:4][C@:5]1([H:11])[C@@:6]23[H:12]>>[C:1]1([H:7])([H:8])[C:2]([H:9])([H:12])[C@@:3]2([H:10])[O:4][C@:5]1([H:11])[C:6]2"
C        1.05190708      -0.40513244      -0.24165219
C        0.34943090       0.93352641      -0.00895173
C       -1.10425244       0.57844923      -0.29970642
O       -1.24151375      -0.78270449      -0.72269549
C       -0.19642436      -1.14885283       0.21868233
C       -0.87964534      -0.03894445       1.02887257
H        1.87188425      -0.55445079       0.46164393
H        1.38665947      -0.64404177      -1.25152514
H        0.70848611       1.83827903      -0.48661645
H       -1.87273928       1.28631962      -0.57836501
H       -0.19725348      -2.20047991       0.48601779
H        0.12346083       1.13803238       1.39429581
12
Frame=14 idx=005639 GeodesicLength=0.890666328391288 rxn_smarts="[C:1]1([H:7])([H:8])[C@@:2]2([H:9])[C@@:3]3([H:10])[O:4][C@:5]1([H:11])[C@@:6]23[H:12]>>[C:1]1([H:7])([H:8])[C:2]([H:9])([H:12])[C@@:3]2([H:10])[O:4][C@:5]1([H:11])[C:6]2"
C        1.05302994      -0.40614435      -0.24543873
C        0.35216230       0.93328656      -0.00779729
C       -1.09983260       0.58301681      -0.30290302
O       -1.24703834      -0.78258574      -0.71246914
C       -0.19271582      -1.15157236       0.21835072
C       -0.87845331      -0.04294435       1.02177201
H        1.87349379      -0.55720766       0.45706543
H        1.38816055      -0.64379038      -1.25547502
H        0.71310105       1.83157461      -0.49604445
H       -1.87059492       1.29004648      -0.57668883
H       -0.19396289      -2.20320214       0.48512065
H        0.10265026       1.14952251       1.41450765
12
Frame=15 idx=005639 GeodesicLength=0.9542476561897515 rxn_smarts="[C:1]1([H:7])([H:8])[C@@:2]2([H:9])[C@@:3]3([H:10])[O:4][C@:5]1([H:11])[C@@:6]23[H:12]>>[C:1]1([H:7])([H:8])[C:2]([H:9])([H:12])[C@@:3]2([H:10])[O:4][C@:5]1([H:11])[C:6]2"
C        1.05420847      -0.40725504      -0.24936507
C        0.35505492       0.93301216      -0.00680586
C       -1.09532177       0.58754594      -0.30597399
O       -1.25240384      -0.78232140      -0.70219437
C       -0.18898222      -1.15426537       0.21800965
C       -0.87690463      -0.04678774       1.01480534
H        1.87520285      -0.56005942       0.45229187
H        1.38966223      -0.64369069      -1.25956760
H        0.71780335       1.82477916      -0.50548305
H       -1.86832534       1.29376323      -0.57482075
H       -0.19074222      -2.20589113       0.48423047
H        0.08074820       1.16117031       1.43487335
12
Frame=16 idx=005639 GeodesicLength=1.0178284579518064 rxn_smarts="[C:1]1([H:7])([H:8])[C@@:2]2([H:9])[C@@:3]3([H:10])[O:4][C@:5]1([H:11])[C@@:6]23[H:12]>>[C:1]1([H:7])([H:8])[C:2]([H:9])([H:12])[C@@:3]2([H:10])[O:4][C@:5]1([H:11])[C:6]2"
C        1.05544660      -0.40846768      -0.25343947
C        0.35812091       0.93270425      -0.00598244
C       -1.09071316       0.59204472      -0.30891375
O       -1.25761022      -0.78190895      -0.69185981
C       -0.18521863      -1.15692991       0.21766460
C       -0.87499061      -0.05046846       1.00798053
H        1.87702145      -0.56301251       0.44730735
H        1.39115853      -0.64374907      -1.26381415
H        0.72260250       1.81789675      -0.51494262
H       -1.86592199       1.29747964      -0.57275687
H       -0.18758668      -2.20854493       0.48335670
H        0.05769128       1.17295615       1.45539993
