14
Frame=0 idx=010569 GeodesicLength=0.0 rxn_smarts="[C:1]([C@@:2]1([C:5](=[O:6])[N:7]([H:13])[H:14])[C:3]([H:11])([H:12])[O:4]1)([H:8])([H:9])[H:10]>>[C:1]([C@@:2]1([O+:6]=[C-:5][N:7]([H:13])[H:14])[C:3]([H:11])([H:12])[O:4]1)([H:8])([H:9])[H:10]"
C        1.19762506      -1.32783335       0.08341599
C        0.47742687      -0.03675704      -0.12509565
C        1.11065823       1.24647933      -0.43896771
O        0.34874414       0.49317433      -1.39586060
C       -1.25036718      -0.28959402       0.40038147
O       -0.51647493       0.30697120       1.28365528
N       -2.46590815       0.22480398       0.22061376
H        2.22552020      -1.22278144      -0.26992416
H        1.21063698      -1.57716520       1.14163685
H        0.70378423      -2.12290097      -0.46981071
H        0.64594509       2.16667860      -0.10447616
H        2.17695466       1.29472464      -0.64163560
H       -2.76684048       1.03045402       0.75622897
H       -3.09770474      -0.18625410      -0.44016167
14
Frame=1 idx=010569 GeodesicLength=0.020840651281940254 rxn_smarts="[C:1]([C@@:2]1([C:5](=[O:6])[N:7]([H:13])[H:14])[C:3]([H:11])([H:12])[O:4]1)([H:8])([H:9])[H:10]>>[C:1]([C@@:2]1([O+:6]=[C-:5][N:7]([H:13])[H:14])[C:3]([H:11])([H:12])[O:4]1)([H:8])([H:9])[H:10]"
C        1.19865025      -1.32583383       0.08437436
C        0.47434716      -0.03598927      -0.12152823
C        1.10789070       1.24567031      -0.44008759
O        0.34751193       0.49095218      -1.39576410
C       -1.25275207      -0.29500350       0.40623603
O       -0.52032019       0.29675378       1.29156978
N       -2.46160539       0.23104933       0.21499640
H        2.22126587      -1.22451285      -0.28447172
H        1.22715967      -1.56971801       1.14370935
H        0.69636980      -2.12502771      -0.45545299
H        0.64293276       2.16742667      -0.10981195
H        2.17457841       1.29296693      -0.64085128
H       -2.77162925       1.02101535       0.76802510
H       -3.08439966      -0.16974938      -0.46094316
14
Frame=2 idx=010569 GeodesicLength=0.04134080055606289 rxn_smarts="[C:1]([C@@:2]1([C:5](=[O:6])[N:7]([H:13])[H:14])[C:3]([H:11])([H:12])[O:4]1)([H:8])([H:9])[H:10]>>[C:1]([C@@:2]1([O+:6]=[C-:5][N:7]([H:13])[H:14])[C:3]([H:11])([H:12])[O:4]1)([H:8])([H:9])[H:10]"
C        1.19957005      -1.32382542       0.08499876
C        0.47129038      -0.03510101      -0.11800425
C        1.10531658       1.24502104      -0.44070411
O        0.34664073       0.48925013      -1.39557690
C       -1.25523667      -0.30039371       0.41154381
O       -0.52437923       0.28605830       1.29934014
N       -2.45727786       0.23724789       0.20937400
H        2.21680001      -1.22622446      -0.29890005
H        1.24327169      -1.56259364       1.14513095
H        0.68920808      -2.12686266      -0.44169952
H        0.64012031       2.16826682      -0.11450661
H        2.17244269       1.29135550      -0.63929275
H       -2.77497737       1.01403036       0.77601612
H       -3.07278939      -0.15622913      -0.47771959
14
Frame=3 idx=010569 GeodesicLength=0.06208606013179655 rxn_smarts="[C:1]([C@@:2]1([C:5](=[O:6])[N:7]([H:13])[H:14])[C:3]([H:11])([H:12])[O:4]1)([H:8])([H:9])[H:10]>>[C:1]([C@@:2]1([O+:6]=[C-:5][N:7]([H:13])[H:14])[C:3]([H:11])([H:12])[O:4]1)([H:8])([H:9])[H:10]"
C        1.20047792      -1.32179926       0.08573620
C        0.46811548      -0.03427526      -0.11445487
C        1.10251852       1.24428302      -0.44156295
O        0.34551120       0.48725937      -1.39544338
C       -1.25776471      -0.30591592       0.41704637
O       -0.52838262       0.27523254       1.30719750
N       -2.45297048       0.24309383       0.20457694
H        2.21207951      -1.22795859      -0.31317175
H        1.25946233      -1.55525817       1.14646227
H        0.68230457      -2.12872686      -0.42754162
H        0.63706511       2.16904396      -0.11960179
H        2.17006247       1.28969053      -0.63805907
H       -2.77896429       1.00588626       0.78480606
H       -3.05951502      -0.14055544      -0.49598990
14
Frame=4 idx=010569 GeodesicLength=0.08332848638752817 rxn_smarts="[C:1]([C@@:2]1([C:5](=[O:6])[N:7]([H:13])[H:14])[C:3]([H:11])([H:12])[O:4]1)([H:8])([H:9])[H:10]>>[C:1]([C@@:2]1([O+:6]=[C-:5][N:7]([H:13])[H:14])[C:3]([H:11])([H:12])[O:4]1)([H:8])([H:9])[H:10]"
C        1.20139108      -1.31975395       0.08670849
C        0.46480536      -0.03354857      -0.11087752
C        1.09942486       1.24339261      -0.44286612
O        0.34401475       0.48477169      -1.39541808
C       -1.26031346      -0.31156404       0.42287968
O       -0.53225721       0.26439540       1.31516762
N       -2.44863592       0.24867662       0.20075181
H        2.20707493      -1.22976838      -0.32727460
H        1.27585226      -1.54754362       1.14784437
H        0.67564829      -2.13070014      -0.41268508
H        0.63368997       2.16972221      -0.12539553
H        2.16735187       1.28790840      -0.63741488
H       -2.78431885       0.99532028       0.79557131
H       -3.04372793      -0.12130851      -0.51699146
14
Frame=5 idx=010569 GeodesicLength=0.10501977145175351 rxn_smarts="[C:1]([C@@:2]1([C:5](=[O:6])[N:7]([H:13])[H:14])[C:3]([H:11])([H:12])[O:4]1)([H:8])([H:9])[H:10]>>[C:1]([C@@:2]1([O+:6]=[C-:5][N:7]([H:13])[H:14])[C:3]([H:11])([H:12])[O:4]1)([H:8])([H:9])[H:10]"
C        1.20230367      -1.31769257       0.08782400
C        0.46135955      -0.03291549      -0.10728833
C        1.09604757       1.24238123      -0.44446248
O        0.34224361       0.48190627      -1.39547834
C       -1.26292680      -0.31737727       0.42888300
O       -0.53610567       0.25339806       1.32320713
N       -2.44431893       0.25397601       0.19762729
H        2.20180695      -1.23162807      -0.34122259
H        1.29236286      -1.53954549       1.14916007
H        0.66927396      -2.13272780      -0.39732405
H        0.62996750       2.17029014      -0.13168536
H        2.16434036       1.28606970      -0.63713051
H       -2.79060495       0.98317685       0.80731785
H       -3.02574969      -0.09931158      -0.53942769
14
Frame=6 idx=010569 GeodesicLength=0.12666693326153347 rxn_smarts="[C:1]([C@@:2]1([C:5](=[O:6])[N:7]([H:13])[H:14])[C:3]([H:11])([H:12])[O:4]1)([H:8])([H:9])[H:10]>>[C:1]([C@@:2]1([O+:6]=[C-:5][N:7]([H:13])[H:14])[C:3]([H:11])([H:12])[O:4]1)([H:8])([H:9])[H:10]"
C        1.20312473      -1.31560846       0.08882767
C        0.45789541      -0.03221203      -0.10373940
C        1.09275359       1.24142268      -0.44592321
O        0.34063546       0.47921089      -1.39555103
C       -1.26560978      -0.32316108       0.43458929
O       -0.54006177       0.24216191       1.33112443
N       -2.44001035       0.25921074       0.19470003
H        2.19628823      -1.23353941      -0.35501919
H        1.30863195      -1.53157407       1.15010659
H        0.66310925      -2.13460066      -0.38207359
H        0.62635079       2.17090731      -0.13787505
H        2.16143384       1.28425425      -0.63656548
H       -2.79663377       0.97155038       0.81769711
H       -3.00790758      -0.07802245      -0.56029816
14
Frame=7 idx=010569 GeodesicLength=0.14833708782771662 rxn_smarts="[C:1]([C@@:2]1([C:5](=[O:6])[N:7]([H:13])[H:14])[C:3]([H:11])([H:12])[O:4]1)([H:8])([H:9])[H:10]>>[C:1]([C@@:2]1([O+:6]=[C-:5][N:7]([H:13])[H:14])[C:3]([H:11])([H:12])[O:4]1)([H:8])([H:9])[H:10]"
C        1.20393037      -1.31351958       0.08970822
C        0.45433417      -0.03153659      -0.10016769
C        1.08930204       1.24049069      -0.44720305
O        0.33896951       0.47659585      -1.39555784
C       -1.26838135      -0.32919376       0.44017033
O       -0.54413438       0.23044430       1.33905476
N       -2.43578750       0.26400311       0.19214420
H        2.19055975      -1.23540723      -0.36875294
H        1.32484527      -1.52364416       1.15066902
H        0.65727221      -2.13638754      -0.36691680
H        0.62251356       2.17149018      -0.14387651
H        2.15837763       1.28255184      -0.63573433
H       -2.80186495       0.96118487       0.82621715
H       -2.98993632      -0.05707198      -0.57975452
14
Frame=8 idx=010569 GeodesicLength=0.17025485294502601 rxn_smarts="[C:1]([C@@:2]1([C:5](=[O:6])[N:7]([H:13])[H:14])[C:3]([H:11])([H:12])[O:4]1)([H:8])([H:9])[H:10]>>[C:1]([C@@:2]1([O+:6]=[C-:5][N:7]([H:13])[H:14])[C:3]([H:11])([H:12])[O:4]1)([H:8])([H:9])[H:10]"
C        1.20469942      -1.31141089       0.09062571
C        0.45069768      -0.03087878      -0.09661348
C        1.08575202       1.23952068      -0.44858553
O        0.33724815       0.47385370      -1.39562873
C       -1.27121827      -0.33530761       0.44568434
O       -0.54824460       0.21852324       1.34694673
N       -2.43158647       0.26863137       0.19001413
H        2.18458137      -1.23733690      -0.38233694
H        1.34102540      -1.51554506       1.15104520
H        0.65168592      -2.13814423      -0.35151697
H        0.61855809       2.17204444      -0.15012080
H        2.15522663       1.28083013      -0.63496415
H       -2.80748920       0.95020673       0.83475577
H       -2.97093614      -0.03498682      -0.59930527
14
Frame=9 idx=010569 GeodesicLength=0.1927107162493671 rxn_smarts="[C:1]([C@@:2]1([C:5](=[O:6])[N:7]([H:13])[H:14])[C:3]([H:11])([H:12])[O:4]1)([H:8])([H:9])[H:10]>>[C:1]([C@@:2]1([O+:6]=[C-:5][N:7]([H:13])[H:14])[C:3]([H:11])([H:12])[O:4]1)([H:8])([H:9])[H:10]"
C        1.20545702      -1.30927995       0.09167379
C        0.44694207      -0.03029244      -0.09307143
C        1.08197370       1.23843798      -0.45023204
O        0.33533206       0.47078110      -1.39579407
C       -1.27411744      -0.34156246       0.45124868
O       -0.55237138       0.20644810       1.35482127
N       -2.42742383       0.27302616       0.18843571
H        2.17833411      -1.23935698      -0.39575881
H        1.35728443      -1.50713497       1.15132966
H        0.64638469      -2.13993186      -0.33563804
H        0.61432362       2.17250011      -0.15684487
H        2.15183530       1.27903791      -0.63447904
H       -2.81408770       0.93761017       0.84395673
H       -2.94986665      -0.01028287      -0.61964754
14
Frame=10 idx=010569 GeodesicLength=0.21578260518492715 rxn_smarts="[C:1]([C@@:2]1([C:5](=[O:6])[N:7]([H:13])[H:14])[C:3]([H:11])([H:12])[O:4]1)([H:8])([H:9])[H:10]>>[C:1]([C@@:2]1([O+:6]=[C-:5][N:7]([H:13])[H:14])[C:3]([H:11])([H:12])[O:4]1)([H:8])([H:9])[H:10]"
C        1.20620883      -1.30713200       0.09284601
C        0.44305858      -0.02979164      -0.08954520
C        1.07794629       1.23724879      -0.45212557
O        0.33322252       0.46737828      -1.39606123
C       -1.27709925      -0.34800284       0.45683150
O       -0.55654289       0.19415479       1.36267786
N       -2.42330705       0.27717324       0.18733687
H        2.17181591      -1.24146960      -0.40903780
H        1.37364543      -1.49840195       1.15151437
H        0.64137846      -2.14176314      -0.31926860
H        0.60976933       2.17284897      -0.16403020
H        2.14818804       1.27720783      -0.63424693
H       -2.82158744       0.92348381       0.85360400
H       -2.92669675       0.01706544      -0.64049508
14
Frame=11 idx=010569 GeodesicLength=0.2394317385921962 rxn_smarts="[C:1]([C@@:2]1([C:5](=[O:6])[N:7]([H:13])[H:14])[C:3]([H:11])([H:12])[O:4]1)([H:8])([H:9])[H:10]>>[C:1]([C@@:2]1([O+:6]=[C-:5][N:7]([H:13])[H:14])[C:3]([H:11])([H:12])[O:4]1)([H:8])([H:9])[H:10]"
C        1.20695442      -1.30497306       0.09409912
C        0.43906114      -0.02936367      -0.08604539
C        1.07370155       1.23597997      -0.45418776
O        0.33098762       0.46372155      -1.39642125
C       -1.28017393      -0.35462453       0.46233118
O       -0.56079968       0.18158696       1.37047673
N       -2.41921588       0.28113028       0.18655017
H        2.16503419      -1.24368103      -0.42218749
H        1.39007846      -1.48938627       1.15154579
H        0.63667776      -2.14361762      -0.30249585
H        0.60491806       2.17310619      -0.17157335
H        2.14432491       1.27536744      -0.63413582
H       -2.82976434       0.90822102       0.86319637
H       -2.90178429       0.04653277      -0.66115245
14
Frame=12 idx=010569 GeodesicLength=0.2635105680021141 rxn_smarts="[C:1]([C@@:2]1([C:5](=[O:6])[N:7]([H:13])[H:14])[C:3]([H:11])([H:12])[O:4]1)([H:8])([H:9])[H:10]>>[C:1]([C@@:2]1([O+:6]=[C-:5][N:7]([H:13])[H:14])[C:3]([H:11])([H:12])[O:4]1)([H:8])([H:9])[H:10]"
C        1.20766371      -1.30278601       0.09537343
C        0.43498306      -0.02896076      -0.08259188
C        1.06935157       1.23466499      -0.45632715
O        0.32875371       0.45994220      -1.39685911
C       -1.28334323      -0.36136506       0.46762402
O       -0.56518243       0.16874763       1.37814494
N       -2.41515488       0.28493869       0.18592956
H        2.15800427      -1.24597534      -0.43517776
H        1.40645341      -1.48015521       1.15135218
H        0.63226060      -2.14541617      -0.28548672
H        0.59991641       2.17329941      -0.17934555
H        2.14036736       1.27351885      -0.63400491
H       -2.83835346       0.89230720       0.87224184
H       -2.87572011       0.07723957      -0.68087290
14
Frame=13 idx=010569 GeodesicLength=0.28810993345843594 rxn_smarts="[C:1]([C@@:2]1([C:5](=[O:6])[N:7]([H:13])[H:14])[C:3]([H:11])([H:12])[O:4]1)([H:8])([H:9])[H:10]>>[C:1]([C@@:2]1([O+:6]=[C-:5][N:7]([H:13])[H:14])[C:3]([H:11])([H:12])[O:4]1)([H:8])([H:9])[H:10]"
C        1.20836384      -1.30059696       0.09668922
C        0.43080870      -0.02859658      -0.07918076
C        1.06484801       1.23330366      -0.45857922
O        0.32645400       0.45599857      -1.39739998
C       -1.28660872      -0.36825363       0.47275130
O       -0.56968209       0.15566252       1.38571430
N       -2.41118734       0.28852816       0.18552143
H        2.15075380      -1.24838490      -0.44799253
H        1.42281085      -1.47071997       1.15097079
H        0.62817193      -2.14720554      -0.26823012
H        0.59470392       2.17344944      -0.18738643
H        2.13626801       1.27166451      -0.63391717
H       -2.84746298       0.87563904       0.88079056
H       -2.84824193       0.10951169      -0.69975140
14
Frame=14 idx=010569 GeodesicLength=0.31337270255509975 rxn_smarts="[C:1]([C@@:2]1([C:5](=[O:6])[N:7]([H:13])[H:14])[C:3]([H:11])([H:12])[O:4]1)([H:8])([H:9])[H:10]>>[C:1]([C@@:2]1([O+:6]=[C-:5][N:7]([H:13])[H:14])[C:3]([H:11])([H:12])[O:4]1)([H:8])([H:9])[H:10]"
C        1.20903067      -1.29835370       0.09808157
C        0.42651742      -0.02831152      -0.07584537
C        1.06014256       1.23184460      -0.46100961
O        0.32414045       0.45178902      -1.39805509
C       -1.28997357      -0.37536258       0.47764442
O       -0.57433889       0.14221957       1.39308947
N       -2.40729159       0.29179421       0.18535268
H        2.14328914      -1.25080573      -0.46051544
H        1.43905119      -1.46100287       1.15040663
H        0.62443407      -2.14893527      -0.25065591
H        0.58919026       2.17344561      -0.19585454
H        2.13196231       1.26982110      -0.63389068
H       -2.85705507       0.85793863       0.88890716
H       -2.81909895       0.14391892      -0.71765529
14
Frame=15 idx=010569 GeodesicLength=0.3389072616020859 rxn_smarts="[C:1]([C@@:2]1([C:5](=[O:6])[N:7]([H:13])[H:14])[C:3]([H:11])([H:12])[O:4]1)([H:8])([H:9])[H:10]>>[C:1]([C@@:2]1([O+:6]=[C-:5][N:7]([H:13])[H:14])[C:3]([H:11])([H:12])[O:4]1)([H:8])([H:9])[H:10]"
C        1.20967692      -1.29610833       0.09943265
C        0.42216332      -0.02801490      -0.07255755
C        1.05538694       1.23039890      -0.46341304
O        0.32186659       0.44759339      -1.39878342
C       -1.29343655      -0.38259040       0.48226162
O       -0.57915547       0.12850664       1.40032004
N       -2.40351931       0.29482554       0.18519677
H        2.13567080      -1.25330853      -0.47282756
H        1.45513213      -1.45122478       1.14958175
H        0.62103289      -2.15058385      -0.23311569
H        0.58360419       2.17345550      -0.20437054
H        2.12762888       1.26800649      -0.63373403
H       -2.86662152       0.84048566       0.89582683
H       -2.78942980       0.17855866      -0.73381784
14
Frame=16 idx=010569 GeodesicLength=0.36486764343707784 rxn_smarts="[C:1]([C@@:2]1([C:5](=[O:6])[N:7]([H:13])[H:14])[C:3]([H:11])([H:12])[O:4]1)([H:8])([H:9])[H:10]>>[C:1]([C@@:2]1([O+:6]=[C-:5][N:7]([H:13])[H:14])[C:3]([H:11])([H:12])[O:4]1)([H:8])([H:9])[H:10]"
C        1.21026887      -1.29379820       0.10080048
C        0.41773384      -0.02774260      -0.06936634
C        1.05055844       1.22889999      -0.46590027
O        0.31970544       0.44327106      -1.39961351
C       -1.29699674      -0.38996383       0.48651907
O       -0.58415544       0.11446219       1.40727531
N       -2.39983862       0.29758079       0.18510765
H        2.12790912      -1.25579209      -0.48477576
H        1.47093551      -1.44127799       1.14852731
H        0.61796321      -2.15209762      -0.21549625
H        0.57789039       2.17336044      -0.21317488
H        2.12322798       1.26621199      -0.63350703
H       -2.87632590       0.82267215       0.90190881
H       -2.75887610       0.21421370      -0.74830460
