11
Frame=0 idx=001774 GeodesicLength=0.0 rxn_smarts="[N:1]([c:2]1[c:3]([H:9])[n:4]([H:10])[n:5][c:6]1[H:11])([H:7])[H:8]>>[N:1]([C:2]1=[C:6]([H:11])[N:5]=[N:4][C:3]1([H:9])[H:10])([H:7])[H:8]"
N       -1.68445220      -0.40119620      -0.26180786
C       -0.37520097      -0.02241336      -0.01337610
C        0.76800139      -0.82609063      -0.03839330
N        1.91363713       0.01676518       0.24265285
N        1.46109423       1.25081010       0.33746772
C        0.12721552       1.24929917       0.23763474
H       -2.37963593       0.24630295       0.06862877
H       -1.91129277      -1.35013279      -0.01690146
H        0.87393992      -1.89974972       0.02387483
H        1.63170207      -0.43880347      -0.90113210
H       -0.42500844       2.17520874       0.32135191
11
Frame=1 idx=001774 GeodesicLength=0.03942173910712321 rxn_smarts="[N:1]([c:2]1[c:3]([H:9])[n:4]([H:10])[n:5][c:6]1[H:11])([H:7])[H:8]>>[N:1]([C:2]1=[C:6]([H:11])[N:5]=[N:4][C:3]1([H:9])[H:10])([H:7])[H:8]"
N       -1.68538665      -0.39857038      -0.26342231
C       -0.37638092      -0.01916147      -0.01606959
C        0.76771380      -0.82456726      -0.04311060
N        1.90928058       0.01887159       0.23720043
N        1.46108161       1.25221851       0.33294304
C        0.12514267       1.25170579       0.23721436
H       -2.38134503       0.24298749       0.07685425
H       -1.90919764      -1.35103028      -0.02980358
H        0.86954033      -1.89695926       0.04412817
H        1.64644466      -0.45169945      -0.91065773
H       -0.42689342       2.17620471       0.33472356
11
Frame=2 idx=001774 GeodesicLength=0.07884163074341877 rxn_smarts="[N:1]([c:2]1[c:3]([H:9])[n:4]([H:10])[n:5][c:6]1[H:11])([H:7])[H:8]>>[N:1]([C:2]1=[C:6]([H:11])[N:5]=[N:4][C:3]1([H:9])[H:10])([H:7])[H:8]"
N       -1.68633754      -0.39595019      -0.26506213
C       -0.37759982      -0.01590985      -0.01867284
C        0.76740074      -0.82305810      -0.04782841
N        1.90492448       0.02108766       0.23135635
N        1.46102505       1.25370689       0.32811064
C        0.12299532       1.25408783       0.23705744
H       -2.38303985       0.23955663       0.08493550
H       -1.90715475      -1.35178538      -0.04279767
H        0.86508783      -1.89360549       0.06440221
H        1.66145748      -0.46515186      -0.91989193
H       -0.42875893       2.17702187       0.34839084
11
Frame=3 idx=001774 GeodesicLength=0.11825963086076954 rxn_smarts="[N:1]([c:2]1[c:3]([H:9])[n:4]([H:10])[n:5][c:6]1[H:11])([H:7])[H:8]>>[N:1]([C:2]1=[C:6]([H:11])[N:5]=[N:4][C:3]1([H:9])[H:10])([H:7])[H:8]"
N       -1.68732349      -0.39341021      -0.26650599
C       -0.37887065      -0.01271672      -0.02102292
C        0.76706969      -0.82157807      -0.05275809
N        1.90055043       0.02329617       0.22532004
N        1.46087254       1.25509779       0.32377632
C        0.12073168       1.25628505       0.23787555
H       -2.38474386       0.23605245       0.09288359
H       -1.90520409      -1.35241003      -0.05539717
H        0.86064438      -1.88977030       0.08385247
H        1.67675783      -0.47874457      -0.92884810
H       -0.43048447       2.17789842       0.36082430
11
Frame=4 idx=001774 GeodesicLength=0.15759844947008508 rxn_smarts="[N:1]([c:2]1[c:3]([H:9])[n:4]([H:10])[n:5][c:6]1[H:11])([H:7])[H:8]>>[N:1]([C:2]1=[C:6]([H:11])[N:5]=[N:4][C:3]1([H:9])[H:10])([H:7])[H:8]"
N       -1.68837119      -0.39103924      -0.26738526
C       -0.38021384      -0.00968749      -0.02275636
C        0.76673555      -0.82014670      -0.05827143
N        1.89614408       0.02529235       0.21937930
N        1.46055832       1.25607580       0.32130646
C        0.11829673       1.25799274       0.24102502
H       -2.38649062       0.23250948       0.10086523
H       -1.90340589      -1.35294935      -0.06700794
H        0.85630544      -1.88566055       0.10119359
H        1.69232221      -0.49172338      -0.93761735
H       -0.43188079       2.17933634       0.36926875
11
Frame=5 idx=001774 GeodesicLength=0.19693849152921244 rxn_smarts="[N:1]([c:2]1[c:3]([H:9])[n:4]([H:10])[n:5][c:6]1[H:11])([H:7])[H:8]>>[N:1]([C:2]1=[C:6]([H:11])[N:5]=[N:4][C:3]1([H:9])[H:10])([H:7])[H:8]"
N       -1.68946486      -0.38877397      -0.26785854
C       -0.38161995      -0.00677561      -0.02396732
C        0.76638817      -0.81874598      -0.06416390
N        1.89171910       0.02718027       0.21339498
N        1.46012725       1.25678279       0.32010011
C        0.11573131       1.25931463       0.24599301
H       -2.38827588       0.22891092       0.10887935
H       -1.90173285      -1.35339954      -0.07799034
H        0.85205325      -1.88127553       0.11696338
H        1.70815671      -0.50443773      -0.94618270
H       -0.43308224       2.18121976       0.37483197
11
Frame=6 idx=001774 GeodesicLength=0.23628199951898646 rxn_smarts="[N:1]([c:2]1[c:3]([H:9])[n:4]([H:10])[n:5][c:6]1[H:11])([H:7])[H:8]>>[N:1]([C:2]1=[C:6]([H:11])[N:5]=[N:4][C:3]1([H:9])[H:10])([H:7])[H:8]"
N       -1.69060918      -0.38656301      -0.26804523
C       -0.38308275      -0.00391863      -0.02484790
C        0.76601034      -0.81735069      -0.07033152
N        1.88726566       0.02903990       0.20728420
N        1.45959634       1.25733404       0.31969692
C        0.11305932       1.26035453       0.25230784
H       -2.39008853       0.22522400       0.11699416
H       -1.90014762      -1.35374965      -0.08860605
H        0.84784580      -1.87661843       0.13159651
H        1.72432226      -0.51716543      -0.95447062
H       -0.43417164       2.18341337       0.37842168
11
Frame=7 idx=001774 GeodesicLength=0.2755950339225929 rxn_smarts="[N:1]([c:2]1[c:3]([H:9])[n:4]([H:10])[n:5][c:6]1[H:11])([H:7])[H:8]>>[N:1]([C:2]1=[C:6]([H:11])[N:5]=[N:4][C:3]1([H:9])[H:10])([H:7])[H:8]"
N       -1.69177216      -0.38436320      -0.26825501
C       -0.38458451      -0.00104229      -0.02569828
C        0.76559857      -0.81592604      -0.07651343
N        1.88279851       0.03104767       0.20073976
N        1.45900314       1.25796261       0.31899273
C        0.11032176       1.26130641       0.25896568
H       -2.39191417       0.22150113       0.12487206
H       -1.89861474      -1.35395984      -0.09913092
H        0.84365146      -1.87153013       0.14607944
H        1.74084568      -0.53051239      -0.96236805
H       -0.43533353       2.18551606       0.38231602
11
Frame=8 idx=001774 GeodesicLength=0.3149367851634274 rxn_smarts="[N:1]([c:2]1[c:3]([H:9])[n:4]([H:10])[n:5][c:6]1[H:11])([H:7])[H:8]>>[N:1]([C:2]1=[C:6]([H:11])[N:5]=[N:4][C:3]1([H:9])[H:10])([H:7])[H:8]"
N       -1.69295915      -0.38213247      -0.26857257
C       -0.38612285       0.00190051      -0.02664310
C        0.76514131      -0.81447270      -0.08262603
N        1.87831299       0.03326914       0.19367459
N        1.45836086       1.25878198       0.31763417
C        0.10753760       1.26225709       0.26567168
H       -2.39374032       0.21769508       0.13259776
H       -1.89710852      -1.35402275      -0.10981434
H        0.83943883      -1.86598730       0.16072291
H        1.75776510      -0.54472476      -0.96979684
H       -0.43662584       2.18743618       0.38715176
11
Frame=9 idx=001774 GeodesicLength=0.354308459948681 rxn_smarts="[N:1]([c:2]1[c:3]([H:9])[n:4]([H:10])[n:5][c:6]1[H:11])([H:7])[H:8]>>[N:1]([C:2]1=[C:6]([H:11])[N:5]=[N:4][C:3]1([H:9])[H:10])([H:7])[H:8]"
N       -1.69418426      -0.37980637      -0.26911148
C       -0.38769390       0.00496518      -0.02785933
C        0.76462458      -0.81298257      -0.08855695
N        1.87380516       0.03576758       0.18595609
N        1.45768095       1.25989455       0.31513455
C        0.10473085       1.26329581       0.27204488
H       -2.39554669       0.21372249       0.14033876
H       -1.89559671      -1.35393002      -0.12104404
H        0.83517249      -1.85987485       0.17596343
H        1.77512231      -0.56011564      -0.97661965
H       -0.43811479       2.18906384       0.39375375
11
Frame=10 idx=001774 GeodesicLength=0.39366189878967844 rxn_smarts="[N:1]([c:2]1[c:3]([H:9])[n:4]([H:10])[n:5][c:6]1[H:11])([H:7])[H:8]>>[N:1]([C:2]1=[C:6]([H:11])[N:5]=[N:4][C:3]1([H:9])[H:10])([H:7])[H:8]"
N       -1.69543053      -0.37733836      -0.26998049
C       -0.38929775       0.00817781      -0.02941882
C        0.76404593      -0.81145831      -0.09420502
N        1.86928264       0.03861940       0.17739955
N        1.45696910       1.26141609       0.31105166
C        0.10191242       1.26446897       0.27790152
H       -2.39730430       0.20953079       0.14812180
H       -1.89403254      -1.35365680      -0.13312693
H        0.83082825      -1.85309795       0.19218595
H        1.79287040      -0.57695436      -0.98272990
H       -0.43984364       2.19029273       0.40280067
11
Frame=11 idx=001774 GeodesicLength=0.4330567444355344 rxn_smarts="[N:1]([c:2]1[c:3]([H:9])[n:4]([H:10])[n:5][c:6]1[H:11])([H:7])[H:8]>>[N:1]([C:2]1=[C:6]([H:11])[N:5]=[N:4][C:3]1([H:9])[H:10])([H:7])[H:8]"
N       -1.69672633      -0.37482539      -0.27087857
C       -0.39094958       0.01146574      -0.03105559
C        0.76340898      -0.80990211      -0.09988209
N        1.86471175       0.04166350       0.16825513
N        1.45615159       1.26307707       0.30653016
C        0.09903849       1.26555954       0.28414380
H       -2.39906330       0.20520348       0.15590833
H       -1.89249504      -1.35320433      -0.14536211
H        0.82651893      -1.84582029       0.20829265
H        1.81105176      -0.59463195      -0.98819834
H       -0.44164726       2.19141475       0.41224664
11
Frame=12 idx=001774 GeodesicLength=0.4724553555048431 rxn_smarts="[N:1]([c:2]1[c:3]([H:9])[n:4]([H:10])[n:5][c:6]1[H:11])([H:7])[H:8]>>[N:1]([C:2]1=[C:6]([H:11])[N:5]=[N:4][C:3]1([H:9])[H:10])([H:7])[H:8]"
N       -1.69807954      -0.37220859      -0.27196837
C       -0.39265079       0.01489506      -0.03299832
C        0.76270928      -0.80831770      -0.10544268
N        1.86010958       0.04498776       0.15831230
N        1.45525056       1.26503951       0.30091055
C        0.09612867       1.26670358       0.29028186
H       -2.40078589       0.20065438       0.16380456
H       -1.89095378      -1.35257020      -0.15817520
H        0.82218804      -1.83791031       0.22485695
H        1.82969347      -0.61354820      -0.99283455
H       -0.44360959       2.19227469       0.42325291
11
Frame=13 idx=001774 GeodesicLength=0.5118935054355963 rxn_smarts="[N:1]([c:2]1[c:3]([H:9])[n:4]([H:10])[n:5][c:6]1[H:11])([H:7])[H:8]>>[N:1]([C:2]1=[C:6]([H:11])[N:5]=[N:4][C:3]1([H:9])[H:10])([H:7])[H:8]"
N       -1.69949305      -0.36948002      -0.27326939
C       -0.39439623       0.01847180      -0.03532512
C        0.76192900      -0.80667540      -0.11093482
N        1.85541591       0.04866352       0.14748517
N        1.45421997       1.26733509       0.29409314
C        0.09321341       1.26784631       0.29627896
H       -2.40246009       0.19588434       0.17178681
H       -1.88940543      -1.35172038      -0.17156309
H        0.81782968      -1.82927309       0.24196273
H        1.84883487      -0.63379205      -0.99653052
H       -0.44568804       2.19273988       0.43601614
11
Frame=14 idx=001774 GeodesicLength=0.5513562901286223 rxn_smarts="[N:1]([c:2]1[c:3]([H:9])[n:4]([H:10])[n:5][c:6]1[H:11])([H:7])[H:8]>>[N:1]([C:2]1=[C:6]([H:11])[N:5]=[N:4][C:3]1([H:9])[H:10])([H:7])[H:8]"
N       -1.70099271      -0.36666381      -0.27463634
C       -0.39620800       0.02218211      -0.03791974
C        0.76107154      -0.80498650      -0.11647795
N        1.85064508       0.05259252       0.13585590
N        1.45304431       1.26983855       0.28659927
C        0.09025822       1.26895033       0.30242412
H       -2.40409579       0.19087737       0.17998331
H       -1.88787706      -1.35066525      -0.18534233
H        0.81348576      -1.82000577       0.25910213
H        1.86849393      -0.65511134      -0.99922572
H       -0.44782526       2.19299179       0.44963735
11
Frame=15 idx=001774 GeodesicLength=0.5908323246745787 rxn_smarts="[N:1]([c:2]1[c:3]([H:9])[n:4]([H:10])[n:5][c:6]1[H:11])([H:7])[H:8]>>[N:1]([C:2]1=[C:6]([H:11])[N:5]=[N:4][C:3]1([H:9])[H:10])([H:7])[H:8]"
N       -1.70258187      -0.36379403      -0.27600883
C       -0.39809357       0.02600663      -0.04072542
C        0.76013566      -0.80324857      -0.12216784
N        1.84577546       0.05675465       0.12341571
N        1.45169914       1.27249504       0.27868929
C        0.08726625       1.26998320       0.30877870
H       -2.40570047       0.18568277       0.18831402
H       -1.88639690      -1.34940897      -0.19928089
H        0.80919089      -1.81015091       0.27601967
H        1.88869252      -0.67738189      -1.00085159
H       -0.44998709       2.19306207       0.46381718
11
Frame=16 idx=001774 GeodesicLength=0.630316547776542 rxn_smarts="[N:1]([c:2]1[c:3]([H:9])[n:4]([H:10])[n:5][c:6]1[H:11])([H:7])[H:8]>>[N:1]([C:2]1=[C:6]([H:11])[N:5]=[N:4][C:3]1([H:9])[H:10])([H:7])[H:8]"
N       -1.70426790      -0.36089272      -0.27733117
C       -0.40006113       0.02992895      -0.04369189
C        0.75911696      -0.80145568      -0.12808891
N        1.84078725       0.06113710       0.11014308
N        1.45017381       1.27525066       0.27060885
C        0.08424293       1.27091947       0.31536496
H       -2.40727972       0.18033491       0.19675098
H       -1.88499073      -1.34795720      -0.21321428
H        0.80497539      -1.79974821       0.29250264
H        1.90944875      -0.70049436      -1.00133381
H       -0.45214560       2.19297709       0.47828955
