17
Frame=0 idx=008929 GeodesicLength=0.0 rxn_smarts="[C:1]([O:2][C:3]([C@@:4]([O:5][H:14])([C:6]([O:7][H:17])([H:15])[H:16])[H:13])([H:11])[H:12])([H:8])([H:9])[H:10]>>[C:1]([O:2][C@:3]1([H:12])[C@:4]([O:5][H:14])([H:13])[C@:6]1([O:7][H:17])[H:15])([H:8])([H:9])[H:10].[H:11][H:16]"
C        2.79648004      -0.00003148      -0.16002244
O        1.62785240       0.07512784       0.61396874
C        0.47316401       0.06294961      -0.15386274
C       -0.74810078      -0.14091440       0.70352695
O       -1.18139513       1.02440903       1.38793965
C       -1.87943268      -0.76026961       0.04080423
O       -3.05801077      -0.17480301       0.06433567
H        3.64465099       0.03198188       0.52208148
H        2.86195144       0.83999446      -0.86096588
H        2.82977608      -0.93666939      -0.73236705
H       -0.73077089       0.70363291      -1.48972085
H        0.53939783      -0.65724513      -0.98166077
H       -0.42616816      -0.90580182       1.43044025
H       -0.62066076       1.73410094       1.05469440
H       -1.89046403      -1.80628046      -0.23524605
H       -1.32246128       0.21908683      -1.69486041
H       -2.91580829       0.69073173       0.49091478
17
Frame=1 idx=008929 GeodesicLength=0.10925149219521163 rxn_smarts="[C:1]([O:2][C:3]([C@@:4]([O:5][H:14])([C:6]([O:7][H:17])([H:15])[H:16])[H:13])([H:11])[H:12])([H:8])([H:9])[H:10]>>[C:1]([O:2][C@:3]1([H:12])[C@:4]([O:5][H:14])([H:13])[C@:6]1([O:7][H:17])[H:15])([H:8])([H:9])[H:10].[H:11][H:16]"
C        2.78904440      -0.00802952      -0.16298616
O        1.61831212       0.08975366       0.60463134
C        0.45695711       0.07264745      -0.15478281
C       -0.74514160      -0.13703161       0.72472006
O       -1.18911983       1.02324930       1.40687650
C       -1.85461052      -0.75445074       0.02034958
O       -3.04055121      -0.17244826       0.03366952
H        3.63537820       0.03068320       0.52098060
H        2.86153740       0.81880282      -0.87886523
H        2.81537446      -0.95544530      -0.71746870
H       -0.72860082       0.70456665      -1.51001341
H        0.54228059      -0.61725204      -1.00441547
H       -0.42327037      -0.90428378       1.44790721
H       -0.61612901       1.73550411       1.10204074
H       -1.86843643      -1.81078988      -0.21511758
H       -1.33453776       0.20147644      -1.70116391
H       -2.91848672       0.68304750       0.48363773
17
Frame=2 idx=008929 GeodesicLength=0.21850162951320984 rxn_smarts="[C:1]([O:2][C:3]([C@@:4]([O:5][H:14])([C:6]([O:7][H:17])([H:15])[H:16])[H:13])([H:11])[H:12])([H:8])([H:9])[H:10]>>[C:1]([O:2][C@:3]1([H:12])[C@:4]([O:5][H:14])([H:13])[C@:6]1([O:7][H:17])[H:15])([H:8])([H:9])[H:10].[H:11][H:16]"
C        2.78128224      -0.01542017      -0.16570334
O        1.60848125       0.10463700       0.59495006
C        0.44052797       0.08178880      -0.15608108
C       -0.74221807      -0.13388339       0.74520321
O       -1.19599417       1.02140341       1.42565762
C       -1.82996455      -0.74861712       0.00126898
O       -3.02271775      -0.16900695       0.00462104
H        3.62570340       0.02969588       0.52016065
H        2.86078414       0.79829364      -0.89583005
H        2.80059349      -0.97290728      -0.70269071
H       -0.72629751       0.70417263      -1.53142834
H        0.54542824      -0.57664509      -1.02645611
H       -0.42005078      -0.90323044       1.46483419
H       -0.61098802       1.73535203       1.14993308
H       -1.84832212      -1.81326383      -0.19587000
H       -1.34607331       0.18129873      -1.70840203
H       -2.92017448       0.67633216       0.47583286
17
Frame=3 idx=008929 GeodesicLength=0.32774214127683665 rxn_smarts="[C:1]([O:2][C:3]([C@@:4]([O:5][H:14])([C:6]([O:7][H:17])([H:15])[H:16])[H:13])([H:11])[H:12])([H:8])([H:9])[H:10]>>[C:1]([O:2][C@:3]1([H:12])[C@:4]([O:5][H:14])([H:13])[C@:6]1([O:7][H:17])[H:15])([H:8])([H:9])[H:10].[H:11][H:16]"
C        2.77323365      -0.02213753      -0.16818334
O        1.59839220       0.11961825       0.58496682
C        0.42391452       0.09031025      -0.15774757
C       -0.73930425      -0.13145316       0.76498181
O       -1.20193396       1.01894538       1.44428196
C       -1.80564802      -0.74274688      -0.01650198
O       -3.00462982      -0.16434334      -0.02292946
H        3.61566716       0.02894793       0.51964728
H        2.85971386       0.77875044      -0.91169107
H        2.78553322      -0.98889081      -0.68832196
H       -0.72386104       0.70238868      -1.55389176
H        0.54876572      -0.53556934      -1.04766278
H       -0.41654596      -0.90266987       1.48122185
H       -0.60518898       1.73363982       1.19823165
H       -1.83019656      -1.81396119      -0.17747267
H       -1.35704442       0.15834570      -1.71647653
H       -2.92086731       0.67082569       0.46754777
17
Frame=4 idx=008929 GeodesicLength=0.43689129507910945 rxn_smarts="[C:1]([O:2][C:3]([C@@:4]([O:5][H:14])([C:6]([O:7][H:17])([H:15])[H:16])[H:13])([H:11])[H:12])([H:8])([H:9])[H:10]>>[C:1]([O:2][C@:3]1([H:12])[C@:4]([O:5][H:14])([H:13])[C@:6]1([O:7][H:17])[H:15])([H:8])([H:9])[H:10].[H:11][H:16]"
C        2.76489961      -0.02816167      -0.17045386
O        1.58802683       0.13461380       0.57468417
C        0.40715028       0.09822176      -0.15977689
C       -0.73638738      -0.12969855       0.78404413
O       -1.20693011       1.01589861       1.46271224
C       -1.78174380      -0.73682508      -0.03301625
O       -2.98634267      -0.15842805      -0.04903135
H        3.60523182       0.02835252       0.51942440
H        2.85838043       0.76030488      -0.92637722
H        2.77023006      -1.00331049      -0.67454585
H       -0.72125189       0.69921201      -1.57724978
H        0.55222772      -0.49406495      -1.06792018
H       -0.41281241      -0.90255974       1.49703463
H       -0.59874742       1.73030889       1.24679868
H       -1.81400814      -1.81305611      -0.15987898
H       -1.36739468       0.13250300      -1.72519336
H       -2.92052827       0.66668916       0.45874547
17
Frame=5 idx=008929 GeodesicLength=0.5460213719228303 rxn_smarts="[C:1]([O:2][C:3]([C@@:4]([O:5][H:14])([C:6]([O:7][H:17])([H:15])[H:16])[H:13])([H:11])[H:12])([H:8])([H:9])[H:10]>>[C:1]([O:2][C@:3]1([H:12])[C@:4]([O:5][H:14])([H:13])[C@:6]1([O:7][H:17])[H:15])([H:8])([H:9])[H:10].[H:11][H:16]"
C        2.75634052      -0.03350202      -0.17251438
O        1.57745137       0.14963155       0.56416109
C        0.39027135       0.10559037      -0.16216366
C       -0.73341759      -0.12859085       0.80239974
O       -1.21095441       1.01232734       1.48102289
C       -1.75833507      -0.73088588      -0.04840308
O       -2.96793255      -0.15118821      -0.07392029
H        3.59448506       0.02789090       0.51954518
H        2.85684429       0.74301556      -0.93993109
H        2.75473838      -1.01626075      -0.66142668
H       -0.71856738       0.69475296      -1.60144058
H        0.55570677      -0.45212275      -1.08720699
H       -0.40878024      -0.90294507       1.51226789
H       -0.59171347       1.72543918       1.29558831
H       -1.79977686      -1.81082796      -0.14300788
H       -1.37713885       0.10365028      -1.73449225
H       -2.91922132       0.66402535       0.44952179
17
Frame=6 idx=008929 GeodesicLength=0.6550840641548965 rxn_smarts="[C:1]([O:2][C:3]([C@@:4]([O:5][H:14])([C:6]([O:7][H:17])([H:15])[H:16])[H:13])([H:11])[H:12])([H:8])([H:9])[H:10]>>[C:1]([O:2][C@:3]1([H:12])[C@:4]([O:5][H:14])([H:13])[C@:6]1([O:7][H:17])[H:15])([H:8])([H:9])[H:10].[H:11][H:16]"
C        2.74752328      -0.03824911      -0.17438427
O        1.56666016       0.16489161       0.55336421
C        0.37331411       0.11263369      -0.16491877
C       -0.73034783      -0.12806431       0.82000627
O       -1.21406335       1.00817488       1.49921442
C       -1.73538679      -0.72493988      -0.06277849
O       -2.94933718      -0.14266584      -0.09778899
H        3.58335689       0.02753257       0.51998121
H        2.85522735       0.72660603      -0.95257900
H        2.73889779      -1.02796202      -0.64875459
H       -0.71582670       0.68923557      -1.62628347
H        0.55912421      -0.40946450      -1.10549607
H       -0.40439069      -0.90376632       1.52680763
H       -0.58424153       1.71899901       1.34450909
H       -1.78737032      -1.80740356      -0.12675319
H       -1.38615489       0.07176204      -1.74416838
H       -2.91698450       0.66268014       0.44002239
17
Frame=7 idx=008929 GeodesicLength=0.7641157088841124 rxn_smarts="[C:1]([O:2][C:3]([C@@:4]([O:5][H:14])([C:6]([O:7][H:17])([H:15])[H:16])[H:13])([H:11])[H:12])([H:8])([H:9])[H:10]>>[C:1]([O:2][C@:3]1([H:12])[C@:4]([O:5][H:14])([H:13])[C@:6]1([O:7][H:17])[H:15])([H:8])([H:9])[H:10].[H:11][H:16]"
C        2.73843629      -0.04248849      -0.17607578
O        1.55566708       0.18060452       0.54224787
C        0.35627897       0.11961550      -0.16806237
C       -0.72712285      -0.12803032       0.83686044
O       -1.21636749       1.00344612       1.51732908
C       -1.71286253      -0.71905858      -0.07622381
O       -2.93055885      -0.13301082      -0.12072564
H        3.57184913       0.02712864       0.52072411
H        2.85365288       0.71087584      -0.96443362
H        2.72254769      -1.03857827      -0.63643908
H       -0.71315396       0.68281139      -1.65168825
H        0.56235927      -0.36589123      -1.12277106
H       -0.39949245      -0.90493559       1.54061168
H       -0.57641616       1.71096984       1.39374617
H       -1.77653951      -1.80297407      -0.11105139
H       -1.39449268       0.03677917      -1.75405017
H       -2.91378482       0.66273635       0.43000183
17
Frame=8 idx=008929 GeodesicLength=0.8731561126985687 rxn_smarts="[C:1]([O:2][C:3]([C@@:4]([O:5][H:14])([C:6]([O:7][H:17])([H:15])[H:16])[H:13])([H:11])[H:12])([H:8])([H:9])[H:10]>>[C:1]([O:2][C@:3]1([H:12])[C@:4]([O:5][H:14])([H:13])[C@:6]1([O:7][H:17])[H:15])([H:8])([H:9])[H:10].[H:11][H:16]"
C        2.72908125      -0.04622518      -0.17762062
O        1.54452179       0.19669589       0.53090024
C        0.33920447       0.12655067      -0.17154187
C       -0.72371528      -0.12847385       0.85298980
O       -1.21787680       0.99818521       1.53538908
C       -1.69078602      -0.71327511      -0.08885231
O       -2.91156148      -0.12211750      -0.14302433
H        3.56000442       0.02670572       0.52173675
H        2.85204459       0.69586477      -0.97555692
H        2.70571816      -1.04815712      -0.62456549
H       -0.71051818       0.67559736      -1.67757021
H        0.56529376      -0.32139443      -1.13898973
H       -0.39407739      -0.90647172       1.55371565
H       -0.56828622       1.70138269       1.44322160
H       -1.76733336      -1.79767975      -0.09576785
H       -1.40204727      -0.00139051      -1.76398987
H       -2.90966643       0.66420287       0.41952609
17
Frame=9 idx=008929 GeodesicLength=0.9821775826252247 rxn_smarts="[C:1]([O:2][C:3]([C@@:4]([O:5][H:14])([C:6]([O:7][H:17])([H:15])[H:16])[H:13])([H:11])[H:12])([H:8])([H:9])[H:10]>>[C:1]([O:2][C@:3]1([H:12])[C@:4]([O:5][H:14])([H:13])[C@:6]1([O:7][H:17])[H:15])([H:8])([H:9])[H:10].[H:11][H:16]"
C        2.71942973      -0.04942031      -0.17908201
O        1.53323919       0.21296165       0.51941758
C        0.32213346       0.13337331      -0.17527206
C       -0.72013946      -0.12939144       0.86840981
O       -1.21859941       0.99240649       1.55331476
C       -1.66918802      -0.70760687      -0.10073026
O       -2.89225554      -0.10986739      -0.16494393
H        3.54781871       0.02630657       0.52289905
H        2.85027033       0.68172245      -0.98594490
H        2.68846086      -1.05661446      -0.61332467
H       -0.70775206       0.66764075      -1.70376826
H        0.56781782      -0.27604539      -1.15402357
H       -0.38826540      -0.90836071       1.56614694
H       -0.55983623       1.69017699       1.49277276
H       -1.75987647      -1.79155243      -0.08072901
H       -1.40865532      -0.04282026      -1.77370941
H       -2.90460219       0.66709105       0.40856719
17
Frame=10 idx=008929 GeodesicLength=1.0912105104994476 rxn_smarts="[C:1]([O:2][C:3]([C@@:4]([O:5][H:14])([C:6]([O:7][H:17])([H:15])[H:16])[H:13])([H:11])[H:12])([H:8])([H:9])[H:10]>>[C:1]([O:2][C@:3]1([H:12])[C@:4]([O:5][H:14])([H:13])[C@:6]1([O:7][H:17])[H:15])([H:8])([H:9])[H:10].[H:11][H:16]"
C        2.70944999      -0.05207997      -0.18051817
O        1.52182693       0.22931600       0.50784767
C        0.30507398       0.14013672      -0.17920469
C       -0.71639816      -0.13074538       0.88315821
O       -1.21862298       0.98615901       1.57107581
C       -1.64804491      -0.70212821      -0.11191654
O       -2.87255475      -0.09628744      -0.18668138
H        3.53531001       0.02592313       0.52410033
H        2.84823101       0.66847039      -0.99564305
H        2.67075525      -1.06396055      -0.60281127
H       -0.70476970       0.65903744      -1.73019795
H        0.56979444      -0.22986613      -1.16781218
H       -0.38207697      -0.91055506       1.57797294
H       -0.55107083       1.67729201       1.54251271
H       -1.75411745      -1.78468225      -0.06578689
H       -1.41426911      -0.08752979      -1.78296692
H       -2.89851676       0.67150006       0.39687138
17
Frame=11 idx=008929 GeodesicLength=1.2002736901279942 rxn_smarts="[C:1]([O:2][C:3]([C@@:4]([O:5][H:14])([C:6]([O:7][H:17])([H:15])[H:16])[H:13])([H:11])[H:12])([H:8])([H:9])[H:10]>>[C:1]([O:2][C@:3]1([H:12])[C@:4]([O:5][H:14])([H:13])[C@:6]1([O:7][H:17])[H:15])([H:8])([H:9])[H:10].[H:11][H:16]"
C        2.69916621      -0.05414372      -0.18201272
O        1.51032368       0.24540064       0.49638406
C        0.28807571       0.14665604      -0.18322070
C       -0.71253777      -0.13254961       0.89730103
O       -1.21796504       0.97954557       1.58860226
C       -1.62740540      -0.69689114      -0.12247261
O       -2.85236752      -0.08123662      -0.20853377
H        3.52256802       0.02563763       0.52520629
H        2.84570930       0.65640408      -1.00464038
H        2.65282276      -1.07010816      -0.59334616
H       -0.70133946       0.64984463      -1.75674154
H        0.57111282      -0.18309408      -1.18023876
H       -0.37569697      -0.91307573       1.58933836
H       -0.54199122       1.66275153       1.59226823
H       -1.75025092      -1.77710305      -0.05079194
H       -1.41880615      -0.13550670      -1.79149100
H       -2.89141806       0.67746869       0.38438935
17
Frame=12 idx=008929 GeodesicLength=1.3093451285113944 rxn_smarts="[C:1]([O:2][C:3]([C@@:4]([O:5][H:14])([C:6]([O:7][H:17])([H:15])[H:16])[H:13])([H:11])[H:12])([H:8])([H:9])[H:10]>>[C:1]([O:2][C@:3]1([H:12])[C@:4]([O:5][H:14])([H:13])[C@:6]1([O:7][H:17])[H:15])([H:8])([H:9])[H:10].[H:11][H:16]"
C        2.68861575      -0.05553316      -0.18366844
O        1.49875527       0.26077741       0.48522015
C        0.27119821       0.15267778      -0.18718936
C       -0.70864194      -0.13482216       0.91089167
O       -1.21665153       0.97266342       1.60575031
C       -1.60732809      -0.69194340      -0.13242886
O       -2.83157320      -0.06459770      -0.23075597
H        3.50968729       0.02555091       0.52602981
H        2.84248585       0.64587302      -1.01289568
H        2.63493772      -1.07491448      -0.58529138
H       -0.69714239       0.64012288      -1.78320865
H        0.57168407      -0.13604579      -1.19114622
H       -0.36940939      -0.91592019       1.60038372
H       -0.53258981       1.64655027       1.64178041
H       -1.74851759      -1.76877335      -0.03558983
H       -1.42221701      -0.18666595      -1.79892209
H       -2.88329322       0.68500049       0.37104040
17
Frame=13 idx=008929 GeodesicLength=1.418458100991665 rxn_smarts="[C:1]([O:2][C:3]([C@@:4]([O:5][H:14])([C:6]([O:7][H:17])([H:15])[H:16])[H:13])([H:11])[H:12])([H:8])([H:9])[H:10]>>[C:1]([O:2][C@:3]1([H:12])[C@:4]([O:5][H:14])([H:13])[C@:6]1([O:7][H:17])[H:15])([H:8])([H:9])[H:10].[H:11][H:16]"
C        2.67782265      -0.05624486      -0.18557295
O        1.48714354       0.27525159       0.47447044
C        0.25447231       0.15812079      -0.19103653
C       -0.70476524      -0.13754240       0.92398812
O       -1.21478454       0.96561588       1.62243846
C       -1.58779859      -0.68738216      -0.14182572
O       -2.81004266      -0.04643184      -0.25354765
H        3.49676280       0.02572672       0.52640631
H        2.83842113       0.63696842      -1.02050209
H        2.61723195      -1.07841218      -0.57877678
H       -0.69195852       0.63007615      -1.80946451
H        0.57140881      -0.08891393      -1.20046560
H       -0.36335620      -0.91905348       1.61124650
H       -0.52293581       1.62868805       1.69105375
H       -1.74895027      -1.75970798      -0.02006291
H       -1.42457057      -0.24085304      -1.80495539
H       -2.87410079       0.69409429       0.35660654
17
Frame=14 idx=008929 GeodesicLength=1.5276126781172072 rxn_smarts="[C:1]([O:2][C:3]([C@@:4]([O:5][H:14])([C:6]([O:7][H:17])([H:15])[H:16])[H:13])([H:11])[H:12])([H:8])([H:9])[H:10]>>[C:1]([O:2][C@:3]1([H:12])[C@:4]([O:5][H:14])([H:13])[C@:6]1([O:7][H:17])[H:15])([H:8])([H:9])[H:10].[H:11][H:16]"
C        2.66687764      -0.05624441      -0.18782549
O        1.47553374       0.28842006       0.46433259
C        0.23797039       0.16270494      -0.19465095
C       -0.70100194      -0.14071412       0.93665897
O       -1.21241891       0.95856115       1.63852124
C       -1.56885649      -0.68328966      -0.15068888
O       -2.78765571      -0.02674512      -0.27711140
H        3.48394752       0.02623320       0.52617248
H        2.83335550       0.62998982      -1.02746750
H        2.60003594      -1.08055644      -0.57411833
H       -0.68547796       0.61994524      -1.83530125
H        0.57023560      -0.04205727      -1.20809330
H       -0.35782515      -0.92245954       1.62212140
H       -0.51311074       1.60927704       1.73980123
H       -1.75171931      -1.74986543      -0.00412303
H       -1.42599982      -0.29784181      -1.80926018
H       -2.86389030       0.70464235       0.34103240
17
Frame=15 idx=008929 GeodesicLength=1.636803284545304 rxn_smarts="[C:1]([O:2][C:3]([C@@:4]([O:5][H:14])([C:6]([O:7][H:17])([H:15])[H:16])[H:13])([H:11])[H:12])([H:8])([H:9])[H:10]>>[C:1]([O:2][C@:3]1([H:12])[C@:4]([O:5][H:14])([H:13])[C@:6]1([O:7][H:17])[H:15])([H:8])([H:9])[H:10].[H:11][H:16]"
C        2.65588595      -0.05552993      -0.19051147
O        1.46397353       0.29993106       0.45495467
C        0.22176998       0.16615829      -0.19795452
C       -0.69744626      -0.14432493       0.94895825
O       -1.20962209       0.95166816       1.65382932
C       -1.55052190      -0.67976288      -0.15903782
O       -2.76430189      -0.00566602      -0.30157032
H        3.47139698       0.02711302       0.52518300
H        2.82719398       0.62515106      -1.03380677
H        2.58365828      -1.08134514      -0.57155457
H       -0.67741303       0.61011110      -1.86046732
H        0.56813967       0.00416570      -1.21395807
H       -0.35309476      -0.92609164       1.63319469
H       -0.50322859       1.58847508       1.78771939
H       -1.75690386      -1.73919821       0.01228606
H       -1.42676045      -0.35731846      -1.81151454
H       -2.85272553       0.71646375       0.32425003
17
Frame=16 idx=008929 GeodesicLength=1.7460299175520169 rxn_smarts="[C:1]([O:2][C:3]([C@@:4]([O:5][H:14])([C:6]([O:7][H:17])([H:15])[H:16])[H:13])([H:11])[H:12])([H:8])([H:9])[H:10]>>[C:1]([O:2][C@:3]1([H:12])[C@:4]([O:5][H:14])([H:13])[C@:6]1([O:7][H:17])[H:15])([H:8])([H:9])[H:10].[H:11][H:16]"
C        2.64496718      -0.05412964      -0.19369719
O        1.45251924       0.30949469       0.44644552
C        0.20595494       0.16821798      -0.20090132
C       -0.69418176      -0.14835027       0.96093054
O       -1.20645970       0.94511604       1.66819243
C       -1.53280047      -0.67690888      -0.16689120
O       -2.73988815       0.01658701      -0.32699130
H        3.45926546       0.02838050       0.52333256
H        2.81990322       0.62259064      -1.03954387
H        2.56838898      -1.08082210      -0.57125709
H       -0.66752772       0.60110135      -1.88468715
H        0.56512769       0.04941023      -1.21802416
H       -0.34941381      -0.92988572       1.64464465
H       -0.49342730       1.56649854       1.83450061
H       -1.76450960      -1.72766252       0.02918425
H       -1.42721839      -0.41894726      -1.81144333
H       -2.84069981       0.72930941       0.30620605
