14
Frame=0 idx=003584 GeodesicLength=0.0 rxn_smarts="[C:1]1([H:7])([H:8])[C:2]([H:9])([H:10])[C@@:3]2([H:11])[O:4][C:5]([H:12])([H:13])[C@@:6]12[H:14]>>[C:1]1([H:7])([H:8])[C:2]([H:9])([H:10])[C:3][C@:6]1([C:5]([O:4][H:11])([H:12])[H:13])[H:14]"
C        1.11186768       0.48546889       0.35456988
C        1.20887913      -0.96534012      -0.16353196
C       -0.14313857      -0.86317155      -0.80777073
O       -1.46183078      -0.80573259       0.63310548
C       -1.46500712       0.59052957       0.28209904
C       -0.17309344       0.64946222      -0.50102285
H        0.91779073       0.55869916       1.42484714
H        1.94420483       1.14015521       0.09925571
H        1.37728784      -1.79139577       0.52654817
H        1.92957942      -1.06217269      -0.98503887
H       -1.29788496      -1.31849355      -0.39398580
H       -1.48942511       1.19337782       1.19285504
H       -2.34004989       0.83655935      -0.32939692
H       -0.11917981       1.35205410      -1.33253337
14
Frame=1 idx=003584 GeodesicLength=0.05189976687936797 rxn_smarts="[C:1]1([H:7])([H:8])[C:2]([H:9])([H:10])[C@@:3]2([H:11])[O:4][C:5]([H:12])([H:13])[C@@:6]12[H:14]>>[C:1]1([H:7])([H:8])[C:2]([H:9])([H:10])[C:3][C@:6]1([C:5]([O:4][H:11])([H:12])[H:13])[H:14]"
C        1.10979966       0.47996798       0.35729035
C        1.21870604      -0.96857182      -0.16703252
C       -0.14094362      -0.86336893      -0.78853089
O       -1.47372397      -0.79946327       0.63314464
C       -1.47081574       0.59531571       0.28114078
C       -0.17611779       0.64766033      -0.49884398
H        0.92239982       0.55127549       1.42858918
H        1.93685086       1.13882233       0.09626273
H        1.39434073      -1.79458446       0.52104116
H        1.93630240      -1.05326411      -0.99215177
H       -1.30555939      -1.32865094      -0.39527451
H       -1.49408887       1.20132472       1.18993170
H       -2.34237117       0.84620793      -0.33345576
H       -0.11477895       1.34732904      -1.33211112
14
Frame=2 idx=003584 GeodesicLength=0.10375963911730157 rxn_smarts="[C:1]1([H:7])([H:8])[C:2]([H:9])([H:10])[C@@:3]2([H:11])[O:4][C:5]([H:12])([H:13])[C@@:6]12[H:14]>>[C:1]1([H:7])([H:8])[C:2]([H:9])([H:10])[C:3][C@:6]1([C:5]([O:4][H:11])([H:12])[H:13])[H:14]"
C        1.10775253       0.47441742       0.36012043
C        1.22850356      -0.97169451      -0.17068778
C       -0.13877770      -0.86367422      -0.76875006
O       -1.48588071      -0.79310524       0.63303849
C       -1.47663375       0.60018819       0.28012708
C       -0.17913219       0.64573979      -0.49662171
H        0.92703542       0.54377358       1.43240038
H        1.92947232       1.13743165       0.09350371
H        1.41165746      -1.79760182       0.51530123
H        1.94269385      -1.04416682      -0.99948165
H       -1.31303050      -1.33891885      -0.39650573
H       -1.49872394       1.20932465       1.18695830
H       -2.34456719       0.85600982      -0.33765969
H       -0.11036916       1.34227638      -1.33174299
14
Frame=3 idx=003584 GeodesicLength=0.15556502182006282 rxn_smarts="[C:1]1([H:7])([H:8])[C:2]([H:9])([H:10])[C@@:3]2([H:11])[O:4][C:5]([H:12])([H:13])[C@@:6]12[H:14]>>[C:1]1([H:7])([H:8])[C:2]([H:9])([H:10])[C:3][C@:6]1([C:5]([O:4][H:11])([H:12])[H:13])[H:14]"
C        1.10573909       0.46883282       0.36304934
C        1.23824238      -0.97470369      -0.17448539
C       -0.13662830      -0.86406408      -0.74843746
O       -1.49828764      -0.78668127       0.63275245
C       -1.48245283       0.60513213       0.27906506
C       -0.18213602       0.64370437      -0.49435397
H        0.93171668       0.53623350       1.43626896
H        1.92208803       1.13598171       0.09094158
H        1.42916843      -1.80042877       0.50935854
H        1.94873759      -1.03491604      -1.00699280
H       -1.32027047      -1.34929595      -0.39771991
H       -1.50331956       1.21733673       1.18396020
H       -2.34663141       0.86595723      -0.34199061
H       -0.10596597       1.33691131      -1.33141597
14
Frame=4 idx=003584 GeodesicLength=0.20730435731274227 rxn_smarts="[C:1]1([H:7])([H:8])[C:2]([H:9])([H:10])[C@@:3]2([H:11])[O:4][C:5]([H:12])([H:13])[C@@:6]12[H:14]>>[C:1]1([H:7])([H:8])[C:2]([H:9])([H:10])[C:3][C@:6]1([C:5]([O:4][H:11])([H:12])[H:13])[H:14]"
C        1.10377315       0.46323251       0.36606428
C        1.24788988      -0.97759667      -0.17841047
C       -0.13448317      -0.86451194      -0.72760743
O       -1.51092786      -0.78021825       0.63225075
C       -1.48826430       0.61013126       0.27796352
C       -0.18512876       0.64155979      -0.49203885
H        0.93646521       0.52870080       1.44018113
H        1.91471820       1.13447168       0.08853361
H        1.44679592      -1.80304805       0.50324894
H        1.95441991      -1.02555221      -1.01464488
H       -1.32724846      -1.35978087      -0.39896429
H       -1.50786480       1.22531722       1.18096699
H       -2.34855859       0.87604157      -0.34642711
H       -0.10158633       1.33125315      -1.33111619
14
Frame=5 idx=003584 GeodesicLength=0.2589584570292166 rxn_smarts="[C:1]1([H:7])([H:8])[C:2]([H:9])([H:10])[C@@:3]2([H:11])[O:4][C:5]([H:12])([H:13])[C@@:6]12[H:14]>>[C:1]1([H:7])([H:8])[C:2]([H:9])([H:10])[C:3][C@:6]1([C:5]([O:4][H:11])([H:12])[H:13])[H:14]"
C        1.10187027       0.45763752       0.36915248
C        1.25741145      -0.98037288      -0.18244681
C       -0.13233101      -0.86498813      -0.70627934
O       -1.52377635      -0.77374398       0.63149600
C       -1.49406015       0.61516674       0.27683165
C       -0.18811031       0.63931448      -0.48967470
H        0.94130601       0.52122762       1.44412492
H        1.90738749       1.13290189       0.08623298
H        1.46445068      -1.80544691       0.49701153
H        1.95972880      -1.01612194      -1.02239499
H       -1.33392925      -1.37036872      -0.40028811
H       -1.51235230       1.23321768       1.17800968
H       -2.35034630       0.88625059      -0.35094422
H       -0.09724903       1.32532605      -1.33083107
14
Frame=6 idx=003584 GeodesicLength=0.31050023990717635 rxn_smarts="[C:1]1([H:7])([H:8])[C:2]([H:9])([H:10])[C@@:3]2([H:11])[O:4][C:5]([H:12])([H:13])[C@@:6]12[H:14]>>[C:1]1([H:7])([H:8])[C:2]([H:9])([H:10])[C:3][C@:6]1([C:5]([O:4][H:11])([H:12])[H:13])[H:14]"
C        1.10003963       0.45206021       0.37228377
C        1.26678500      -0.98303140      -0.18656549
C       -0.13016449      -0.86547191      -0.68449103
O       -1.53683238      -0.76727964       0.63043415
C       -1.49983217       0.62022057       0.27568636
C       -0.19108397       0.63697247      -0.48726494
H        0.94626326       0.51385638       1.44806411
H        1.90010071       1.13126706       0.08398584
H        1.48207213      -1.80760639       0.49071039
H        1.96467698      -1.00666141      -1.03018699
H       -1.34030252      -1.38104654      -0.40173911
H       -1.51676331       1.24097425       1.17512646
H       -2.35198971       0.89659135      -0.35549965
H       -0.09296916       1.31915498      -1.33054389
14
Frame=7 idx=003584 GeodesicLength=0.36194666016453303 rxn_smarts="[C:1]1([H:7])([H:8])[C:2]([H:9])([H:10])[C@@:3]2([H:11])[O:4][C:5]([H:12])([H:13])[C@@:6]12[H:14]>>[C:1]1([H:7])([H:8])[C:2]([H:9])([H:10])[C:3][C@:6]1([C:5]([O:4][H:11])([H:12])[H:13])[H:14]"
C        1.09829233       0.44652345       0.37547574
C        1.27597133      -0.98558153      -0.19076944
C       -0.12798102      -0.86593457      -0.66222059
O       -1.55006624      -0.76083569       0.62905401
C       -1.50557855       0.62528488       0.27452425
C       -0.19404810       0.63453481      -0.48479831
H        0.95135136       0.50662444       1.45202911
H        1.89288215       1.12958388       0.08177388
H        1.49961602      -1.80954331       0.48433383
H        1.96923040      -0.99720550      -1.03802693
H       -1.34631667      -1.39181517      -0.40334458
H       -1.52110815       1.24858046       1.17231803
H       -2.35348606       0.90704811      -0.36009951
H       -0.08875880       1.31273574      -1.33024948
14
Frame=8 idx=003584 GeodesicLength=0.41332077016299723 rxn_smarts="[C:1]1([H:7])([H:8])[C:2]([H:9])([H:10])[C@@:3]2([H:11])[O:4][C:5]([H:12])([H:13])[C@@:6]12[H:14]>>[C:1]1([H:7])([H:8])[C:2]([H:9])([H:10])[C:3][C@:6]1([C:5]([O:4][H:11])([H:12])[H:13])[H:14]"
C        1.09664201       0.44103283       0.37871661
C        1.28493338      -0.98801466      -0.19504032
C       -0.12577358      -0.86636456      -0.63947597
O       -1.56347499      -0.75444636       0.62732850
C       -1.51129847       0.63035542       0.27335424
C       -0.19699983       0.63200593      -0.48227136
H        0.95659926       0.49955004       1.45599305
H        1.88574016       1.12782825       0.07956159
H        1.51704125      -1.81122854       0.47789744
H        1.97336337      -0.98776038      -1.04586772
H       -1.35193248      -1.40270724      -0.40513624
H       -1.52539508       1.25602358       1.16962040
H       -2.35482370       0.91764251      -0.36473655
H       -0.08462129       1.30608318      -1.32994366
14
Frame=9 idx=003584 GeodesicLength=0.46458162741169795 rxn_smarts="[C:1]1([H:7])([H:8])[C:2]([H:9])([H:10])[C@@:3]2([H:11])[O:4][C:5]([H:12])([H:13])[C@@:6]12[H:14]>>[C:1]1([H:7])([H:8])[C:2]([H:9])([H:10])[C:3][C@:6]1([C:5]([O:4][H:11])([H:12])[H:13])[H:14]"
C        1.09509451       0.43561589       0.38198281
C        1.29365041      -0.99034507      -0.19935033
C       -0.12354435      -0.86672899      -0.61628881
O       -1.57703940      -0.74811878       0.62520023
C       -1.51698061       0.63540495       0.27219084
C       -0.19994625       0.62939152      -0.47968393
H        0.96202285       0.49269680       1.45993906
H        1.87868149       1.12602418       0.07728744
H        1.53427370      -1.81267785       0.47147200
H        1.97710174      -0.97838962      -1.05366930
H       -1.35713283      -1.41367611      -0.40717746
H       -1.52959454       1.26322243       1.16706126
H       -2.35600202       0.92836447      -0.36935779
H       -0.08058471       1.29921618      -1.32960601
14
Frame=10 idx=003584 GeodesicLength=0.5157652841890039 rxn_smarts="[C:1]1([H:7])([H:8])[C:2]([H:9])([H:10])[C@@:3]2([H:11])[O:4][C:5]([H:12])([H:13])[C@@:6]12[H:14]>>[C:1]1([H:7])([H:8])[C:2]([H:9])([H:10])[C:3][C@:6]1([C:5]([O:4][H:11])([H:12])[H:13])[H:14]"
C        1.09366768       0.43028816       0.38527597
C        1.30207497      -0.99257449      -0.20368892
C       -0.12128033      -0.86699832      -0.59266743
O       -1.59073719      -0.74188630       0.62264824
C       -1.52262949       0.64042980       0.27103937
C       -0.20288316       0.62670064      -0.47703005
H        0.96765991       0.48609856       1.46387080
H        1.87172910       1.12416007       0.07491886
H        1.55125409      -1.81387909       0.46506283
H        1.98040717      -0.96912589      -1.06140687
H       -1.36185593      -1.42475563      -0.40949403
H       -1.53373618       1.27016795       1.16466764
H       -2.35701962       0.93922054      -0.37396117
H       -0.07665103       1.29215401      -1.32923524
14
Frame=11 idx=003584 GeodesicLength=0.566856973290543 rxn_smarts="[C:1]1([H:7])([H:8])[C:2]([H:9])([H:10])[C@@:3]2([H:11])[O:4][C:5]([H:12])([H:13])[C@@:6]12[H:14]>>[C:1]1([H:7])([H:8])[C:2]([H:9])([H:10])[C:3][C@:6]1([C:5]([O:4][H:11])([H:12])[H:13])[H:14]"
C        1.09236849       0.42507132       0.38857766
C        1.31017943      -0.99471567      -0.20803103
C       -0.11898805      -0.86714611      -0.56863741
O       -1.60454806      -0.73576779       0.61963059
C       -1.52823974       0.64541434       0.26991328
C       -0.20581560       0.62394260      -0.47430767
H        0.97352824       0.47980644       1.46776667
H        1.86489328       1.12224085       0.07240438
H        1.56792259      -1.81484526       0.45871989
H        1.98329374      -0.96001195      -1.06903995
H       -1.36606778      -1.43593047      -0.41213908
H       -1.53780918       1.27681193       1.16247344
H       -2.35787613       0.95021229      -0.37851109
H       -0.07284123       1.28491749      -1.32881969
14
Frame=12 idx=003584 GeodesicLength=0.6178511747699724 rxn_smarts="[C:1]1([H:7])([H:8])[C:2]([H:9])([H:10])[C@@:3]2([H:11])[O:4][C:5]([H:12])([H:13])[C@@:6]12[H:14]>>[C:1]1([H:7])([H:8])[C:2]([H:9])([H:10])[C:3][C@:6]1([C:5]([O:4][H:11])([H:12])[H:13])[H:14]"
C        1.09120643       0.41998545       0.39187153
C        1.31793109      -0.99677809      -0.21235342
C       -0.11666584      -0.86714439      -0.54422727
O       -1.61844733      -0.72978475       0.61611024
C       -1.53380812       0.65034376       0.26882570
C       -0.20874635       0.62112737      -0.47151563
H        0.97965195       0.47386923       1.47160849
H        1.85818660       1.12026544       0.06969582
H        1.58421040      -1.81557885       0.45248673
H        1.98576254      -0.95109342      -1.07652730
H       -1.36972388      -1.44719107      -0.41516150
H       -1.54181240       1.28310918       1.16051360
H       -2.35857271       0.96134117      -0.38297495
H       -0.06917237       1.27752895      -1.32835203
14
Frame=13 idx=003584 GeodesicLength=0.6687688212041611 rxn_smarts="[C:1]1([H:7])([H:8])[C:2]([H:9])([H:10])[C@@:3]2([H:11])[O:4][C:5]([H:12])([H:13])[C@@:6]12[H:14]>>[C:1]1([H:7])([H:8])[C:2]([H:9])([H:10])[C:3][C@:6]1([C:5]([O:4][H:11])([H:12])[H:13])[H:14]"
C        1.09018633       0.41504859       0.39515038
C        1.32529577      -0.99877804      -0.21663467
C       -0.11432800      -0.86696351      -0.51944632
O       -1.63242069      -0.72395705       0.61205128
C       -1.53933412       0.65521241       0.26778671
C       -0.21167731       0.61826442      -0.46864614
H        0.98605201       0.46832513       1.47538759
H        1.85160985       1.11823699       0.06675091
H        1.60008700      -1.81609645       0.44639504
H        1.98781537      -0.94240296      -1.08385342
H       -1.37277804      -1.45854958      -0.41860142
H       -1.54575342       1.28903967       1.15881552
H       -2.35910033       0.97261989      -0.38733164
H       -0.06565442       1.27000048      -1.32782382
14
Frame=14 idx=003584 GeodesicLength=0.7195890009015843 rxn_smarts="[C:1]1([H:7])([H:8])[C:2]([H:9])([H:10])[C@@:3]2([H:11])[O:4][C:5]([H:12])([H:13])[C@@:6]12[H:14]>>[C:1]1([H:7])([H:8])[C:2]([H:9])([H:10])[C:3][C@:6]1([C:5]([O:4][H:11])([H:12])[H:13])[H:14]"
C        1.08932471       0.41028247       0.39839662
C        1.33224185      -1.00071756      -0.22085641
C       -0.11195216      -0.86657376      -0.49433653
O       -1.64642521      -0.71830532       0.60741686
C       -1.54481844       0.66000160       0.26680713
C       -0.21460895       0.61537009      -0.46570210
H        0.99276323       0.46322637       1.47908559
H        1.84519245       1.11614720       0.06352752
H        1.61544929      -1.81638822       0.44048378
H        1.98943088      -0.93400604      -1.09096297
H       -1.37517061      -1.46998777      -0.42249620
H       -1.54964710       1.29454315       1.15741151
H       -2.35947508       0.98404143      -0.39154219
H       -0.06230486       1.26236635      -1.32723261
14
Frame=15 idx=003584 GeodesicLength=0.7703353190410154 rxn_smarts="[C:1]1([H:7])([H:8])[C:2]([H:9])([H:10])[C@@:3]2([H:11])[O:4][C:5]([H:12])([H:13])[C@@:6]12[H:14]>>[C:1]1([H:7])([H:8])[C:2]([H:9])([H:10])[C:3][C@:6]1([C:5]([O:4][H:11])([H:12])[H:13])[H:14]"
C        1.08862265       0.40570141       0.40159477
C        1.33874187      -1.00261727      -0.22498976
C       -0.10956291      -0.86594867      -0.46891775
O       -1.66045235      -0.71284873       0.60217808
C       -1.55026294       0.66470847       0.26590127
C       -0.21754626       0.61245709      -0.46267794
H        0.99980200       0.45860478       1.48268111
H        1.83893080       1.11399271       0.05997856
H        1.63027683      -1.81647552       0.43480007
H        1.99063353      -0.92592886      -1.09784001
H       -1.37686018      -1.48151321      -0.42689146
H       -1.55349628       1.29960235       1.15633605
H       -2.35969269       0.99561900      -0.39558205
H       -0.05913405       1.25464645      -1.32657094
14
Frame=16 idx=003584 GeodesicLength=0.8210146698388213 rxn_smarts="[C:1]1([H:7])([H:8])[C:2]([H:9])([H:10])[C@@:3]2([H:11])[O:4][C:5]([H:12])([H:13])[C@@:6]12[H:14]>>[C:1]1([H:7])([H:8])[C:2]([H:9])([H:10])[C:3][C@:6]1([C:5]([O:4][H:11])([H:12])[H:13])[H:14]"
C        1.08808434       0.40132069       0.40474375
C        1.34476880      -1.00449272      -0.22902436
C       -0.10716199      -0.86506191      -0.44319631
O       -1.67447732      -0.70758971       0.59630529
C       -1.55567075       0.66932673       0.26507300
C       -0.22049139       0.60953300      -0.45956942
H        1.00718609       0.45449106       1.48617443
H        1.83283062       1.11177853       0.05608189
H        1.64453361      -1.81637836       0.42935396
H        1.99141147      -0.91820509      -1.10447341
H       -1.37779090      -1.49311940      -0.43179961
H       -1.55731613       1.30419132       1.15560338
H       -2.35975432       1.00735853      -0.39943557
H       -0.05615212       1.24684733      -1.32583703
