10
Frame=0 idx=003939 GeodesicLength=0.0 rxn_smarts="[O:1]=[C:2]([N:3]([C:4]([C:5]#[N:6])([H:9])[H:10])[H:8])[H:7]>>[O:1](/[C:2](=[N:3]/[H:8])[H:7])[C:5]1=[N:6][C:4]1([H:9])[H:10]"
O       -0.43810907       0.68960810      -1.22138162
C       -1.24263317      -0.12212154      -0.57880488
N       -0.89146864      -0.73804254       0.48326212
C        1.04876258       0.00032089       0.63114625
C        0.87160394       0.76988524      -0.54314586
N        1.89024224       1.38037082      -0.77578544
H       -2.22686785      -0.21010921      -1.04468919
H       -1.60467943      -1.33391638       0.88196861
H        0.98980053       0.49079959       1.59366277
H        1.60334886      -0.92679497       0.57376725
10
Frame=1 idx=003939 GeodesicLength=0.07854091952892503 rxn_smarts="[O:1]=[C:2]([N:3]([C:4]([C:5]#[N:6])([H:9])[H:10])[H:8])[H:7]>>[O:1](/[C:2](=[N:3]/[H:8])[H:7])[C:5]1=[N:6][C:4]1([H:9])[H:10]"
O       -0.46831607       0.72414377      -1.20356642
C       -1.26585102      -0.09118417      -0.56009310
N       -0.88483378      -0.74239393       0.47241707
C        1.04536901       0.00719393       0.63382746
C        0.88810499       0.75378817      -0.55924992
N        1.92253782       1.33589407      -0.78689879
H       -2.24259276      -0.20923844      -1.03506030
H       -1.57256687      -1.38361772       0.84428637
H        0.97207376       0.52337872       1.58242273
H        1.60607493      -0.91796439       0.61191491
10
Frame=2 idx=003939 GeodesicLength=0.15711092014090774 rxn_smarts="[O:1]=[C:2]([N:3]([C:4]([C:5]#[N:6])([H:9])[H:10])[H:8])[H:7]>>[O:1](/[C:2](=[N:3]/[H:8])[H:7])[C:5]1=[N:6][C:4]1([H:9])[H:10]"
O       -0.49800205       0.75812013      -1.18376490
C       -1.28736781      -0.06452088      -0.54239962
N       -0.87876594      -0.74554846       0.46243198
C        1.04227764       0.01407989       0.63641414
C        0.90319229       0.73720814      -0.57472533
N        1.95243092       1.29101878      -0.79739250
H       -2.25743875      -0.20732470      -1.02450405
H       -1.53984086      -1.43013675       0.80388976
H        0.95559594       0.55554233       1.57031367
H        1.60791863      -0.90843847       0.64973685
10
Frame=3 idx=003939 GeodesicLength=0.2352799833322789 rxn_smarts="[O:1]=[C:2]([N:3]([C:4]([C:5]#[N:6])([H:9])[H:10])[H:8])[H:7]>>[O:1](/[C:2](=[N:3]/[H:8])[H:7])[C:5]1=[N:6][C:4]1([H:9])[H:10]"
O       -0.52680234       0.79064688      -1.16289286
C       -1.30664777      -0.04324868      -0.52732202
N       -0.87277125      -0.74821936       0.45255642
C        1.03958170       0.02034464       0.63840559
C        0.91659855       0.72185519      -0.58855729
N        1.97949644       1.24774528      -0.80575549
H       -2.27117225      -0.20588907      -1.01440728
H       -1.50827942      -1.46946941       0.76529588
H        0.94072506       0.58502822       1.55783004
H        1.60927127      -0.89879368       0.68484701
10
Frame=4 idx=003939 GeodesicLength=0.31353151876769003 rxn_smarts="[O:1]=[C:2]([N:3]([C:4]([C:5]#[N:6])([H:9])[H:10])[H:8])[H:7]>>[O:1](/[C:2](=[N:3]/[H:8])[H:7])[C:5]1=[N:6][C:4]1([H:9])[H:10]"
O       -0.55415258       0.81974104      -1.14324937
C       -1.32480328      -0.02484737      -0.51330821
N       -0.86709349      -0.75023357       0.44322402
C        1.03718965       0.02639548       0.64019881
C        0.92906435       0.70746493      -0.60120681
N        2.00474154       1.20578421      -0.81233691
H       -2.28530839      -0.20332277      -1.00307672
H       -1.47677230      -1.50526746       0.72609391
H        0.92696788       0.61300568       1.54513585
H        1.61016662      -0.88872018       0.71852541
10
Frame=5 idx=003939 GeodesicLength=0.39168880260183164 rxn_smarts="[O:1]=[C:2]([N:3]([C:4]([C:5]#[N:6])([H:9])[H:10])[H:8])[H:7]>>[O:1](/[C:2](=[N:3]/[H:8])[H:7])[C:5]1=[N:6][C:4]1([H:9])[H:10]"
O       -0.58038620       0.84555944      -1.12497082
C       -1.34244169      -0.00779987      -0.49916447
N       -0.86216697      -0.75082589       0.43525037
C        1.03472714       0.03262999       0.64214743
C        0.94091300       0.69313513      -0.61305397
N        2.02871741       1.16343011      -0.81784364
H       -2.30036329      -0.19911050      -0.98937512
H       -1.44294126      -1.53997887       0.68289630
H        0.91390927       0.64090141       1.53194791
H        1.61003260      -0.87794095       0.75216602
10
Frame=6 idx=003939 GeodesicLength=0.4698007858395543 rxn_smarts="[O:1]=[C:2]([N:3]([C:4]([C:5]#[N:6])([H:9])[H:10])[H:8])[H:7]>>[O:1](/[C:2](=[N:3]/[H:8])[H:7])[C:5]1=[N:6][C:4]1([H:9])[H:10]"
O       -0.60636291       0.87012141      -1.10675254
C       -1.35939701       0.00714198      -0.48595951
N       -0.85751242      -0.75086581       0.42768664
C        1.03257059       0.03829942       0.64367240
C        0.95214387       0.67991696      -0.62383010
N        2.05127307       1.12235779      -0.82163761
H       -2.31466291      -0.19656083      -0.97662695
H       -1.40977874      -1.56974733       0.64108806
H        0.90231457       0.66670247       1.51870239
H        1.60941189      -0.86736604       0.78365723
10
Frame=7 idx=003939 GeodesicLength=0.5478724975274057 rxn_smarts="[O:1]=[C:2]([N:3]([C:4]([C:5]#[N:6])([H:9])[H:10])[H:8])[H:7]>>[O:1](/[C:2](=[N:3]/[H:8])[H:7])[C:5]1=[N:6][C:4]1([H:9])[H:10]"
O       -0.63224463       0.89372195      -1.08843920
C       -1.37571318       0.02020926      -0.47362648
N       -0.85271033      -0.75097610       0.41983695
C        1.03071365       0.04347283       0.64475426
C        0.96305300       0.66763519      -0.63379399
N        2.07270509       1.08244817      -0.82387562
H       -2.32838083      -0.19528677      -0.96456524
H       -1.37766690      -1.59504933       0.60103755
H        0.89167364       0.69067018       1.50528922
H        1.60857049      -0.85684539       0.81338255
10
Frame=8 idx=003939 GeodesicLength=0.6259457021324951 rxn_smarts="[O:1]=[C:2]([N:3]([C:4]([C:5]#[N:6])([H:9])[H:10])[H:8])[H:7]>>[O:1](/[C:2](=[N:3]/[H:8])[H:7])[C:5]1=[N:6][C:4]1([H:9])[H:10]"
O       -0.65798120       0.91599813      -1.07043652
C       -1.39162123       0.03206423      -0.46152241
N       -0.84779890      -0.75115893       0.41181352
C        1.02898439       0.04851058       0.64567016
C        0.97394175       0.65560581      -0.64330529
N        2.09341500       1.04278235      -0.82497537
H       -2.34234924      -0.19402083      -0.95171054
H       -1.34536330      -1.61776040       0.56040978
H        0.88142865       0.71390562       1.49148055
H        1.60734408      -0.84592658       0.84257612
10
Frame=9 idx=003939 GeodesicLength=0.7040744672359963 rxn_smarts="[O:1]=[C:2]([N:3]([C:4]([C:5]#[N:6])([H:9])[H:10])[H:8])[H:7]>>[O:1](/[C:2](=[N:3]/[H:8])[H:7])[C:5]1=[N:6][C:4]1([H:9])[H:10]"
O       -0.68376372       0.93726592      -1.05251116
C       -1.40724334       0.04292670      -0.44947640
N       -0.84278632      -0.75139937       0.40359067
C        1.02734125       0.05348629       0.64647605
C        0.98491709       0.64359184      -0.65248528
N        2.11355115       1.00297773      -0.82511615
H       -2.35662388      -0.19278030      -0.93799195
H       -1.31255803      -1.63824380       0.51876696
H        0.87150219       0.73668721       1.47718509
H        1.60566362      -0.83451223       0.87156216
10
Frame=10 idx=003939 GeodesicLength=0.7822711678548044 rxn_smarts="[O:1]=[C:2]([N:3]([C:4]([C:5]#[N:6])([H:9])[H:10])[H:8])[H:7]>>[O:1](/[C:2](=[N:3]/[H:8])[H:7])[C:5]1=[N:6][C:4]1([H:9])[H:10]"
O       -0.70977064       0.95785161      -1.03437434
C       -1.42261528       0.05284399      -0.43747605
N       -0.83758362      -0.75177566       0.39499929
C        1.02579000       0.05840625       0.64714980
C        0.99604564       0.63158352      -0.66137002
N        2.13319612       0.96289904      -0.82437013
H       -2.37107818      -0.19180497      -0.92361502
H       -1.27940258      -1.65644806       0.47632944
H        0.86189571       0.75903564       1.46237621
H        1.60352282      -0.82259137       0.90035083
10
Frame=11 idx=003939 GeodesicLength=0.8605232208137983 rxn_smarts="[O:1]=[C:2]([N:3]([C:4]([C:5]#[N:6])([H:9])[H:10])[H:8])[H:7]>>[O:1](/[C:2](=[N:3]/[H:8])[H:7])[C:5]1=[N:6][C:4]1([H:9])[H:10]"
O       -0.73613737       0.97790054      -1.01586873
C       -1.43779210       0.06190487      -0.42542120
N       -0.83224719      -0.75217476       0.38618143
C        1.02431936       0.06330236       0.64768750
C        1.00738071       0.61955626      -0.66999578
N        2.15241302       0.92239768      -0.82278370
H       -2.38557615      -0.19134411      -0.90870858
H       -1.24588194      -1.67238576       0.43294429
H        0.85270030       0.78102826       1.44704123
H        1.60082137      -0.81018535       0.92892355
10
Frame=12 idx=003939 GeodesicLength=0.9388786567884339 rxn_smarts="[O:1]=[C:2]([N:3]([C:4]([C:5]#[N:6])([H:9])[H:10])[H:8])[H:7]>>[O:1](/[C:2](=[N:3]/[H:8])[H:7])[C:5]1=[N:6][C:4]1([H:9])[H:10]"
O       -0.76296319       0.99753136      -0.99686152
C       -1.45283591       0.07017526      -0.41326785
N       -0.82679120      -0.75258123       0.37709945
C        1.02290693       0.06819762       0.64811391
C        1.01899411       0.60730996      -0.67843650
N        2.17124239       0.88129690      -0.82039172
H       -2.40019723      -0.19134927      -0.89319822
H       -1.21175472      -1.68616530       0.38837576
H        0.84387776       0.80280360       1.43110107
H        1.59752107      -0.79721890       0.95746563
10
Frame=13 idx=003939 GeodesicLength=1.017282319733723 rxn_smarts="[O:1]=[C:2]([N:3]([C:4]([C:5]#[N:6])([H:9])[H:10])[H:8])[H:7]>>[O:1](/[C:2](=[N:3]/[H:8])[H:7])[C:5]1=[N:6][C:4]1([H:9])[H:10]"
O       -0.79045451       1.01715194      -0.97687425
C       -1.46774033       0.07753130      -0.40123553
N       -0.82116464      -0.75292874       0.36769159
C        1.02164141       0.07298305       0.64828557
C        1.03089025       0.59517033      -0.68665284
N        2.18965559       0.83990151      -0.81718134
H       -2.41439299      -0.19251593      -0.87806854
H       -1.17786029      -1.69735895       0.34391353
H        0.83573291       0.82401205       1.41469162
H        1.59369260      -0.78394657       0.98543018
10
Frame=14 idx=003939 GeodesicLength=1.095798961433087 rxn_smarts="[O:1]=[C:2]([N:3]([C:4]([C:5]#[N:6])([H:9])[H:10])[H:8])[H:7]>>[O:1](/[C:2](=[N:3]/[H:8])[H:7])[C:5]1=[N:6][C:4]1([H:9])[H:10]"
O       -0.81864504       1.03662081      -0.95594763
C       -1.48256811       0.08411477      -0.38908527
N       -0.81537115      -0.75325269       0.35795945
C        1.02044847       0.07780406       0.64829968
C        1.04316194       0.58283103      -0.69472924
N        2.20774413       0.79772288      -0.81321685
H       -2.42847478      -0.19446533      -0.86271076
H       -1.14358399      -1.70632311       0.29849936
H        0.82808112       0.84505848       1.39764576
H        1.58920742      -0.77011091       1.01328550
10
Frame=15 idx=003939 GeodesicLength=1.1744668254829842 rxn_smarts="[O:1]=[C:2]([N:3]([C:4]([C:5]#[N:6])([H:9])[H:10])[H:8])[H:7]>>[O:1](/[C:2](=[N:3]/[H:8])[H:7])[C:5]1=[N:6][C:4]1([H:9])[H:10]"
O       -0.84762323       1.05597547      -0.93393768
C       -1.49734933       0.08994188      -0.37677883
N       -0.80938021      -0.75356588       0.34781933
C        1.01931837       0.08269254       0.64816049
C        1.05587605       0.57017339      -0.70270075
N        2.22553057       0.75460811      -0.80848644
H       -2.44247552      -0.19718356      -0.84707467
H       -1.10882881      -1.71305448       0.25198887
H        0.82090519       0.86604042       1.37988537
H        1.58402691      -0.75562789       1.04112431
10
Frame=16 idx=003939 GeodesicLength=1.253264049769981 rxn_smarts="[O:1]=[C:2]([N:3]([C:4]([C:5]#[N:6])([H:9])[H:10])[H:8])[H:7]>>[O:1](/[C:2](=[N:3]/[H:8])[H:7])[C:5]1=[N:6][C:4]1([H:9])[H:10]"
O       -0.87753218       1.07537055      -0.91052515
C       -1.51210244       0.09496208      -0.36438835
N       -0.80319182      -0.75378370       0.33729485
C        1.01828747       0.08762915       0.64779839
C        1.06906749       0.55730405      -0.71057049
N        2.24299824       0.71060899      -0.80297945
H       -2.45612456      -0.20098604      -0.83164955
H       -1.07392615      -1.71738056       0.20487430
H        0.81438143       0.88686573       1.36143904
H        1.57814254      -0.74059025       1.06870640
