19
Frame=0 idx=009932 GeodesicLength=0.0 rxn_smarts="[C:1]([C:2]([C:3]([C:4]1([H:15])[C:5]([H:16])([H:17])[O:6][C:7]1([H:18])[H:19])([H:13])[H:14])([H:11])[H:12])([H:8])([H:9])[H:10]>>[C:1]([C:2]([C@:3]1([H:14])[C@:4]2([H:15])[C@@:5]1([H:17])[O:6][C:7]2([H:18])[H:19])([H:11])[H:12])([H:8])([H:9])[H:10].[H:13][H:16]"
C        2.69896890       0.02637233       0.13937111
C        1.39480853      -0.44285957       0.77388794
C        0.17983290       0.26090154       0.25238148
C       -1.10117229      -0.33035044       0.13800366
C       -1.74734627       0.09511841      -1.17204993
O       -3.07458648       0.18973587      -0.69368071
C       -2.48141623       0.30013646       0.59018237
H        2.70665732      -0.19072113      -0.93065227
H        2.82829124       1.10446797       0.26033666
H        3.55945909      -0.46559149       0.59575215
H        1.45213654      -0.27197370       1.85898840
H        1.28339535      -1.52181861       0.63998956
H        0.32792272      -0.26406341      -1.57533758
H        0.22752496       1.34613379       0.21627668
H       -1.12952429      -1.41001196       0.28064513
H       -0.34675590      -0.52562450      -1.99599448
H       -1.40762976       1.04335897      -1.61350736
H       -2.36517332       1.34252294       0.89111055
H       -3.00539310      -0.28573344       1.34429658
19
Frame=1 idx=009932 GeodesicLength=0.10541625742641327 rxn_smarts="[C:1]([C:2]([C:3]([C:4]1([H:15])[C:5]([H:16])([H:17])[O:6][C:7]1([H:18])[H:19])([H:13])[H:14])([H:11])[H:12])([H:8])([H:9])[H:10]>>[C:1]([C:2]([C@:3]1([H:14])[C@:4]2([H:15])[C@@:5]1([H:17])[O:6][C:7]2([H:18])[H:19])([H:11])[H:12])([H:8])([H:9])[H:10].[H:13][H:16]"
C        2.69525153       0.04298144       0.14232155
C        1.38908684      -0.45003644       0.75416337
C        0.17427215       0.25898800       0.23607714
C       -1.11068061      -0.34049742       0.15919315
C       -1.73088105       0.07951289      -1.16291568
O       -3.05869507       0.21266003      -0.69202715
C       -2.47749107       0.31648337       0.59890566
H        2.71106218      -0.13696071      -0.93449813
H        2.82078709       1.11685373       0.29960907
H        3.55496668      -0.46153355       0.58633896
H        1.43786441      -0.30738124       1.84341247
H        1.28518994      -1.52611081       0.59281068
H        0.34510435      -0.28065444      -1.58209879
H        0.21911916       1.34511491       0.23405126
H       -1.14285253      -1.41692749       0.32083322
H       -0.34699617      -0.56080838      -2.00645721
H       -1.39041543       1.01061861      -1.63748146
H       -2.35242046       1.35745669       0.90174779
H       -3.02227196      -0.25975918       1.34601411
19
Frame=2 idx=009932 GeodesicLength=0.21047295835430702 rxn_smarts="[C:1]([C:2]([C:3]([C:4]1([H:15])[C:5]([H:16])([H:17])[O:6][C:7]1([H:18])[H:19])([H:13])[H:14])([H:11])[H:12])([H:8])([H:9])[H:10]>>[C:1]([C:2]([C@:3]1([H:14])[C@:4]2([H:15])[C@@:5]1([H:17])[O:6][C:7]2([H:18])[H:19])([H:11])[H:12])([H:8])([H:9])[H:10].[H:13][H:16]"
C        2.69114369       0.05832846       0.14535726
C        1.38311331      -0.45653489       0.73468652
C        0.16856558       0.25792252       0.21983773
C       -1.11963717      -0.34945726       0.18046794
C       -1.71440578       0.06355147      -1.15353079
O       -3.04203117       0.23380827      -0.69053048
C       -2.47336401       0.33212739       0.60749596
H        2.71439682      -0.08505487      -0.93682202
H        2.81327778       1.12686100       0.33787419
H        3.55008831      -0.45844071       0.57664650
H        1.42397170      -0.34140137       1.82717660
H        1.28596163      -1.52906488       0.54685761
H        0.36308343      -0.29398745      -1.58953947
H        0.21130741       1.34394931       0.25159622
H       -1.15473364      -1.42233133       0.36125648
H       -0.34702340      -0.59416083      -2.01740083
H       -1.37490912       0.97682112      -1.66102437
H       -2.34054131       1.37173697       0.91236954
H       -3.03826409      -0.23467291       1.34722541
19
Frame=3 idx=009932 GeodesicLength=0.31531108501132754 rxn_smarts="[C:1]([C:2]([C:3]([C:4]1([H:15])[C:5]([H:16])([H:17])[O:6][C:7]1([H:18])[H:19])([H:13])[H:14])([H:11])[H:12])([H:8])([H:9])[H:10]>>[C:1]([C:2]([C@:3]1([H:14])[C@:4]2([H:15])[C@@:5]1([H:17])[O:6][C:7]2([H:18])[H:19])([H:11])[H:12])([H:8])([H:9])[H:10].[H:13][H:16]"
C        2.68670742       0.07250537       0.14849084
C        1.37690117      -0.46244234       0.71543679
C        0.16271281       0.25763455       0.20372529
C       -1.12805449      -0.35727759       0.20180505
C       -1.69794432       0.04720974      -1.14391096
O       -3.02469736       0.25321391      -0.68915686
C       -2.46907085       0.34716613       0.61593908
H        2.71683033      -0.03482461      -0.93771202
H        2.80579487       1.13466771       0.37528070
H        3.54486117      -0.45624344       0.56667614
H        1.41040816      -0.37422977       1.81035157
H        1.28576436      -1.53082859       0.50195527
H        0.38182558      -0.30403961      -1.59760017
H        0.20408854       1.34259134       0.26882927
H       -1.16523831      -1.42625059       0.40197604
H       -0.34687647      -0.62590820      -2.02880538
H       -1.36109043       0.94190018      -1.68412765
H       -2.32950683       1.38549626       0.92286633
H       -3.05341535      -0.21034043       1.34798066
19
Frame=4 idx=009932 GeodesicLength=0.42008078155801976 rxn_smarts="[C:1]([C:2]([C:3]([C:4]1([H:15])[C:5]([H:16])([H:17])[O:6][C:7]1([H:18])[H:19])([H:13])[H:14])([H:11])[H:12])([H:8])([H:9])[H:10]>>[C:1]([C:2]([C@:3]1([H:14])[C@:4]2([H:15])[C@@:5]1([H:17])[O:6][C:7]2([H:18])[H:19])([H:11])[H:12])([H:8])([H:9])[H:10].[H:13][H:16]"
C        2.68199661       0.08559080       0.15173108
C        1.37046839      -0.46782839       0.69640505
C        0.15671650       0.25806835       0.18780313
C       -1.13594435      -0.36400659       0.22317422
C       -1.68150789       0.03047309      -1.13406866
O       -3.00679010       0.27092337      -0.68789041
C       -2.46464131       0.36167595       0.62421642
H        2.71850653       0.01384151      -0.93722798
H        2.79835890       1.14040665       0.41190788
H        3.53932561      -0.45486377       0.55644191
H        1.39714492      -0.40602530       1.79299705
H        1.28464632      -1.53151564       0.45796359
H        0.40128873      -0.31074637      -1.60622409
H        0.19745403       1.34101723       0.28569557
H       -1.17442441      -1.42870546       0.44302754
H       -0.34661005      -0.65628668      -2.04064854
H       -1.34892487       0.90582030      -1.70675475
H       -2.31929446       1.39883285       0.93314936
H       -3.06776911      -0.18667189       1.34830163
19
Frame=5 idx=009932 GeodesicLength=0.5249762377152293 rxn_smarts="[C:1]([C:2]([C:3]([C:4]1([H:15])[C:5]([H:16])([H:17])[O:6][C:7]1([H:18])[H:19])([H:13])[H:14])([H:11])[H:12])([H:8])([H:9])[H:10]>>[C:1]([C:2]([C@:3]1([H:14])[C@:4]2([H:15])[C@@:5]1([H:17])[O:6][C:7]2([H:18])[H:19])([H:11])[H:12])([H:8])([H:9])[H:10].[H:13][H:16]"
C        2.67706384       0.09767246       0.15510349
C        1.36383172      -0.47275942       0.67755360
C        0.15058303       0.25917345       0.17211400
C       -1.14332084      -0.36969255       0.24454697
C       -1.66511614       0.01333130      -1.12401158
O       -2.98839392       0.28700283      -0.68670591
C       -2.46009737       0.37573834       0.63230907
H        2.71957936       0.06112797      -0.93541013
H        2.79098772       1.14419751       0.44791339
H        3.53351962      -0.45423938       0.54595498
H        1.38414887      -0.43697263       1.77512704
H        1.28266275      -1.53121319       0.41470523
H        0.42142168      -0.31406353      -1.61536338
H        0.19139228       1.33921389       0.30213139
H       -1.18234430      -1.42971254       0.48444786
H       -0.34633172      -0.68559974      -2.05289240
H       -1.33835735       0.86851492      -1.72886667
H       -2.30986485       1.41184539       0.94313335
H       -3.08136439      -0.16356508       1.34820971
19
Frame=6 idx=009932 GeodesicLength=0.6300179814756527 rxn_smarts="[C:1]([C:2]([C:3]([C:4]1([H:15])[C:5]([H:16])([H:17])[O:6][C:7]1([H:18])[H:19])([H:13])[H:14])([H:11])[H:12])([H:8])([H:9])[H:10]>>[C:1]([C:2]([C@:3]1([H:14])[C@:4]2([H:15])[C@@:5]1([H:17])[O:6][C:7]2([H:18])[H:19])([H:11])[H:12])([H:8])([H:9])[H:10].[H:13][H:16]"
C        2.67194367       0.10880348       0.15861124
C        1.35700849      -0.47728306       0.65886227
C        0.14431910       0.26091114       0.15671249
C       -1.15020099      -0.37438358       0.26589745
C       -1.64876010      -0.00420622      -1.11374827
O       -2.96957237       0.30151070      -0.68561199
C       -2.45546289       0.38940493       0.64019054
H        2.72013125       0.10712970      -0.93229678
H        2.78369031       1.14613354       0.48334943
H        3.52747296      -0.45431253       0.53521125
H        1.37141664      -0.46718845       1.75676349
H        1.27985135      -1.52998185       0.37206859
H        0.44216479      -0.31394516      -1.62494554
H        0.18588384       1.33719599       0.31811391
H       -1.18904501      -1.42928540       0.52624005
H       -0.34609695      -0.71408385      -2.06548215
H       -1.32930298       0.82995692      -1.75038856
H       -2.30119496       1.42459566       0.95275495
H       -3.09424616      -0.14097196       1.34769765
19
Frame=7 idx=009932 GeodesicLength=0.7353361986124533 rxn_smarts="[C:1]([C:2]([C:3]([C:4]1([H:15])[C:5]([H:16])([H:17])[O:6][C:7]1([H:18])[H:19])([H:13])[H:14])([H:11])[H:12])([H:8])([H:9])[H:10]>>[C:1]([C:2]([C@:3]1([H:14])[C@:4]2([H:15])[C@@:5]1([H:17])[O:6][C:7]2([H:18])[H:19])([H:11])[H:12])([H:8])([H:9])[H:10].[H:13][H:16]"
C        2.66667315       0.11905091       0.16226642
C        1.35001979      -0.48144245       0.64028942
C        0.13793632       0.26325331       0.14163379
C       -1.15660194      -0.37812713       0.28720306
C       -1.63243531      -0.02214181      -1.10327985
O       -2.95036792       0.31453531      -0.68460986
C       -2.45075969       0.40273244       0.64783030
H        2.72025899       0.15200423      -0.92790784
H        2.77647789       1.14628784       0.51833125
H        3.52121688      -0.45503808       0.52419349
H        1.35893658      -0.49682162       1.73788725
H        1.27625837      -1.52785039       0.32989421
H        0.46344627      -0.31032189      -1.63488564
H        0.18090533       1.33498110       0.33363171
H       -1.19456923      -1.42743061       0.56841137
H       -0.34602249      -0.74207175      -2.07833850
H       -1.32165157       0.79008461      -1.77124791
H       -2.29325347       1.43714815       0.96195271
H       -3.10646796      -0.11883217       1.34674460
19
Frame=8 idx=009932 GeodesicLength=0.8409667111166439 rxn_smarts="[C:1]([C:2]([C:3]([C:4]1([H:15])[C:5]([H:16])([H:17])[O:6][C:7]1([H:18])[H:19])([H:13])[H:14])([H:11])[H:12])([H:8])([H:9])[H:10]>>[C:1]([C:2]([C@:3]1([H:14])[C@:4]2([H:15])[C@@:5]1([H:17])[O:6][C:7]2([H:18])[H:19])([H:11])[H:12])([H:8])([H:9])[H:10].[H:13][H:16]"
C        2.66128159       0.12846804       0.16607145
C        1.34288534      -0.48527102       0.62180858
C        0.13143988       0.26617026       0.12690883
C       -1.16254345      -0.38096872       0.30843741
C       -1.61612474      -0.04044373      -1.09261336
O       -2.93080947       0.32618182      -0.68372152
C       -2.44600376       0.41575513       0.65520383
H        2.72002847       0.19583822      -0.92224717
H        2.76935112       1.14472369       0.55290153
H        3.51478330      -0.45634400       0.51290162
H        1.34671299      -0.52596586       1.71849453
H        1.27192935      -1.52485320       0.28808620
H        0.48517958      -0.30314338      -1.64512480
H        0.17643809       1.33260254       0.34869491
H       -1.19896002      -1.42415533       0.61092766
H       -0.34623236      -0.76987828      -2.09139617
H       -1.31527087       0.74888232      -1.79135950
H       -2.28600471       1.44953549       0.97070525
H       -3.11808034      -0.09713398       1.34532074
19
Frame=9 idx=009932 GeodesicLength=0.9468077042926736 rxn_smarts="[C:1]([C:2]([C:3]([C:4]1([H:15])[C:5]([H:16])([H:17])[O:6][C:7]1([H:18])[H:19])([H:13])[H:14])([H:11])[H:12])([H:8])([H:9])[H:10]>>[C:1]([C:2]([C@:3]1([H:14])[C@:4]2([H:15])[C@@:5]1([H:17])[O:6][C:7]2([H:18])[H:19])([H:11])[H:12])([H:8])([H:9])[H:10].[H:13][H:16]"
C        2.65571078       0.13708463       0.16982653
C        1.33561704      -0.48880438       0.60338719
C        0.12484731       0.26966512       0.11267683
C       -1.16808961      -0.38297437       0.32962033
C       -1.59964264      -0.05911888      -1.08172618
O       -2.91082441       0.33651307      -0.68308615
C       -2.44126046       0.42847731       0.66220990
H        2.71918572       0.23873085      -0.91559253
H        2.76234875       1.14144775       0.58700663
H        3.50817655      -0.45821065       0.50099548
H        1.33477726      -0.55470452       1.69856570
H        1.26685711      -1.52102537       0.24665866
H        0.50718481      -0.29214656      -1.65524900
H        0.17240249       1.33017706       0.36364468
H       -1.20236832      -1.41945502       0.65379349
H       -0.34657374      -0.79788626      -2.10435399
H       -1.30957066       0.70633753      -1.81054842
H       -2.27951511       1.46180337       0.97890527
H       -3.12926287      -0.07591070       1.34326558
19
Frame=10 idx=009932 GeodesicLength=1.053117812732745 rxn_smarts="[C:1]([C:2]([C:3]([C:4]1([H:15])[C:5]([H:16])([H:17])[O:6][C:7]1([H:18])[H:19])([H:13])[H:14])([H:11])[H:12])([H:8])([H:9])[H:10]>>[C:1]([C:2]([C@:3]1([H:14])[C@:4]2([H:15])[C@@:5]1([H:17])[O:6][C:7]2([H:18])[H:19])([H:11])[H:12])([H:8])([H:9])[H:10].[H:13][H:16]"
C        2.65006781       0.14497576       0.17372370
C        1.32823147      -0.49205790       0.58496498
C        0.11816589       0.27371800       0.09885477
C       -1.17321163      -0.38415267       0.35069889
C       -1.58311686      -0.07812979      -1.07062580
O       -2.89049562       0.34567315      -0.68261360
C       -2.43650111       0.44096404       0.66888605
H        2.71811698       0.28083085      -0.90767534
H        2.75545501       1.13652131       0.62085383
H        3.50143102      -0.46055320       0.48873995
H        1.32306616      -0.58318576       1.67803489
H        1.26111103      -1.51632644       0.20530869
H        0.52947242      -0.27739438      -1.66549083
H        0.16883665       1.32765845       0.37822569
H       -1.20470548      -1.41332172       0.69697204
H       -0.34749957      -0.82648756      -2.11726758
H       -1.30479300       0.66240021      -1.82882725
H       -2.27368154       1.47396594       0.98660248
H       -3.13994964      -0.05509828       1.34063445
19
Frame=11 idx=009932 GeodesicLength=1.1598954270226614 rxn_smarts="[C:1]([C:2]([C:3]([C:4]1([H:15])[C:5]([H:16])([H:17])[O:6][C:7]1([H:18])[H:19])([H:13])[H:14])([H:11])[H:12])([H:8])([H:9])[H:10]>>[C:1]([C:2]([C@:3]1([H:14])[C@:4]2([H:15])[C@@:5]1([H:17])[O:6][C:7]2([H:18])[H:19])([H:11])[H:12])([H:8])([H:9])[H:10].[H:13][H:16]"
C        2.64437074       0.15218507       0.17776569
C        1.32074464      -0.49504505       0.56648785
C        0.11141467       0.27832645       0.08546342
C       -1.17791797      -0.38453864       0.37166558
C       -1.56651328      -0.09747189      -1.05929498
O       -2.86981940       0.35377305      -0.68233983
C       -2.43174304       0.45324728       0.67519393
H        2.71688469       0.32227507      -0.89848537
H        2.74866283       1.12995851       0.65454220
H        3.49456318      -0.46333820       0.47607745
H        1.31156354      -0.61152444       1.65682699
H        1.25472395      -1.51072226       0.16388232
H        0.55197708      -0.25878928      -1.67575799
H        0.16571469       1.32508019       0.39248452
H       -1.20598288      -1.40574726       0.74045852
H       -0.34920586      -0.85608374      -2.12999609
H       -1.30075037       0.61704607      -1.84610957
H       -2.26848958       1.48605929       0.99377785
H       -3.15019760      -0.03469022       1.33735749
19
Frame=12 idx=009932 GeodesicLength=1.2671341214419098 rxn_smarts="[C:1]([C:2]([C:3]([C:4]1([H:15])[C:5]([H:16])([H:17])[O:6][C:7]1([H:18])[H:19])([H:13])[H:14])([H:11])[H:12])([H:8])([H:9])[H:10]>>[C:1]([C:2]([C@:3]1([H:14])[C@:4]2([H:15])[C@@:5]1([H:17])[O:6][C:7]2([H:18])[H:19])([H:11])[H:12])([H:8])([H:9])[H:10].[H:13][H:16]"
C        2.63863782       0.15875256       0.18194851
C        1.31317232      -0.49777348       0.54790231
C        0.10460893       0.28350243       0.07251927
C       -1.18222261      -0.38415775       0.39251365
C       -1.54978381      -0.11711980      -1.04771774
O       -2.84875983       0.36093701      -0.68231589
C       -2.42700042       0.46534506       0.68110275
H        2.71553705       0.36313783      -0.88800479
H        2.74196549       1.12176807       0.68811673
H        3.48758283      -0.46651037       0.46297469
H        1.30026172      -0.63981178       1.63487714
H        1.24772284      -1.50417141       0.12223316
H        0.57462559      -0.23617971      -1.68596813
H        0.16302176       1.32247652       0.40649731
H       -1.20621896      -1.39671509       0.78422138
H       -0.35193071      -0.88712254      -2.14238849
H       -1.29721569       0.57026383      -1.86230408
H       -2.26393864       1.49808763       1.00043907
H       -3.16006569      -0.01470903       1.33335314
19
Frame=13 idx=009932 GeodesicLength=1.3747646308808399 rxn_smarts="[C:1]([C:2]([C:3]([C:4]1([H:15])[C:5]([H:16])([H:17])[O:6][C:7]1([H:18])[H:19])([H:13])[H:14])([H:11])[H:12])([H:8])([H:9])[H:10]>>[C:1]([C:2]([C@:3]1([H:14])[C@:4]2([H:15])[C@@:5]1([H:17])[O:6][C:7]2([H:18])[H:19])([H:11])[H:12])([H:8])([H:9])[H:10].[H:13][H:16]"
C        2.63288460       0.16472265       0.18627995
C        1.30553214      -0.50024777       0.52913839
C        0.09776366       0.28924947       0.06003914
C       -1.18613007      -0.38303637       0.41324846
C       -1.53287982      -0.13705608      -1.03587352
O       -2.82727108       0.36729636      -0.68260100
C       -2.42228603       0.47728183       0.68657103
H        2.71412306       0.40357176      -0.87618312
H        2.73535985       1.11192301       0.72167451
H        3.48051291      -0.47001728       0.44936896
H        1.28914867      -0.66816588       1.61207219
H        1.24014366      -1.49659635       0.08018354
H        0.59734027      -0.20944436      -1.69602070
H        0.16074460       1.31988138       0.42034783
H       -1.20542679      -1.38620103       0.82824515
H       -0.35597937      -0.92009380      -2.15427533
H       -1.29394768       0.52202824      -1.87732402
H       -2.26001701       1.51006829       1.00658318
H       -3.16961557       0.00483596       1.32852534
19
Frame=14 idx=009932 GeodesicLength=1.4825694920933234 rxn_smarts="[C:1]([C:2]([C:3]([C:4]1([H:15])[C:5]([H:16])([H:17])[O:6][C:7]1([H:18])[H:19])([H:13])[H:14])([H:11])[H:12])([H:8])([H:9])[H:10]>>[C:1]([C:2]([C@:3]1([H:14])[C@:4]2([H:15])[C@@:5]1([H:17])[O:6][C:7]2([H:18])[H:19])([H:11])[H:12])([H:8])([H:9])[H:10].[H:13][H:16]"
C        2.62712277       0.17011908       0.19073691
C        1.29783792      -0.50246106       0.51014018
C        0.09089542       0.29560401       0.04804591
C       -1.18965476      -0.38118640       0.43386430
C       -1.51572325      -0.15723764      -1.02373754
O       -2.80527799       0.37296443      -0.68326398
C       -2.41762462       0.48906037       0.69155476
H        2.71266203       0.44362960      -0.86300081
H        2.72885209       1.10039146       0.75522761
H        3.47336393      -0.47380978       0.43519262
H        1.27822030      -0.69665781       1.58832592
H        1.23200274      -1.48793148       0.03760750
H        0.62001801      -0.17840737      -1.70580684
H        0.15887633       1.31732259       0.43416184
H       -1.20361314      -1.37417491       0.87249193
H       -0.36159963      -0.95546551      -2.16545794
H       -1.29068209       0.47235103      -1.89105384
H       -2.25675483       1.52199684       1.01221917
H       -3.17892122       0.02389255       1.32275228
19
Frame=15 idx=009932 GeodesicLength=1.5903944642448395 rxn_smarts="[C:1]([C:2]([C:3]([C:4]1([H:15])[C:5]([H:16])([H:17])[O:6][C:7]1([H:18])[H:19])([H:13])[H:14])([H:11])[H:12])([H:8])([H:9])[H:10]>>[C:1]([C:2]([C@:3]1([H:14])[C@:4]2([H:15])[C@@:5]1([H:17])[O:6][C:7]2([H:18])[H:19])([H:11])[H:12])([H:8])([H:9])[H:10].[H:13][H:16]"
C        2.62137264       0.17497250       0.19531080
C        1.29010985      -0.50440355       0.49083092
C        0.08402383       0.30259830       0.03655906
C       -1.19279865      -0.37861800       0.45436869
C       -1.49823434      -0.17763333      -1.01127878
O       -2.78269451       0.37805057      -0.68437822
C       -2.41303378       0.50069184       0.69600017
H        2.71117749       0.48344388      -0.84837400
H        2.72244944       1.08710150       0.78885038
H        3.46615485      -0.47783718       0.42036673
H        1.26746949      -0.72539645       1.56349831
H        1.22332450      -1.47807137      -0.00567647
H        0.64255947      -0.14287434      -1.71519843
H        0.15741920       1.31482067       0.44805431
H       -1.20077448      -1.36059190       0.91694872
H       -0.36916332      -0.99380144      -2.17572898
H       -1.28714025       0.42124059      -1.90339082
H       -2.25417377       1.53388060       1.01733521
H       -3.18804767       0.04242710       1.31590241
19
Frame=16 idx=009932 GeodesicLength=1.697992065277823 rxn_smarts="[C:1]([C:2]([C:3]([C:4]1([H:15])[C:5]([H:16])([H:17])[O:6][C:7]1([H:18])[H:19])([H:13])[H:14])([H:11])[H:12])([H:8])([H:9])[H:10]>>[C:1]([C:2]([C@:3]1([H:14])[C@:4]2([H:15])[C@@:5]1([H:17])[O:6][C:7]2([H:18])[H:19])([H:11])[H:12])([H:8])([H:9])[H:10].[H:13][H:16]"
C        2.61564905       0.17930852       0.19998522
C        1.28236334      -0.50605571       0.47114289
C        0.07716912       0.31028040       0.02560454
C       -1.19556608      -0.37533657       0.47475690
C       -1.48032046      -0.19817760      -0.99847586
O       -2.75942662       0.38265590      -0.68602691
C       -2.40853780       0.51217069       0.69985345
H        2.70969640       0.52305881      -0.83224601
H        2.71616712       1.07198398       0.82254677
H        3.45890699      -0.48202613       0.40483466
H        1.25688200      -0.75446024       1.53745244
H        1.21412947      -1.46690094      -0.04981564
H        0.66486488      -0.10266015      -1.72405845
H        0.15638069       1.31239053       0.46217414
H       -1.19690440      -1.34541457       0.96156512
H       -0.37906263      -1.03565774      -2.18485150
H       -1.28301343       0.36876096      -1.91420485
H       -2.25232037       1.54571054       1.02193261
H       -3.19705728       0.06036932       1.30783048
