14
Frame=0 idx=006920 GeodesicLength=0.0 rxn_smarts="[N:1]([c:2]1[c:3]([H:10])[c:4]([N:5]([H:11])[H:12])[c:6]([H:13])[n:7]1[H:14])([H:8])[H:9]>>[N:1]([C:2]1=[C:3]([H:10])/[C:4](=[N:5]\[H:12])[C:6]([H:11])([H:13])[N:7]1[H:14])([H:8])[H:9]"
N       -2.38761717      -0.28168302      -0.08021828
C       -1.03252403      -0.08350590      -0.06795130
C       -0.04052285      -1.03043650      -0.30608891
C        1.16143562      -0.33284384      -0.07867075
N        2.41583196      -0.50936441       0.29652767
C        0.91398394       1.09332404       0.06113330
N       -0.52980782       1.13731788       0.22521644
H       -2.68807827      -1.24017578      -0.10250416
H       -2.93271810       0.29784871       0.53460620
H       -0.20580278      -2.09425205      -0.37570785
H        2.23535755       0.76796011       0.63715045
H        2.94671627      -1.32411482       0.01464233
H        1.21679144       1.63025379      -0.84244742
H       -1.07304575       1.96967181       0.08431227
14
Frame=1 idx=006920 GeodesicLength=0.03795480560145464 rxn_smarts="[N:1]([c:2]1[c:3]([H:10])[c:4]([N:5]([H:11])[H:12])[c:6]([H:13])[n:7]1[H:14])([H:8])[H:9]>>[N:1]([C:2]1=[C:3]([H:10])/[C:4](=[N:5]\[H:12])[C:6]([H:11])([H:13])[N:7]1[H:14])([H:8])[H:9]"
N       -2.38953364      -0.27594249      -0.08116895
C       -1.03241233      -0.08375492      -0.06626767
C       -0.04040608      -1.03071538      -0.29382567
C        1.16569526      -0.32880035      -0.09727877
N        2.41607140      -0.51140123       0.29436959
C        0.91315541       1.09548948       0.05309822
N       -0.52772427       1.13831495       0.22306916
H       -2.69521868      -1.23070555      -0.14941161
H       -2.92630491       0.27044491       0.57046193
H       -0.20072078      -2.09621147      -0.34794264
H        2.24181410       0.77678910       0.63377565
H        2.92892585      -1.34077954       0.02215840
H        1.21807356       1.64735346      -0.84005262
H       -1.07141489       1.96991903       0.07901498
14
Frame=2 idx=006920 GeodesicLength=0.07591773027346105 rxn_smarts="[N:1]([c:2]1[c:3]([H:10])[c:4]([N:5]([H:11])[H:12])[c:6]([H:13])[n:7]1[H:14])([H:8])[H:9]>>[N:1]([C:2]1=[C:3]([H:10])/[C:4](=[N:5]\[H:12])[C:6]([H:11])([H:13])[N:7]1[H:14])([H:8])[H:9]"
N       -2.39140080      -0.27057351      -0.08167366
C       -1.03235357      -0.08375913      -0.06589322
C       -0.04020069      -1.03074389      -0.28183759
C        1.16955185      -0.32504891      -0.11539054
N        2.41589667      -0.51380356       0.29211463
C        0.91227543       1.09742331       0.04524989
N       -0.52573419       1.13932199       0.22062513
H       -2.70166549      -1.21982762      -0.19350006
H       -2.91940976       0.24170713       0.60412227
H       -0.19574045      -2.09764754      -0.32006652
H        2.24791785       0.78510869       0.63123056
H        2.91090803      -1.35661007       0.02851460
H        1.21976828       1.66425894      -0.83689917
H       -1.06981316       1.97019417       0.07340370
14
Frame=3 idx=006920 GeodesicLength=0.11397826779264524 rxn_smarts="[N:1]([c:2]1[c:3]([H:10])[c:4]([N:5]([H:11])[H:12])[c:6]([H:13])[n:7]1[H:14])([H:8])[H:9]>>[N:1]([C:2]1=[C:3]([H:10])/[C:4](=[N:5]\[H:12])[C:6]([H:11])([H:13])[N:7]1[H:14])([H:8])[H:9]"
N       -2.39321417      -0.26542717      -0.08207329
C       -1.03229622      -0.08366783      -0.06585128
C       -0.03989486      -1.03058096      -0.26965926
C        1.17308036      -0.32157192      -0.13294953
N        2.41561501      -0.51637329       0.28926799
C        0.91137573       1.09917839       0.03748043
N       -0.52375432       1.14030358       0.21840951
H       -2.70757906      -1.20753828      -0.23589122
H       -2.91241871       0.21172806       0.63524729
H       -0.19080406      -2.09862403      -0.29155693
H        2.25400738       0.79319000       0.62884724
H        2.89261667      -1.37194146       0.03397816
H        1.22148004       1.68087591      -0.83333030
H       -1.06821379       1.97044902       0.06808119
14
Frame=4 idx=006920 GeodesicLength=0.15209905047288702 rxn_smarts="[N:1]([c:2]1[c:3]([H:10])[c:4]([N:5]([H:11])[H:12])[c:6]([H:13])[n:7]1[H:14])([H:8])[H:9]>>[N:1]([C:2]1=[C:3]([H:10])/[C:4](=[N:5]\[H:12])[C:6]([H:11])([H:13])[N:7]1[H:14])([H:8])[H:9]"
N       -2.39500489      -0.26066493      -0.08195230
C       -1.03226970      -0.08353028      -0.06617259
C       -0.03951681      -1.03013098      -0.25798410
C        1.17627951      -0.31838232      -0.14985822
N        2.41506386      -0.51921711       0.28644427
C        0.91046216       1.10075081       0.02983379
N       -0.52184095       1.14132582       0.21594994
H       -2.71301018      -1.19436291      -0.27524346
H       -2.90524941       0.18102821       0.66411270
H       -0.18588667      -2.09902998      -0.26393423
H        2.25984869       0.80094102       0.62718213
H        2.87420580      -1.38659794       0.03866311
H        1.22355537       1.69718049      -0.82917826
H       -1.06663679       1.97069009       0.06213723
14
Frame=5 idx=006920 GeodesicLength=0.19027017412910754 rxn_smarts="[N:1]([c:2]1[c:3]([H:10])[c:4]([N:5]([H:11])[H:12])[c:6]([H:13])[n:7]1[H:14])([H:8])[H:9]>>[N:1]([C:2]1=[C:3]([H:10])/[C:4](=[N:5]\[H:12])[C:6]([H:11])([H:13])[N:7]1[H:14])([H:8])[H:9]"
N       -2.39675663      -0.25631322      -0.08112131
C       -1.03225071      -0.08343719      -0.06641455
C       -0.03905529      -1.02937209      -0.24701549
C        1.17920720      -0.31545600      -0.16608152
N        2.41425706      -0.52228918       0.28384556
C        0.90954304       1.10217891       0.02223522
N       -0.51998493       1.14241879       0.21317950
H       -2.71802142      -1.18063930      -0.31120421
H       -2.89799275       0.15000597       0.69088154
H       -0.18091631      -2.09887704      -0.23831696
H        2.26543881       0.80847142       0.62622639
H        2.85564270      -1.40071302       0.04307437
H        1.22598197       1.71312928      -0.82457378
H       -1.06509275       1.97089266       0.05528526
14
Frame=6 idx=006920 GeodesicLength=0.22849360280129488 rxn_smarts="[N:1]([c:2]1[c:3]([H:10])[c:4]([N:5]([H:11])[H:12])[c:6]([H:13])[n:7]1[H:14])([H:8])[H:9]>>[N:1]([C:2]1=[C:3]([H:10])/[C:4](=[N:5]\[H:12])[C:6]([H:11])([H:13])[N:7]1[H:14])([H:8])[H:9]"
N       -2.39848668      -0.25228937      -0.07955985
C       -1.03225217      -0.08336328      -0.06670816
C       -0.03855473      -1.02833417      -0.23681886
C        1.18188474      -0.31278916      -0.18164183
N        2.41316499      -0.52560274       0.28160515
C        0.90862037       1.10346458       0.01464953
N       -0.51818926       1.14358948       0.20999556
H       -2.72279257      -1.16635483      -0.34432032
H       -2.89046357       0.11854364       0.71606800
H       -0.17594191      -2.09823858      -0.21428637
H        2.27072146       0.81577838       0.62606768
H        2.83704778      -1.41419318       0.04704645
H        1.22880816       1.72872468      -0.81951996
H       -1.06356661       1.97106455       0.04742297
14
Frame=7 idx=006920 GeodesicLength=0.2667923421440791 rxn_smarts="[N:1]([c:2]1[c:3]([H:10])[c:4]([N:5]([H:11])[H:12])[c:6]([H:13])[n:7]1[H:14])([H:8])[H:9]>>[N:1]([C:2]1=[C:3]([H:10])/[C:4](=[N:5]\[H:12])[C:6]([H:11])([H:13])[N:7]1[H:14])([H:8])[H:9]"
N       -2.40017504      -0.24845326      -0.07759421
C       -1.03223066      -0.08335779      -0.06661612
C       -0.03798034      -1.02711013      -0.22700747
C        1.18436112      -0.31034508      -0.19670481
N        2.41201539      -0.52899772       0.27915248
C        0.90770276       1.10463651       0.00697363
N       -0.51637796       1.14477084       0.20683764
H       -2.72733815      -1.15133707      -0.37563457
H       -2.88295244       0.08656100       0.73944043
H       -0.17090415      -2.09722782      -0.19092187
H        2.27592386       0.82301806       0.62615811
H        2.81828613      -1.42732082       0.05086264
H        1.23170155       1.74400627      -0.81423228
H       -1.06203207       1.97115701       0.03928639
14
Frame=8 idx=006920 GeodesicLength=0.3051727130766319 rxn_smarts="[N:1]([c:2]1[c:3]([H:10])[c:4]([N:5]([H:11])[H:12])[c:6]([H:13])[n:7]1[H:14])([H:8])[H:9]>>[N:1]([C:2]1=[C:3]([H:10])/[C:4](=[N:5]\[H:12])[C:6]([H:11])([H:13])[N:7]1[H:14])([H:8])[H:9]"
N       -2.40184452      -0.24482700      -0.07500411
C       -1.03222167      -0.08336394      -0.06654212
C       -0.03740110      -1.02567415      -0.21788438
C        1.18663992      -0.30811963      -0.21128772
N        2.41066815      -0.53255946       0.27684635
C        0.90679335       1.10569203      -0.00078577
N       -0.51458928       1.14600227       0.20336694
H       -2.73181798      -1.13560944      -0.40511109
H       -2.87510564       0.05388960       0.76159639
H       -0.16588057      -2.09581417      -0.16822313
H        2.28086486       0.83010406       0.62685990
H        2.79948070      -1.43992861       0.05432085
H        1.23489734       1.75901123      -0.80856636
H       -1.06048356       1.97119721       0.03041425
14
Frame=9 idx=006920 GeodesicLength=0.34368484691388534 rxn_smarts="[N:1]([c:2]1[c:3]([H:10])[c:4]([N:5]([H:11])[H:12])[c:6]([H:13])[n:7]1[H:14])([H:8])[H:9]>>[N:1]([C:2]1=[C:3]([H:10])/[C:4](=[N:5]\[H:12])[C:6]([H:11])([H:13])[N:7]1[H:14])([H:8])[H:9]"
N       -2.40350296      -0.24133589      -0.07191133
C       -1.03221090      -0.08339180      -0.06634155
C       -0.03679555      -1.02408727      -0.20931233
C        1.18875827      -0.30609521      -0.22551873
N        2.40925058      -0.53621632       0.27440862
C        0.90589317       1.10665237      -0.00870343
N       -0.51279576       1.14725983       0.19978117
H       -2.73627198      -1.11900437      -0.43331134
H       -2.86702400       0.02038526       0.78250943
H       -0.16082476      -2.09404566      -0.14568418
H        2.28565455       0.83711625       0.62790941
H        2.78056744      -1.45219603       0.05764442
H        1.23823338       1.77378188      -0.80263439
H       -1.05893148       1.97117697       0.02116422
14
Frame=10 idx=006920 GeodesicLength=0.3823127980003514 rxn_smarts="[N:1]([c:2]1[c:3]([H:10])[c:4]([N:5]([H:11])[H:12])[c:6]([H:13])[n:7]1[H:14])([H:8])[H:9]>>[N:1]([C:2]1=[C:3]([H:10])/[C:4](=[N:5]\[H:12])[C:6]([H:11])([H:13])[N:7]1[H:14])([H:8])[H:9]"
N       -2.40512231      -0.23791241      -0.06853419
C       -1.03217976      -0.08346508      -0.06578985
C       -0.03616960      -1.02240965      -0.20096991
C        1.19070010      -0.30428250      -0.23945631
N        2.40784440      -0.53993750       0.27157039
C        0.90499342       1.10749731      -0.01679670
N       -0.51095688       1.14849390       0.19631880
H       -2.74064071      -1.10134842      -0.46077996
H       -2.85890478      -0.01401817       0.80186972
H       -0.15572024      -2.09193164      -0.12252376
H        2.29038573       0.84407842       0.62905109
H        2.76156862      -1.46412791       0.06062629
H        1.24154753       1.78830733      -0.79649101
H       -1.05734554       1.97105632       0.01190538
14
Frame=11 idx=006920 GeodesicLength=0.4211093444418522 rxn_smarts="[N:1]([c:2]1[c:3]([H:10])[c:4]([N:5]([H:11])[H:12])[c:6]([H:13])[n:7]1[H:14])([H:8])[H:9]>>[N:1]([C:2]1=[C:3]([H:10])/[C:4](=[N:5]\[H:12])[C:6]([H:11])([H:13])[N:7]1[H:14])([H:8])[H:9]"
N       -2.40673017      -0.23456925      -0.06475883
C       -1.03214626      -0.08355885      -0.06506112
C       -0.03554368      -1.02064496      -0.19298557
C        1.19248086      -0.30267457      -0.25316317
N        2.40642556      -0.54374913       0.26841398
C        0.90409937       1.10823704      -0.02508416
N       -0.50909097       1.14972835       0.19284751
H       -2.74501923      -1.08256448      -0.48753885
H       -2.85060616      -0.04950094       0.81992154
H       -0.15057333      -2.08943119      -0.09867259
H        2.29499646       0.85096517       0.63041254
H        2.74250745      -1.47572570       0.06328120
H        1.24493775       1.80263470      -0.79007013
H       -1.05573763       1.97085381       0.00245765
14
Frame=12 idx=006920 GeodesicLength=0.4600173208081362 rxn_smarts="[N:1]([c:2]1[c:3]([H:10])[c:4]([N:5]([H:11])[H:12])[c:6]([H:13])[n:7]1[H:14])([H:8])[H:9]>>[N:1]([C:2]1=[C:3]([H:10])/[C:4](=[N:5]\[H:12])[C:6]([H:11])([H:13])[N:7]1[H:14])([H:8])[H:9]"
N       -2.40831077      -0.23136217      -0.06043523
C       -1.03210525      -0.08369601      -0.06413707
C       -0.03491234      -1.01879789      -0.18546704
C        1.19412473      -0.30126114      -0.26662829
N        2.40495046      -0.54764168       0.26513120
C        0.90320820       1.10887127      -0.03358908
N       -0.50720609       1.15096475       0.18922950
H       -2.74945097      -1.06282479      -0.51308794
H       -2.84208941      -0.08579135       0.83670037
H       -0.14535844      -2.08655810      -0.07488696
H        2.29939615       0.85778462       0.63214831
H        2.72340441      -1.48696472       0.06579653
H        1.24846416       1.81674174      -0.78335349
H       -1.05411482       1.97053548      -0.00742082
14
Frame=13 idx=006920 GeodesicLength=0.49903655647712647 rxn_smarts="[N:1]([c:2]1[c:3]([H:10])[c:4]([N:5]([H:11])[H:12])[c:6]([H:13])[n:7]1[H:14])([H:8])[H:9]>>[N:1]([C:2]1=[C:3]([H:10])/[C:4](=[N:5]\[H:12])[C:6]([H:11])([H:13])[N:7]1[H:14])([H:8])[H:9]"
N       -2.40986752      -0.22829182      -0.05554960
C       -1.03205639      -0.08389884      -0.06292837
C       -0.03427241      -1.01690519      -0.17834132
C        1.19565209      -0.30006107      -0.27982260
N        2.40341730      -0.55162726       0.26183517
C        0.90231931       1.10940023      -0.04232627
N       -0.50530567       1.15220754       0.18545032
H       -2.75394859      -1.04221936      -0.53729042
H       -2.83344936      -0.12267967       0.85215049
H       -0.14005734      -2.08337947      -0.05142809
H        2.30356276       0.86456372       0.63429611
H        2.70436714      -1.49780297       0.06811096
H        1.25212409       1.83059947      -0.77637013
H       -1.05248542       1.97009468      -0.01778624
14
Frame=14 idx=006920 GeodesicLength=0.5381251724260652 rxn_smarts="[N:1]([c:2]1[c:3]([H:10])[c:4]([N:5]([H:11])[H:12])[c:6]([H:13])[n:7]1[H:14])([H:8])[H:9]>>[N:1]([C:2]1=[C:3]([H:10])/[C:4](=[N:5]\[H:12])[C:6]([H:11])([H:13])[N:7]1[H:14])([H:8])[H:9]"
N       -2.41139522      -0.22534548      -0.05018805
C       -1.03198991      -0.08419386      -0.06124866
C       -0.03362076      -1.01499795      -0.17139718
C        1.19706613      -0.29908419      -0.29273755
N        2.40187103      -0.55566503       0.25846750
C        0.90143983       1.10981069      -0.05132299
N       -0.50336213       1.15342818       0.18161240
H       -2.75846197      -1.02079749      -0.56018413
H       -2.82489496      -0.15998429       0.86607119
H       -0.13466750      -2.07994560      -0.02833538
H        2.30753746       0.87134875       0.63675182
H        2.68545026      -1.50821359       0.07019341
H        1.25585860       1.84415186      -0.76919344
H       -1.05083084       1.96948800      -0.02848894
14
Frame=15 idx=006920 GeodesicLength=0.5772534001844448 rxn_smarts="[N:1]([c:2]1[c:3]([H:10])[c:4]([N:5]([H:11])[H:12])[c:6]([H:13])[n:7]1[H:14])([H:8])[H:9]>>[N:1]([C:2]1=[C:3]([H:10])/[C:4](=[N:5]\[H:12])[C:6]([H:11])([H:13])[N:7]1[H:14])([H:8])[H:9]"
N       -2.41287876      -0.22257509      -0.04402913
C       -1.03191462      -0.08454808      -0.05948924
C       -0.03295800      -1.01305219      -0.16504353
C        1.19841670      -0.29831182      -0.30535606
N        2.40016003      -0.55981332       0.25547716
C        0.90055284       1.11012080      -0.06058426
N       -0.50144088       1.15467287       0.17731297
H       -2.76319569      -0.99871034      -0.58118691
H       -2.81598640      -0.19758076       0.87898526
H       -0.12919376      -2.07630418      -0.00642726
H        2.31106261       0.87808762       0.63996759
H        2.66672156      -1.51815912       0.07216436
H        1.25985184       1.85744420      -0.76166968
H       -1.04919748       1.96872942      -0.04012127
14
Frame=16 idx=006920 GeodesicLength=0.6163670249043001 rxn_smarts="[N:1]([c:2]1[c:3]([H:10])[c:4]([N:5]([H:11])[H:12])[c:6]([H:13])[n:7]1[H:14])([H:8])[H:9]>>[N:1]([C:2]1=[C:3]([H:10])/[C:4](=[N:5]\[H:12])[C:6]([H:11])([H:13])[N:7]1[H:14])([H:8])[H:9]"
N       -2.41431597      -0.21991263      -0.03755028
C       -1.03180600      -0.08503680      -0.05704201
C       -0.03227165      -1.01115931      -0.15855357
C        1.19966960      -0.29780863      -0.31760735
N        2.39845776      -0.56398982       0.25254693
C        0.89966823       1.11029253      -0.07014270
N       -0.49945210       1.15585563       0.17306982
H       -2.76785420      -0.97607914      -0.60078274
H       -2.80749957      -0.23498383       0.89010277
H       -0.12363460      -2.07259768       0.01481347
H        2.31441336       0.88493398       0.64340112
H        2.64835699      -1.52758632       0.07370298
H        1.26380681       1.87030940      -0.75410621
H       -1.04753867       1.96776261      -0.05185222
