18
Frame=0 idx=010234 GeodesicLength=0.0 rxn_smarts="[C:1]([C:2]([C:3]([H:12])([H:13])[H:14])([N:4]([C:5]([H:15])([H:16])[H:17])[C:6](=[O:7])[H:18])[H:11])([H:8])([H:9])[H:10]>>[C:1]([C:2]([C:3]([H:12])([H:13])[H:14])([H:11])[H:18])([H:8])([H:9])[H:10].[N:4]([C:5]([H:15])([H:16])[H:17])=[C:6]=[O:7]"
C       -0.84071716      -0.94492257      -1.10515770
C       -1.04207472       0.42882397      -0.58525516
C       -1.79122561       0.67535141       0.66884304
N        1.01041361       0.32958372       0.82035349
C        2.05373252      -0.62875243       1.10098223
C        1.11121439       0.87261957      -0.37349086
O        1.84886950       0.69575960      -1.33466864
H       -0.68772473      -1.66592242      -0.30500200
H       -1.74261760      -1.21197415      -1.67096227
H       -0.00269378      -0.97749455      -1.80390201
H       -1.22249905       1.15577256      -1.37390424
H       -1.55111449       1.64563251       1.10089911
H       -2.85805816       0.68814730       0.40519572
H       -1.60391199      -0.09589716       1.40973914
H        3.02665472      -0.13709040       1.20661738
H        1.82938396      -1.15507561       2.02873720
H        2.16874907      -1.34635141       0.27605228
H        0.29361953       1.67179008      -0.46507663
18
Frame=1 idx=010234 GeodesicLength=0.1247300500340938 rxn_smarts="[C:1]([C:2]([C:3]([H:12])([H:13])[H:14])([N:4]([C:5]([H:15])([H:16])[H:17])[C:6](=[O:7])[H:18])[H:11])([H:8])([H:9])[H:10]>>[C:1]([C:2]([C:3]([H:12])([H:13])[H:14])([H:11])[H:18])([H:8])([H:9])[H:10].[N:4]([C:5]([H:15])([H:16])[H:17])=[C:6]=[O:7]"
C       -0.84379158      -0.95297450      -1.08293870
C       -1.03013842       0.43117691      -0.57660572
C       -1.80145050       0.68408885       0.66571434
N        1.02962678       0.32184291       0.79129236
C        2.05897269      -0.64403306       1.08857718
C        1.14322603       0.89741095      -0.38203001
O        1.85817986       0.74379339      -1.36091155
H       -0.69486961      -1.66600588      -0.27444148
H       -1.74899935      -1.22424271      -1.64063205
H       -0.00781027      -1.00207988      -1.78327185
H       -1.22404890       1.14063232      -1.37852754
H       -1.58092371       1.66462213       1.08516377
H       -2.86582309       0.67472033       0.39370808
H       -1.61198816      -0.07180235       1.42232261
H        3.01860998      -0.15070421       1.27466594
H        1.78002236      -1.21513410       1.97422151
H        2.23102584      -1.32577508       0.24429706
H        0.29018006       1.69446397      -0.46060394
18
Frame=2 idx=010234 GeodesicLength=0.24914435261170728 rxn_smarts="[C:1]([C:2]([C:3]([H:12])([H:13])[H:14])([N:4]([C:5]([H:15])([H:16])[H:17])[C:6](=[O:7])[H:18])[H:11])([H:8])([H:9])[H:10]>>[C:1]([C:2]([C:3]([H:12])([H:13])[H:14])([H:11])[H:18])([H:8])([H:9])[H:10].[N:4]([C:5]([H:15])([H:16])[H:17])=[C:6]=[O:7]"
C       -0.84800586      -0.96065872      -1.06105929
C       -1.01828895       0.43362117      -0.56788359
C       -1.81146930       0.69281890       0.66242784
N        1.04943660       0.31302942       0.76069887
C        2.06491626      -0.65912082       1.07661637
C        1.17593053       0.92073605      -0.39095071
O        1.86616494       0.79086805      -1.38770304
H       -0.70150741      -1.66550696      -0.24451136
H       -1.75716469      -1.23585005      -1.60953199
H       -0.01518158      -1.02633557      -1.76390621
H       -1.22485369       1.12569220      -1.38242791
H       -1.61132393       1.68356805       1.06815921
H       -2.87307959       0.66076212       0.38297484
H       -1.61951269      -0.04696625       1.43474883
H        3.00449338      -0.16637461       1.34635568
H        1.73334780      -1.27406749       1.91357181
H        2.29866697      -1.30227232       0.21788586
H        0.28743122       1.71605682      -0.45546520
18
Frame=3 idx=010234 GeodesicLength=0.3732892008617279 rxn_smarts="[C:1]([C:2]([C:3]([H:12])([H:13])[H:14])([N:4]([C:5]([H:15])([H:16])[H:17])[C:6](=[O:7])[H:18])[H:11])([H:8])([H:9])[H:10]>>[C:1]([C:2]([C:3]([H:12])([H:13])[H:14])([H:11])[H:18])([H:8])([H:9])[H:10].[N:4]([C:5]([H:15])([H:16])[H:17])=[C:6]=[O:7]"
C       -0.85332740      -0.96798869      -1.03952806
C       -1.00649339       0.43611536      -0.55907361
C       -1.82119812       0.70150280       0.65904587
N        1.06990822       0.30318786       0.72837139
C        2.07148275      -0.67397042       1.06512699
C        1.20942469       0.94261549      -0.40043637
O        1.87289472       0.83713819      -1.41506727
H       -0.70772313      -1.66450696      -0.21524069
H       -1.76703961      -1.24674750      -1.57771328
H       -0.02481826      -1.05034465      -1.74582461
H       -1.22498227       1.11096672      -1.38559154
H       -1.64215824       1.70232211       1.04995527
H       -2.87975588       0.64633150       0.37314763
H       -1.62640693      -0.02143813       1.44702353
H        2.98342089      -0.18450980       1.42097702
H        1.69013993      -1.33162480       1.84673393
H        2.37124502      -1.27568067       0.19775508
H        0.28538699       1.73663159      -0.44966128
18
Frame=4 idx=010234 GeodesicLength=0.49716898928761916 rxn_smarts="[C:1]([C:2]([C:3]([H:12])([H:13])[H:14])([N:4]([C:5]([H:15])([H:16])[H:17])[C:6](=[O:7])[H:18])[H:11])([H:8])([H:9])[H:10]>>[C:1]([C:2]([C:3]([H:12])([H:13])[H:14])([H:11])[H:18])([H:8])([H:9])[H:10].[N:4]([C:5]([H:15])([H:16])[H:17])=[C:6]=[O:7]"
C       -0.85981866      -0.97498030      -1.01837047
C       -0.99475764       0.43862427      -0.55018576
C       -1.83058943       0.71016808       0.65559868
N        1.09103766       0.29210248       0.69407308
C        2.07867263      -0.68858629       1.05415518
C        1.24377220       0.96292133      -0.41063305
O        1.87841650       0.88271906      -1.44297662
H       -0.71365420      -1.66307414      -0.18667577
H       -1.77866184      -1.25685898      -1.54522559
H       -0.03684278      -1.07419067      -1.72906945
H       -1.22446118       1.09649720      -1.38803011
H       -1.67326477       1.72080584       1.03057842
H       -2.88582173       0.63159510       0.36432644
H       -1.63266791       0.00479728       1.45913061
H        2.95439058      -0.20517943       1.49772227
H        1.65156364      -1.38777866       1.77372388
H        2.44859423      -1.24574949       0.18492933
H        0.28409272       1.75616731      -0.44307106
18
Frame=5 idx=010234 GeodesicLength=0.6207290634092524 rxn_smarts="[C:1]([C:2]([C:3]([H:12])([H:13])[H:14])([N:4]([C:5]([H:15])([H:16])[H:17])[C:6](=[O:7])[H:18])[H:11])([H:8])([H:9])[H:10]>>[C:1]([C:2]([C:3]([H:12])([H:13])[H:14])([H:11])[H:18])([H:8])([H:9])[H:10].[N:4]([C:5]([H:15])([H:16])[H:17])=[C:6]=[O:7]"
C       -0.86728433      -0.98168884      -0.99747114
C       -0.98298520       0.44108270      -0.54117714
C       -1.83955127       0.71879117       0.65213752
N        1.11291340       0.27994124       0.65763024
C        2.08623057      -0.70296519       1.04361380
C        1.27906892       0.98179818      -0.42167702
O        1.88283310       0.92800504      -1.47135216
H       -0.71932262      -1.66128864      -0.15867989
H       -1.79172971      -1.26623702      -1.51207439
H       -0.05103524      -1.09798393      -1.71342776
H       -1.22329183       1.08220719      -1.38974970
H       -1.70450204       1.73890857       1.01007228
H       -2.89119627       0.61659156       0.35660022
H       -1.63821227       0.03174048       1.47110065
H        2.91661478      -0.22892950       1.57517242
H        1.61839868      -1.44227890       1.69463506
H        2.52952634      -1.21247264       0.18028179
H        0.28352500       1.77477850      -0.43563479
18
Frame=6 idx=010234 GeodesicLength=0.7439154912123633 rxn_smarts="[C:1]([C:2]([C:3]([H:12])([H:13])[H:14])([N:4]([C:5]([H:15])([H:16])[H:17])[C:6](=[O:7])[H:18])[H:11])([H:8])([H:9])[H:10]>>[C:1]([C:2]([C:3]([H:12])([H:13])[H:14])([H:11])[H:18])([H:8])([H:9])[H:10].[N:4]([C:5]([H:15])([H:16])[H:17])=[C:6]=[O:7]"
C       -0.87565171      -0.98819440      -0.97668654
C       -0.97112289       0.44342265      -0.53202813
C       -1.84802776       0.72745200       0.64866554
N        1.13555694       0.26658515       0.61881335
C        2.09399032      -0.71716298       1.03341227
C        1.31537333       0.99921836      -0.43366960
O        1.88620702       0.97338497      -1.50005759
H       -0.72478965      -1.65920576      -0.13106836
H       -1.80610759      -1.27495125      -1.47816665
H       -0.06733907      -1.12186850      -1.69869289
H       -1.22142102       1.06801331      -1.39079769
H       -1.73572190       1.75663882       0.98837575
H       -2.89583814       0.60150101       0.34999807
H       -1.64302646       0.05953393       1.48294983
H        2.86914227      -0.25596133       1.65205972
H        1.59175777      -1.49531209       1.60934719
H        2.61332036      -1.17556765       0.18470948
H        0.28369817       1.79247377      -0.42716375
18
Frame=7 idx=010234 GeodesicLength=0.8665957090038511 rxn_smarts="[C:1]([C:2]([C:3]([H:12])([H:13])[H:14])([N:4]([C:5]([H:15])([H:16])[H:17])[C:6](=[O:7])[H:18])[H:11])([H:8])([H:9])[H:10]>>[C:1]([C:2]([C:3]([H:12])([H:13])[H:14])([H:11])[H:18])([H:8])([H:9])[H:10].[N:4]([C:5]([H:15])([H:16])[H:17])=[C:6]=[O:7]"
C       -0.88444427      -0.99456396      -0.95578572
C       -0.95895631       0.44557072      -0.52263202
C       -1.85586561       0.73603853       0.64527203
N        1.15913982       0.25257045       0.57748627
C        2.10136292      -0.73118435       1.02329869
C        1.35282733       1.01555057      -0.44678240
O        1.88873494       1.01951596      -1.52895579
H       -0.72983148      -1.65688386      -0.10356606
H       -1.82116080      -1.28316321      -1.44344814
H       -0.08520267      -1.14590428      -1.68447110
H       -1.21879805       1.05375403      -1.39113250
H       -1.76681259       1.77380584       0.96557929
H       -2.89959204       0.58615824       0.34463341
H       -1.64693310       0.08811869       1.49475225
H        2.81159638      -0.28704902       1.72620446
H        1.57182204      -1.54608300       1.51841375
H        2.69754508      -1.13571695       0.19880083
H        0.28456842       1.80946560      -0.41766725
18
Frame=8 idx=010234 GeodesicLength=0.9887204614634063 rxn_smarts="[C:1]([C:2]([C:3]([H:12])([H:13])[H:14])([N:4]([C:5]([H:15])([H:16])[H:17])[C:6](=[O:7])[H:18])[H:11])([H:8])([H:9])[H:10]>>[C:1]([C:2]([C:3]([H:12])([H:13])[H:14])([H:11])[H:18])([H:8])([H:9])[H:10].[N:4]([C:5]([H:15])([H:16])[H:17])=[C:6]=[O:7]"
C       -0.89341068      -1.00087781      -0.93456066
C       -0.94634965       0.44746158      -0.51292202
C       -1.86294218       0.74455891       0.64200696
N        1.18373822       0.23797628       0.53338258
C        2.10792247      -0.74509507       1.01307827
C        1.39153613       1.03086960      -0.46119360
O        1.89052243       1.06694882      -1.55790412
H       -0.73427662      -1.65435591      -0.07592362
H       -1.83656957      -1.29100642      -1.40775392
H       -0.10439669      -1.17017504      -1.67049779
H       -1.21532736       1.03930973      -1.39074631
H       -1.79761998       1.79034489       0.94167534
H       -2.90234257       0.57059393       0.34059855
H       -1.64982027       0.11758301       1.50656097
H        2.74330748      -0.32233055       1.79587938
H        1.55916070      -1.59439938       1.42209860
H        2.78069077      -1.09320058       0.22321475
H        0.28617737       1.82579400      -0.40699336
18
Frame=9 idx=010234 GeodesicLength=1.110282448444371 rxn_smarts="[C:1]([C:2]([C:3]([H:12])([H:13])[H:14])([N:4]([C:5]([H:15])([H:16])[H:17])[C:6](=[O:7])[H:18])[H:11])([H:8])([H:9])[H:10]>>[C:1]([C:2]([C:3]([H:12])([H:13])[H:14])([H:11])[H:18])([H:8])([H:9])[H:10].[N:4]([C:5]([H:15])([H:16])[H:17])=[C:6]=[O:7]"
C       -0.90201293      -1.00725004      -0.91266169
C       -0.93305313       0.44901530      -0.50277043
C       -1.86912089       0.75295598       0.63891142
N        1.20951176       0.22329668       0.48636863
C        2.11296272      -0.75895243       1.00239714
C        1.43164725       1.04553323      -0.47704612
O        1.89166721       1.11653336      -1.58668029
H       -0.73778336      -1.65164732      -0.04770028
H       -1.85165673      -1.29875308      -1.37086515
H       -0.12429989      -1.19479849      -1.65624999
H       -1.21083259       1.02444834      -1.38961617
H       -1.82805914       1.80612720       0.91663868
H       -2.90392525       0.55468500       0.33791957
H       -1.65157873       0.14798802       1.51844183
H        2.66417070      -0.36225268       1.85881945
H        1.55360955      -1.63958679       1.32102876
H        2.86024428      -1.04897297       0.25807884
H        0.28850917       1.84163068      -0.39501420
18
Frame=10 idx=010234 GeodesicLength=1.2314681442210387 rxn_smarts="[C:1]([C:2]([C:3]([H:12])([H:13])[H:14])([N:4]([C:5]([H:15])([H:16])[H:17])[C:6](=[O:7])[H:18])[H:11])([H:8])([H:9])[H:10]>>[C:1]([C:2]([C:3]([H:12])([H:13])[H:14])([H:11])[H:18])([H:8])([H:9])[H:10].[N:4]([C:5]([H:15])([H:16])[H:17])=[C:6]=[O:7]"
C       -0.91005915      -1.01383927      -0.88969750
C       -0.91891753       0.45014160      -0.49209436
C       -1.87425423       0.76138886       0.63599400
N        1.23653528       0.20843446       0.43604800
C        2.11599325      -0.77289526       0.99092849
C        1.47327113       1.05947622      -0.49459288
O        1.89211363       1.16886797      -1.61511063
H       -0.74011670      -1.64874938      -0.01840919
H       -1.86622676      -1.30665540      -1.33228632
H       -0.14482752      -1.22000061      -1.64134468
H       -1.20511680       1.00893762      -1.38777372
H       -1.85793081       1.82126049       0.89025685
H       -2.90419786       0.53861348       0.33668081
H       -1.65207275       0.17971545       1.53047186
H        2.57288363      -0.40703869       1.91366724
H        1.55602591      -1.68201450       1.21453426
H        2.93520832      -1.00254015       0.30419286
H        0.29168896       1.85689713      -0.38146510
18
Frame=11 idx=010234 GeodesicLength=1.3523947026681233 rxn_smarts="[C:1]([C:2]([C:3]([H:12])([H:13])[H:14])([N:4]([C:5]([H:15])([H:16])[H:17])[C:6](=[O:7])[H:18])[H:11])([H:8])([H:9])[H:10]>>[C:1]([C:2]([C:3]([H:12])([H:13])[H:14])([H:11])[H:18])([H:8])([H:9])[H:10].[N:4]([C:5]([H:15])([H:16])[H:17])=[C:6]=[O:7]"
C       -0.91634465      -1.02068963      -0.86535677
C       -0.90344632       0.45078700      -0.48064294
C       -1.87819291       0.76939040       0.63331887
N        1.26508984       0.19478956       0.38267122
C        2.11574764      -0.78679033       0.97816781
C        1.51667017       1.07363556      -0.51388254
O        1.89201689       1.22524496      -1.64269301
H       -0.74053441      -1.64571017       0.01232394
H       -1.87876683      -1.31504449      -1.29214603
H       -0.16440165      -1.24573030      -1.62502791
H       -1.19784115       0.99253465      -1.38503421
H       -1.88723585       1.83509980       0.86284388
H       -2.90288845       0.52178617       0.33671751
H       -1.65135213       0.21221112       1.54261323
H        2.47196082      -0.45636270       1.95660399
H        1.56364222      -1.71904827       1.10625967
H        3.00025400      -0.95814640       0.35951175
H        0.29562275       1.87204309      -0.36624844
18
Frame=12 idx=010234 GeodesicLength=1.473760854375171 rxn_smarts="[C:1]([C:2]([C:3]([H:12])([H:13])[H:14])([N:4]([C:5]([H:15])([H:16])[H:17])[C:6](=[O:7])[H:18])[H:11])([H:8])([H:9])[H:10]>>[C:1]([C:2]([C:3]([H:12])([H:13])[H:14])([H:11])[H:18])([H:8])([H:9])[H:10].[N:4]([C:5]([H:15])([H:16])[H:17])=[C:6]=[O:7]"
C       -0.92101720      -1.02799241      -0.83922824
C       -0.88654400       0.45084818      -0.46834077
C       -1.88067629       0.77729829       0.63094358
N        1.29520099       0.18164991       0.32545358
C        2.11182418      -0.80081351       0.96375752
C        1.56196656       1.08742951      -0.53546912
O        1.89111811       1.28587360      -1.66931800
H       -0.73890739      -1.64252509       0.04496672
H       -1.88957768      -1.32408349      -1.24968172
H       -0.18350108      -1.27231814      -1.60710231
H       -1.18878213       0.97503205      -1.38140674
H       -1.91558790       1.84794687       0.83405223
H       -2.89978688       0.50460508       0.33833673
H       -1.64908357       0.24615948       1.55501218
H        2.35854754      -0.51017148       1.98714898
H        1.57826102      -1.75211618       0.99414955
H        3.05584419      -0.91349350       0.42568452
H        0.30070153       1.88667082      -0.34895869
18
Frame=13 idx=010234 GeodesicLength=1.5963535330317196 rxn_smarts="[C:1]([C:2]([C:3]([H:12])([H:13])[H:14])([N:4]([C:5]([H:15])([H:16])[H:17])[C:6](=[O:7])[H:18])[H:11])([H:8])([H:9])[H:10]>>[C:1]([C:2]([C:3]([H:12])([H:13])[H:14])([H:11])[H:18])([H:8])([H:9])[H:10].[N:4]([C:5]([H:15])([H:16])[H:17])=[C:6]=[O:7]"
C       -0.92310423      -1.03581254      -0.81106196
C       -0.86775063       0.45025363      -0.45493413
C       -1.88158248       0.78471686       0.62888624
N        1.32705773       0.16996623       0.26454567
C        2.10311674      -0.81470835       0.94716088
C        1.60938647       1.10141341      -0.55949854
O        1.88949776       1.35180329      -1.69420272
H       -0.73476196      -1.63928988       0.07982036
H       -1.89745662      -1.33400217      -1.20504464
H       -0.20078460      -1.29981740      -1.58687980
H       -1.17749715       0.95622286      -1.37668908
H       -1.94291739       1.85922547       0.80409032
H       -2.89465594       0.48664490       0.34131583
H       -1.64542997       0.28108973       1.56759276
H        2.23521383      -0.56706101       2.00218398
H        1.59698856      -1.77934895       0.88189050
H        3.09767462      -0.87227868       0.50007883
H        0.30700529       1.90098262      -0.32925450
18
Frame=14 idx=010234 GeodesicLength=1.7214402762161776 rxn_smarts="[C:1]([C:2]([C:3]([H:12])([H:13])[H:14])([N:4]([C:5]([H:15])([H:16])[H:17])[C:6](=[O:7])[H:18])[H:11])([H:8])([H:9])[H:10]>>[C:1]([C:2]([C:3]([H:12])([H:13])[H:14])([H:11])[H:18])([H:8])([H:9])[H:10].[N:4]([C:5]([H:15])([H:16])[H:17])=[C:6]=[O:7]"
C       -0.92234837      -1.04420452      -0.78091327
C       -0.84676044       0.44889558      -0.44026125
C       -1.88051951       0.79141430       0.62737464
N        1.36073181       0.15945298       0.19929310
C        2.08878747      -0.82815074       0.92813968
C        1.65913559       1.11520601      -0.58664558
O        1.88705578       1.42317122      -1.71689045
H       -0.72800495      -1.63623496       0.11672062
H       -1.90217136      -1.34467955      -1.15837034
H       -0.21602557      -1.32828670      -1.56437212
H       -1.16368097       0.93614032      -1.37061709
H       -1.96863900       1.86855297       0.77336067
H       -2.88713420       0.46786947       0.34592775
H       -1.64006990       0.31664311       1.58042040
H        2.10187526      -0.62477380       2.00026970
H        1.61886978      -1.80078568       0.77128673
H        3.12384844      -0.83486229       0.58192372
H        0.31505013       1.91463226      -0.30664692
18
Frame=15 idx=010234 GeodesicLength=1.8507516417785157 rxn_smarts="[C:1]([C:2]([C:3]([H:12])([H:13])[H:14])([N:4]([C:5]([H:15])([H:16])[H:17])[C:6](=[O:7])[H:18])[H:11])([H:8])([H:9])[H:10]>>[C:1]([C:2]([C:3]([H:12])([H:13])[H:14])([H:11])[H:18])([H:8])([H:9])[H:10].[N:4]([C:5]([H:15])([H:16])[H:17])=[C:6]=[O:7]"
C       -0.91833406      -1.05323085      -0.74897779
C       -0.82319836       0.44661630      -0.42411409
C       -1.87720856       0.79694387       0.62657735
N        1.39623139       0.15019152       0.12947984
C        2.06798043      -0.84036235       0.90642814
C        1.71128251       1.12856391      -0.61745700
O        1.88408289       1.50027279      -1.73633814
H       -0.71885761      -1.63369719       0.15541374
H       -1.90321735      -1.35598920      -1.11026029
H       -0.22849289      -1.35780454      -1.53941809
H       -1.14696058       0.91478897      -1.36288093
H       -1.99219530       1.87533686       0.74247736
H       -2.87694174       0.44812902       0.35210570
H       -1.63305030       0.35199575       1.59346439
H        1.96067183      -0.67998776       1.98013780
H        1.64102380      -1.81602194       0.66584365
H        3.13193658      -0.80306989       0.66818441
H        0.32524731       1.92732474      -0.28066606
18
Frame=16 idx=010234 GeodesicLength=1.9870775552820128 rxn_smarts="[C:1]([C:2]([C:3]([H:12])([H:13])[H:14])([N:4]([C:5]([H:15])([H:16])[H:17])[C:6](=[O:7])[H:18])[H:11])([H:8])([H:9])[H:10]>>[C:1]([C:2]([C:3]([H:12])([H:13])[H:14])([H:11])[H:18])([H:8])([H:9])[H:10].[N:4]([C:5]([H:15])([H:16])[H:17])=[C:6]=[O:7]"
C       -0.91106813      -1.06302831      -0.71516284
C       -0.79674185       0.44322278      -0.40621274
C       -1.87120058       0.80132200       0.62677685
N        1.43343310       0.14154580       0.05460564
C        2.03997417      -0.85082016       0.88147732
C        1.76583634       1.14051721      -0.65292052
O        1.88058561       1.58230906      -1.75176071
H       -0.70778300      -1.63202069       0.19596894
H       -1.90067408      -1.36768011      -1.06084313
H       -0.23819470      -1.38863637      -1.51182728
H       -1.12692692       0.89214342      -1.35315135
H       -2.01292518       1.87955640       0.71162270
H       -2.86370899       0.42761106       0.36022622
H       -1.62394541       0.38721165       1.60697413
H        1.80998402      -0.73152845       1.94074435
H        1.66418507      -1.82631001       0.56517067
H        3.12073616      -0.77379065       0.75900699
H        0.33843436       1.93837537      -0.25069524
