11
Frame=0 idx=002407 GeodesicLength=0.0 rxn_smarts="[C:1]1([H:6])([H:7])[C@@:2]2([H:8])[C:3]([H:9])([H:10])[O:4][C@@:5]12[H:11]>>[C:1]([C:2]1([H:8])[C-:3]([H:10])[O+:4]=[C:5]1[H:11])([H:6])([H:7])[H:9]"
C       -0.85890966      -0.84161410      -0.14540851
C       -0.02908298       0.07214567       0.74021083
C        1.25729079      -0.05234042      -0.09125342
O        0.95308796       1.17084079      -0.74395200
C       -0.22982975       1.19747598      -0.18447685
H       -1.92524207      -0.62970010      -0.21669773
H       -0.67873883      -1.90190668       0.02691578
H       -0.05985706       0.13479891       1.82474151
H        0.32284668      -0.80056825      -0.88432521
H        2.28932962      -0.15426780       0.23294718
H       -1.04089472       1.80513596      -0.55870156
11
Frame=1 idx=002407 GeodesicLength=0.052035764871128334 rxn_smarts="[C:1]1([H:6])([H:7])[C@@:2]2([H:8])[C:3]([H:9])([H:10])[O:4][C@@:5]12[H:11]>>[C:1]([C:2]1([H:8])[C-:3]([H:10])[O+:4]=[C:5]1[H:11])([H:6])([H:7])[H:9]"
C       -0.86268937      -0.83580843      -0.14968365
C       -0.02403842       0.06762496       0.73668509
C        1.26314034      -0.05029528      -0.09327735
O        0.95443071       1.17320196      -0.74236755
C       -0.23614215       1.18997838      -0.18959874
H       -1.93065185      -0.62603147      -0.20118569
H       -0.69415045      -1.89838597       0.01968846
H       -0.05378654       0.13133982       1.82071963
H        0.33462765      -0.82068999      -0.89030482
H        2.29154705      -0.13880470       0.24647584
H       -1.04228698       1.80787070      -0.55715122
11
Frame=2 idx=002407 GeodesicLength=0.10408974439679744 rxn_smarts="[C:1]1([H:6])([H:7])[C@@:2]2([H:8])[C:3]([H:9])([H:10])[O:4][C@@:5]12[H:11]>>[C:1]([C:2]1([H:8])[C-:3]([H:10])[O+:4]=[C:5]1[H:11])([H:6])([H:7])[H:9]"
C       -0.86644388      -0.83000769      -0.15395228
C       -0.01911588       0.06319349       0.73307520
C        1.26891753      -0.04817274      -0.09531166
O        0.95567464       1.17556741      -0.74087281
C       -0.24239156       1.18258114      -0.19472663
H       -1.93568528      -0.62244698      -0.18590143
H       -0.70940751      -1.89472163       0.01241818
H       -0.04784887       0.12795194       1.81661797
H        0.34650074      -0.84121980      -0.89581998
H        2.29336654      -0.12346782       0.25969296
H       -1.04356648       1.81074268      -0.55521953
11
Frame=3 idx=002407 GeodesicLength=0.15613229796964712 rxn_smarts="[C:1]1([H:6])([H:7])[C@@:2]2([H:8])[C:3]([H:9])([H:10])[O:4][C@@:5]12[H:11]>>[C:1]([C:2]1([H:8])[C-:3]([H:10])[O+:4]=[C:5]1[H:11])([H:6])([H:7])[H:9]"
C       -0.87017498      -0.82421150      -0.15821801
C       -0.01431028       0.05884909       0.72937178
C        1.27461774      -0.04597475      -0.09736547
O        0.95682390       1.17793813      -0.73946988
C       -0.24857581       1.17528531      -0.19986353
H       -1.94035752      -0.61893912      -0.17083200
H       -0.72451588      -1.89092013       0.00507944
H       -0.04203175       0.12462974       1.81242114
H        0.35846121      -0.86217244      -0.90083817
H        2.29479208      -0.10823231       0.27261396
H       -1.04472871       1.81374799      -0.55289926
11
Frame=4 idx=002407 GeodesicLength=0.20819341926613807 rxn_smarts="[C:1]1([H:6])([H:7])[C@@:2]2([H:8])[C:3]([H:9])([H:10])[O:4][C@@:5]12[H:11]>>[C:1]([C:2]1([H:8])[C-:3]([H:10])[O+:4]=[C:5]1[H:11])([H:6])([H:7])[H:9]"
C       -0.87389044      -0.81841675      -0.16246294
C       -0.00961997       0.05459859       0.72558703
C        1.28023797      -0.04369496      -0.09944022
O        0.95787838       1.18033140      -0.73814402
C       -0.25470704       1.16810327      -0.20499655
H       -1.94468118      -0.61550225      -0.15601696
H       -0.73946072      -1.88698267      -0.00232774
H       -0.03633058       0.12138112       1.80814626
H        0.37051355      -0.88354739      -0.90534951
H        2.29584424      -0.09313465       0.28520835
H       -1.04578422       1.81686427      -0.55020370
11
Frame=5 idx=002407 GeodesicLength=0.260261854366783 rxn_smarts="[C:1]1([H:6])([H:7])[C@@:2]2([H:8])[C:3]([H:9])([H:10])[O:4][C@@:5]12[H:11]>>[C:1]([C:2]1([H:8])[C-:3]([H:10])[O+:4]=[C:5]1[H:11])([H:6])([H:7])[H:9]"
C       -0.87759382      -0.81262054      -0.16669068
C       -0.00504087       0.05043955       0.72171599
C        1.28577622      -0.04133574      -0.10154700
O        0.95883733       1.18274957      -0.73690173
C       -0.26078818       1.16103968      -0.21012900
H       -1.94867554      -0.61213036      -0.14143837
H       -0.75424323      -1.88291516      -0.00983258
H       -0.03073194       0.11819679       1.80378821
H        0.38266318      -0.90536007      -0.90932431
H        2.29652637      -0.07815844       0.29749263
H       -1.04672952       1.82009472      -0.54713316
11
Frame=6 idx=002407 GeodesicLength=0.31235868899695485 rxn_smarts="[C:1]1([H:6])([H:7])[C@@:2]2([H:8])[C:3]([H:9])([H:10])[O:4][C@@:5]12[H:11]>>[C:1]([C:2]1([H:8])[C-:3]([H:10])[O+:4]=[C:5]1[H:11])([H:6])([H:7])[H:9]"
C       -0.88128981      -0.80681619      -0.17091184
C       -0.00056815       0.04636921       0.71775372
C        1.29123427      -0.03889629      -0.10369362
O        0.95970371       1.18519813      -0.73573977
C       -0.26682504       1.15409627      -0.21525535
H       -1.95235947      -0.60880092      -0.12709067
H       -0.76888002      -1.87871303      -0.01744906
H       -0.02522163       0.11506312       1.79934272
H        0.39492174      -0.92763082      -0.91273885
H        2.29685644      -0.06328264       0.30947179
H       -1.04757204       1.82341316      -0.54368908
11
Frame=7 idx=002407 GeodesicLength=0.3644605628740742 rxn_smarts="[C:1]1([H:6])([H:7])[C@@:2]2([H:8])[C:3]([H:9])([H:10])[O:4][C@@:5]12[H:11]>>[C:1]([C:2]1([H:8])[C-:3]([H:10])[O+:4]=[C:5]1[H:11])([H:6])([H:7])[H:9]"
C       -0.88498097      -0.80100228      -0.17511372
C        0.00379971       0.04239296       0.71370537
C        1.29660702      -0.03637282      -0.10588416
O        0.96048033       1.18768956      -0.73465126
C       -0.27282141       1.14728537      -0.22037111
H       -1.95574532      -0.60552526      -0.11298290
H       -0.78334990      -1.87438358      -0.02519993
H       -0.01980145       0.11198721       1.79481554
H        0.40728321      -0.95035622      -0.91556198
H        2.29684498      -0.04853794       0.32112613
H       -1.04831619       1.82682300      -0.53988198
11
Frame=8 idx=002407 GeodesicLength=0.4165722926444275 rxn_smarts="[C:1]1([H:6])([H:7])[C@@:2]2([H:8])[C:3]([H:9])([H:10])[O:4][C@@:5]12[H:11]>>[C:1]([C:2]1([H:8])[C-:3]([H:10])[O+:4]=[C:5]1[H:11])([H:6])([H:7])[H:9]"
C       -0.88867048      -0.79517334      -0.17928956
C        0.00806556       0.03851440       0.70957585
C        1.30188942      -0.03376162      -0.10812392
O        0.96116726       1.19024039      -0.73361890
C       -0.27878488       1.14061633      -0.22546400
H       -1.95884893      -0.60229767      -0.09912813
H       -0.79764228      -1.86992470      -0.03309415
H       -0.01446514       0.10896888       1.79021183
H        0.41975071      -0.97353606      -0.91777524
H        2.29650790      -0.03394823       0.33243618
H       -1.04896913       1.83030161      -0.53572996
11
Frame=9 idx=002407 GeodesicLength=0.4686842718252209 rxn_smarts="[C:1]1([H:6])([H:7])[C@@:2]2([H:8])[C:3]([H:9])([H:10])[O:4][C@@:5]12[H:11]>>[C:1]([C:2]1([H:8])[C-:3]([H:10])[O+:4]=[C:5]1[H:11])([H:6])([H:7])[H:9]"
C       -0.89236021      -0.78932421      -0.18343380
C        0.01223275       0.03473606       0.70536904
C        1.30707652      -0.03105978      -0.11041960
O        0.96176630       1.19286690      -0.73262565
C       -0.28472121       1.13409907      -0.23052195
H       -1.96168573      -0.59911524      -0.08553381
H       -0.81174669      -1.86533574      -0.04114414
H       -0.00920666       0.10600649       1.78553556
H        0.43232340      -0.99716629      -0.91935597
H        2.29586155      -0.01953724       0.34338497
H       -1.04954002       1.83382998      -0.53125464
11
Frame=10 idx=002407 GeodesicLength=0.5207906312840875 rxn_smarts="[C:1]1([H:6])([H:7])[C@@:2]2([H:8])[C:3]([H:9])([H:10])[O:4][C@@:5]12[H:11]>>[C:1]([C:2]1([H:8])[C-:3]([H:10])[O+:4]=[C:5]1[H:11])([H:6])([H:7])[H:9]"
C       -0.89605306      -0.78344851      -0.18754174
C        0.01630466       0.03106021       0.70108884
C        1.31216394      -0.02826454      -0.11277860
O        0.96227941       1.19558606      -0.73165390
C       -0.29063574       1.12774382      -0.23553278
H       -1.96427230      -0.59597697      -0.07220206
H       -0.82565264      -1.86061589      -0.04936402
H       -0.00401963       0.10309776       1.78079124
H        0.44500116      -1.02124192      -0.92028402
H        2.29492278      -0.00532956       0.35395799
H       -1.05003859       1.83738954      -0.52648095
11
Frame=11 idx=002407 GeodesicLength=0.5728787158260688 rxn_smarts="[C:1]1([H:6])([H:7])[C@@:2]2([H:8])[C:3]([H:9])([H:10])[O:4][C@@:5]12[H:11]>>[C:1]([C:2]1([H:8])[C-:3]([H:10])[O+:4]=[C:5]1[H:11])([H:6])([H:7])[H:9]"
C       -0.89975091      -0.77753931      -0.19161103
C        0.02028533       0.02748760       0.69673796
C        1.31714693      -0.02537500      -0.11521019
O        0.96270835       1.19841511      -0.73068493
C       -0.29653343       1.12156136      -0.24048190
H       -1.96662404      -0.59288103      -0.05913316
H       -0.83935053      -1.85576275      -0.05776603
H        0.00110319       0.10023647       1.77598185
H        0.45778254      -1.04575721      -0.92053712
H        2.29370853       0.00865254       0.36414203
H       -1.05047596       1.84096221      -0.52143747
11
Frame=12 idx=002407 GeodesicLength=0.6249529510895738 rxn_smarts="[C:1]1([H:6])([H:7])[C@@:2]2([H:8])[C:3]([H:9])([H:10])[O:4][C@@:5]12[H:11]>>[C:1]([C:2]1([H:8])[C-:3]([H:10])[O+:4]=[C:5]1[H:11])([H:6])([H:7])[H:9]"
C       -0.90345884      -0.77158816      -0.19564523
C        0.02417854       0.02401741       0.69231517
C        1.32202455      -0.02238973      -0.11772476
O        0.96305376       1.20136437      -0.72971227
C       -0.30241829       1.11555940      -0.24536197
H       -1.96875725      -0.58982637      -0.04631291
H       -0.85284105      -1.85077352      -0.06637607
H        0.00617102       0.09741366       1.77110768
H        0.47067449      -1.07072077      -0.92008605
H        2.29223370       0.02240440       0.37393590
H       -1.05086064       1.84453932      -0.51613949
11
Frame=13 idx=002407 GeodesicLength=0.6770098226982432 rxn_smarts="[C:1]1([H:6])([H:7])[C@@:2]2([H:8])[C:3]([H:9])([H:10])[O:4][C@@:5]12[H:11]>>[C:1]([C:2]1([H:8])[C-:3]([H:10])[O+:4]=[C:5]1[H:11])([H:6])([H:7])[H:9]"
C       -0.90718027      -0.76558632      -0.19964813
C        0.02798796       0.02064861       0.68781804
C        1.32679195      -0.01930787      -0.12033416
O        0.96331395       1.20444533      -0.72872599
C       -0.30829368       1.10974643      -0.25016271
H       -1.97068306      -0.58681272      -0.03372575
H       -0.86612508      -1.84564385      -0.07521968
H        0.01119449       0.09461889       1.76616557
H        0.48368570      -1.09613991      -0.91889783
H        2.29050711       0.03591933       0.38333609
H       -1.05119907       1.84811209      -0.51060545
11
Frame=14 idx=002407 GeodesicLength=0.7290627839839604 rxn_smarts="[C:1]1([H:6])([H:7])[C@@:2]2([H:8])[C:3]([H:9])([H:10])[O:4][C@@:5]12[H:11]>>[C:1]([C:2]1([H:8])[C-:3]([H:10])[O+:4]=[C:5]1[H:11])([H:6])([H:7])[H:9]"
C       -0.91092162      -0.75952171      -0.20363088
C        0.03171713       0.01737783       0.68324091
C        1.33145134      -0.01612874      -0.12304925
O        0.96348755       1.20766115      -0.72773094
C       -0.31416399       1.10412932      -0.25487881
H       -1.97241522      -0.58383737      -0.02134760
H       -0.87921227      -1.84036766      -0.08434063
H        0.01618407       0.09183630       1.76115193
H        0.49682856      -1.12204197      -0.91692018
H        2.28854475       0.04921147       0.39234419
H       -1.05150031       1.85168139      -0.50483875
11
Frame=15 idx=002407 GeodesicLength=0.7811148402282566 rxn_smarts="[C:1]1([H:6])([H:7])[C@@:2]2([H:8])[C:3]([H:9])([H:10])[O:4][C@@:5]12[H:11]>>[C:1]([C:2]1([H:8])[C-:3]([H:10])[O+:4]=[C:5]1[H:11])([H:6])([H:7])[H:9]"
C       -0.91468790      -0.75338333      -0.20760602
C        0.03536908       0.01420284       0.67857545
C        1.33600008      -0.01285116      -0.12588545
O        0.96357040       1.21101643      -0.72673352
C       -0.32003254       1.09871594      -0.25950620
H       -1.97396181      -0.58090236      -0.00915732
H       -0.89211334      -1.83493827      -0.09378182
H        0.02115208       0.08904858       1.75605880
H        0.51011919      -1.14845606      -0.91408908
H        2.28635241       0.06229382       0.40095998
H       -1.05176764       1.85525357      -0.49883481
11
Frame=16 idx=002407 GeodesicLength=0.8331676785862728 rxn_smarts="[C:1]1([H:6])([H:7])[C@@:2]2([H:8])[C:3]([H:9])([H:10])[O:4][C@@:5]12[H:11]>>[C:1]([C:2]1([H:8])[C-:3]([H:10])[O+:4]=[C:5]1[H:11])([H:6])([H:7])[H:9]"
C       -0.91848339      -0.74716062      -0.21158039
C        0.03894656       0.01112287       0.67381774
C        1.34043500      -0.00947544      -0.12885741
O        0.96356101       1.21452040      -0.72572931
C       -0.32590422       1.09351564      -0.26403614
H       -1.97533159      -0.57801282       0.00285844
H       -0.90482512      -1.82934768      -0.10357618
H        0.02610651       0.08624559       1.75088323
H        0.52356510      -1.17539472      -0.91035434
H        2.28394099       0.07515810       0.40917571
H       -1.05201084       1.85882870      -0.49260136
