14
Frame=0 idx=009310 GeodesicLength=0.0 rxn_smarts="[C:1]([C:2]([C@@:3]1([C:6]#[N:7])[C:4]([H:13])([H:14])[O:5]1)([H:11])[H:12])([H:8])([H:9])[H:10]>>[C:1]([C:2]([C:3](=[O:5])[C:6]1=[N:7][C:4]1([H:13])[H:14])([H:11])[H:12])([H:8])([H:9])[H:10]"
C       -2.03586606      -0.00224717      -0.03734517
C       -0.77464878      -0.78012757       0.31206996
C        0.42812027      -0.25612381      -0.37221309
C        2.29539517       0.12538112       0.00559109
O        1.55729810      -0.99225565      -0.39063030
C        0.85867242       1.11644273      -0.49914302
N        0.62769313       2.28194297      -0.58494748
H       -1.93177599       1.05041483       0.22899723
H       -2.89403046      -0.41074775       0.49587392
H       -2.24250088      -0.05502566      -1.10656804
H       -0.59499408      -0.77389000       1.39520154
H       -0.84779822      -1.83676914       0.03332744
H        3.20643518       0.28846362      -0.56088876
H        2.34800014       0.24454153       1.08067465
14
Frame=1 idx=009310 GeodesicLength=0.09419627413647212 rxn_smarts="[C:1]([C:2]([C@@:3]1([C:6]#[N:7])[C:4]([H:13])([H:14])[O:5]1)([H:11])[H:12])([H:8])([H:9])[H:10]>>[C:1]([C:2]([C:3](=[O:5])[C:6]1=[N:7][C:4]1([H:13])[H:14])([H:11])[H:12])([H:8])([H:9])[H:10]"
C       -2.03497234      -0.00120085      -0.03665220
C       -0.77508175      -0.78177997       0.31145782
C        0.43111796      -0.27308907      -0.37994115
C        2.28949852       0.14054059       0.00846323
O        1.55525111      -1.01124881      -0.39673072
C        0.84931798       1.09991952      -0.54065142
N        0.65708710       2.27493479      -0.55766947
H       -1.93205813       1.04998497       0.23588396
H       -2.89413774      -0.40910678       0.49558663
H       -2.24388647      -0.05139729      -1.10555346
H       -0.59112481      -0.76699080       1.39346419
H       -0.85857569      -1.83934416       0.03974088
H        3.20213845       0.31608590      -0.55183478
H        2.34542582       0.25269196       1.08443649
14
Frame=2 idx=009310 GeodesicLength=0.1884022062626515 rxn_smarts="[C:1]([C:2]([C@@:3]1([C:6]#[N:7])[C:4]([H:13])([H:14])[O:5]1)([H:11])[H:12])([H:8])([H:9])[H:10]>>[C:1]([C:2]([C:3](=[O:5])[C:6]1=[N:7][C:4]1([H:13])[H:14])([H:11])[H:12])([H:8])([H:9])[H:10]"
C       -2.03380921       0.00042313      -0.03508923
C       -0.77550165      -0.78383050       0.31046111
C        0.43444023      -0.28898742      -0.38611339
C        2.28334750       0.15657164       0.01257087
O        1.55309957      -1.02971740      -0.40327705
C        0.83986108       1.08449798      -0.57691767
N        0.68538868       2.26437456      -0.54088200
H       -1.93193426       1.04952308       0.24574721
H       -2.89422861      -0.40782313       0.49503261
H       -2.24458170      -0.04495503      -1.10384101
H       -0.58769909      -0.76307900       1.39139119
H       -0.86934175      -1.84155924       0.04334650
H        3.19713363       0.34467524      -0.54192002
H        2.34382557       0.25988610       1.08949089
14
Frame=3 idx=009310 GeodesicLength=0.28261219482205924 rxn_smarts="[C:1]([C:2]([C@@:3]1([C:6]#[N:7])[C:4]([H:13])([H:14])[O:5]1)([H:11])[H:12])([H:8])([H:9])[H:10]>>[C:1]([C:2]([C:3](=[O:5])[C:6]1=[N:7][C:4]1([H:13])[H:14])([H:11])[H:12])([H:8])([H:9])[H:10]"
C       -2.03238670       0.00247084      -0.03295195
C       -0.77588901      -0.78615358       0.30923844
C        0.43808108      -0.30408412      -0.39100073
C        2.27700350       0.17320667       0.01763987
O        1.55077436      -1.04802740      -0.41024108
C        0.83052085       1.06981000      -0.60912132
N        0.71236110       2.25176974      -0.53183060
H       -1.93151058       1.04898365       0.25773327
H       -2.89430191      -0.40679130       0.49412045
H       -2.24458034      -0.03646274      -1.10167947
H       -0.58466795      -0.76135621       1.38916833
H       -0.88007814      -1.84348700       0.04496117
H        3.19149812       0.37370039      -0.53149489
H        2.34317561       0.26642105       1.09545852
14
Frame=4 idx=009310 GeodesicLength=0.3768287106396999 rxn_smarts="[C:1]([C:2]([C@@:3]1([C:6]#[N:7])[C:4]([H:13])([H:14])[O:5]1)([H:11])[H:12])([H:8])([H:9])[H:10]>>[C:1]([C:2]([C:3](=[O:5])[C:6]1=[N:7][C:4]1([H:13])[H:14])([H:11])[H:12])([H:8])([H:9])[H:10]"
C       -2.03072894       0.00482492      -0.03046502
C       -0.77623342      -0.78863743       0.30791031
C        0.44202807      -0.31853218      -0.39477328
C        2.27049962       0.19030264       0.02344688
O        1.54819907      -1.06640717      -0.41764735
C        0.82140924       1.05563890      -0.63812775
N        0.73796576       2.23795040      -0.52837414
H       -1.93089553       1.04833498       0.27117464
H       -2.89436620      -0.40593280       0.49278430
H       -2.24389871      -0.02651645      -1.09925075
H       -0.58199972      -0.76118932       1.38692229
H       -0.89075203      -1.84515463       0.04520407
H        3.18529351       0.40281697      -0.52083902
H        2.34347926       0.27250118       1.10203483
14
Frame=5 idx=009310 GeodesicLength=0.4710558801581466 rxn_smarts="[C:1]([C:2]([C@@:3]1([C:6]#[N:7])[C:4]([H:13])([H:14])[O:5]1)([H:11])[H:12])([H:8])([H:9])[H:10]>>[C:1]([C:2]([C:3](=[O:5])[C:6]1=[N:7][C:4]1([H:13])[H:14])([H:11])[H:12])([H:8])([H:9])[H:10]"
C       -2.02884961       0.00741526      -0.02777507
C       -0.77652914      -0.79121174       0.30655781
C        0.44628193      -0.33243801      -0.39752784
C        2.26385771       0.20779239       0.02984177
O        1.54531334      -1.08501951      -0.42550802
C        0.81258627       1.04184298      -0.66455807
N        0.76217802       2.22337853      -0.52903660
H       -1.93016675       1.04756123       0.28564545
H       -2.89442933      -0.40519074       0.49097025
H       -2.24253236      -0.01548622      -1.09667836
H       -0.57968260      -0.76216413       1.38474093
H       -0.90134388      -1.84658151       0.04447480
H        3.17857512       0.43179635      -0.51015630
H        2.34474128       0.27830511       1.10900925
14
Frame=6 idx=009310 GeodesicLength=0.5653043510431579 rxn_smarts="[C:1]([C:2]([C@@:3]1([C:6]#[N:7])[C:4]([H:13])([H:14])[O:5]1)([H:11])[H:12])([H:8])([H:9])[H:10]>>[C:1]([C:2]([C:3](=[O:5])[C:6]1=[N:7][C:4]1([H:13])[H:14])([H:11])[H:12])([H:8])([H:9])[H:10]"
C       -2.02670570       0.01024888      -0.02487298
C       -0.77675908      -0.79390353       0.30516166
C        0.45085770      -0.34596186      -0.39938589
C        2.25701568       0.22570208       0.03682484
O        1.54211823      -1.10399279      -0.43375708
C        0.80405402       1.02821077      -0.68901487
N        0.78498056       2.20824106      -0.53326655
H       -1.92923135       1.04662531       0.30116150
H       -2.89445058      -0.40451076       0.48868338
H       -2.24045361      -0.00333145      -1.09392885
H       -0.57764035      -0.76422186       1.38259774
H       -0.91190576      -1.84780001       0.04282811
H        3.17137703       0.46055993      -0.49936176
H        2.34674321       0.28413423       1.11633075
14
Frame=7 idx=009310 GeodesicLength=0.6595789230674132 rxn_smarts="[C:1]([C:2]([C@@:3]1([C:6]#[N:7])[C:4]([H:13])([H:14])[O:5]1)([H:11])[H:12])([H:8])([H:9])[H:10]>>[C:1]([C:2]([C:3](=[O:5])[C:6]1=[N:7][C:4]1([H:13])[H:14])([H:11])[H:12])([H:8])([H:9])[H:10]"
C       -2.02430223       0.01329623      -0.02182501
C       -0.77692487      -0.79668700       0.30376264
C        0.45577187      -0.35916475      -0.40037106
C        2.24997994       0.24403617       0.04432282
O        1.53856804      -1.12342510      -0.44240881
C        0.79584089       1.01465966      -0.71182299
N        0.80637624       2.19271470      -0.54030329
H       -1.92812708       1.04551762       0.31751146
H       -2.89444098      -0.40384704       0.48589572
H       -2.23764371       0.00977604      -1.09105027
H       -0.57588906      -0.76718197       1.38053687
H       -0.92243563      -1.84882114       0.04044176
H        3.16374302       0.48900420      -0.48857695
H        2.34948356       0.29012239       1.12388710
14
Frame=8 idx=009310 GeodesicLength=0.7538814730801416 rxn_smarts="[C:1]([C:2]([C@@:3]1([C:6]#[N:7])[C:4]([H:13])([H:14])[O:5]1)([H:11])[H:12])([H:8])([H:9])[H:10]>>[C:1]([C:2]([C:3](=[O:5])[C:6]1=[N:7][C:4]1([H:13])[H:14])([H:11])[H:12])([H:8])([H:9])[H:10]"
C       -2.02162451       0.01654670      -0.01865432
C       -0.77702027      -0.79955829       0.30237396
C        0.46103946      -0.37211085      -0.40050386
C        2.24272203       0.26282787       0.05231451
O        1.53461698      -1.14338928      -0.45148175
C        0.78794866       1.00109367      -0.73324701
N        0.82638707       2.17688894      -0.54970889
H       -1.92683952       1.04421676       0.33460486
H       -2.89438601      -0.40315659       0.48259387
H       -2.23407986       0.02377283      -1.08804552
H       -0.57441816      -0.77096601       1.37856968
H       -0.93294272      -1.84964865       0.03739551
H        3.15569033       0.51707811      -0.47783195
H        2.35290653       0.29640479       1.13162091
14
Frame=9 idx=009310 GeodesicLength=0.8482192419478601 rxn_smarts="[C:1]([C:2]([C@@:3]1([C:6]#[N:7])[C:4]([H:13])([H:14])[O:5]1)([H:11])[H:12])([H:8])([H:9])[H:10]>>[C:1]([C:2]([C:3](=[O:5])[C:6]1=[N:7][C:4]1([H:13])[H:14])([H:11])[H:12])([H:8])([H:9])[H:10]"
C       -2.01865848       0.01999300      -0.01537689
C       -0.77703956      -0.80251732       0.30100704
C        0.46668052      -0.38485336      -0.39979014
C        2.23521279       0.28212086       0.06078794
O        1.53021266      -1.16395139      -0.46100852
C        0.78038003       0.98743267      -0.75349235
N        0.84504008       2.16082248      -0.56113818
H       -1.92535661       1.04270697       0.35236550
H       -2.89427318      -0.40239860       0.47876902
H       -2.22973686       0.03860726      -1.08491209
H       -0.57322589      -0.77552149       1.37670737
H       -0.94343480      -1.85028651       0.03374679
H        3.14723369       0.54474798      -0.46715409
H        2.35696560       0.30309745       1.13948859
14
Frame=10 idx=009310 GeodesicLength=0.9425989892635087 rxn_smarts="[C:1]([C:2]([C@@:3]1([C:6]#[N:7])[C:4]([H:13])([H:14])[O:5]1)([H:11])[H:12])([H:8])([H:9])[H:10]>>[C:1]([C:2]([C:3](=[O:5])[C:6]1=[N:7][C:4]1([H:13])[H:14])([H:11])[H:12])([H:8])([H:9])[H:10]"
C       -2.01538287       0.02363449      -0.01199525
C       -0.77697260      -0.80557059       0.29966593
C        0.47272022      -0.39744452      -0.39823349
C        2.22740798       0.30197159       0.06974810
O        1.52529949      -1.18517235      -0.47103400
C        0.77313527       0.97359637      -0.77273259
N        0.86236392       2.14454439      -0.57435696
H       -1.92365336       1.04097266       0.37075175
H       -2.89408258      -0.40153028       0.47442033
H       -2.22458112       0.05425808      -1.08163447
H       -0.57230711      -0.78082831       1.37495416
H       -0.95391794      -1.85073767       0.02952430
H        3.13837612       0.57199838      -0.45654484
H        2.36159459       0.31030777       1.14746702
14
Frame=11 idx=009310 GeodesicLength=1.037011741727675 rxn_smarts="[C:1]([C:2]([C@@:3]1([C:6]#[N:7])[C:4]([H:13])([H:14])[O:5]1)([H:11])[H:12])([H:8])([H:9])[H:10]>>[C:1]([C:2]([C:3](=[O:5])[C:6]1=[N:7][C:4]1([H:13])[H:14])([H:11])[H:12])([H:8])([H:9])[H:10]"
C       -2.01181608       0.02743016      -0.00857299
C       -0.77681520      -0.80867276       0.29839718
C        0.47917353      -0.40986533      -0.39578363
C        2.21931430       0.32240946       0.07915986
O        1.51975459      -1.20707745      -0.48169119
C        0.76621999       0.95959445      -0.79097390
N        0.87843008       2.12812413      -0.58892849
H       -1.92180651       1.03900815       0.38954172
H       -2.89381676      -0.40053782       0.46952457
H       -2.21861743       0.07052003      -1.07826026
H       -0.57168994      -0.78673504       1.37335546
H       -0.96435230      -1.85097872       0.02487370
H        3.12913345       0.59876988      -0.44611694
H        2.36688828       0.31801086       1.15547491
14
Frame=12 idx=009310 GeodesicLength=1.1314842258414968 rxn_smarts="[C:1]([C:2]([C@@:3]1([C:6]#[N:7])[C:4]([H:13])([H:14])[O:5]1)([H:11])[H:12])([H:8])([H:9])[H:10]>>[C:1]([C:2]([C:3](=[O:5])[C:6]1=[N:7][C:4]1([H:13])[H:14])([H:11])[H:12])([H:8])([H:9])[H:10]"
C       -2.00787982       0.03143419      -0.00502645
C       -0.77654530      -0.81189662       0.29714649
C        0.48609539      -0.42224481      -0.39247204
C        2.21081418       0.34355522       0.08910057
O        1.51356390      -1.22975630      -0.49294173
C        0.75963112       0.94524178      -0.80849018
N        0.89321287       2.11147637      -0.60503286
H       -1.91966134       1.03678663       0.40894502
H       -2.89341981      -0.39934679       0.46410500
H       -2.21175280       0.08762637      -1.07468038
H       -0.57133836      -0.79343017       1.37185409
H       -0.97480216      -1.85103126       0.01963853
H        3.11947482       0.62512769      -0.43571760
H        2.37260732       0.32645770       1.16357154
14
Frame=13 idx=009310 GeodesicLength=1.226009740164425 rxn_smarts="[C:1]([C:2]([C@@:3]1([C:6]#[N:7])[C:4]([H:13])([H:14])[O:5]1)([H:11])[H:12])([H:8])([H:9])[H:10]>>[C:1]([C:2]([C:3](=[O:5])[C:6]1=[N:7][C:4]1([H:13])[H:14])([H:11])[H:12])([H:8])([H:9])[H:10]"
C       -2.00358207       0.03560956      -0.00140668
C       -0.77614620      -0.81519941       0.29595609
C        0.49351147      -0.43456550      -0.38825388
C        2.20188824       0.36545530       0.09955813
O        1.50657783      -1.25322810      -0.50496621
C        0.75337589       0.93054996      -0.82525121
N        0.90679122       2.09464662      -0.62234155
H       -1.91728316       1.03430536       0.42876627
H       -2.89288221      -0.39794617       0.45814648
H       -2.20398051       0.10538997      -1.07093108
H       -0.57126577      -0.80077659       1.37049046
H       -0.98521848      -1.85087107       0.01395531
H        3.10939766       0.65102822      -0.42541803
H        2.37881608       0.33560184       1.17169588
14
Frame=14 idx=009310 GeodesicLength=1.3206205972202278 rxn_smarts="[C:1]([C:2]([C@@:3]1([C:6]#[N:7])[C:4]([H:13])([H:14])[O:5]1)([H:11])[H:12])([H:8])([H:9])[H:10]>>[C:1]([C:2]([C:3](=[O:5])[C:6]1=[N:7][C:4]1([H:13])[H:14])([H:11])[H:12])([H:8])([H:9])[H:10]"
C       -1.99881958       0.04002093       0.00238677
C       -0.77558529      -0.81866366       0.29476375
C        0.50149252      -0.44696992      -0.38315417
C        2.19237739       0.38826184       0.11062070
O        1.49876156      -1.27758843      -0.51773175
C        0.74745819       0.91530596      -0.84151107
N        0.91913191       2.07750497      -0.64113314
H       -1.91447844       1.03152463       0.44926259
H       -2.89213234      -0.39624965       0.45166113
H       -2.19516650       0.12409418      -1.06687606
H       -0.57142993      -0.80899963       1.36919563
H       -0.99566843      -1.85051134       0.00763584
H        3.09883547       0.67654752      -0.41504306
H        2.38522347       0.34572260       1.17992284
14
Frame=15 idx=009310 GeodesicLength=1.415316269096772 rxn_smarts="[C:1]([C:2]([C@@:3]1([C:6]#[N:7])[C:4]([H:13])([H:14])[O:5]1)([H:11])[H:12])([H:8])([H:9])[H:10]>>[C:1]([C:2]([C:3](=[O:5])[C:6]1=[N:7][C:4]1([H:13])[H:14])([H:11])[H:12])([H:8])([H:9])[H:10]"
C       -1.99356827       0.04464829       0.00633126
C       -0.77482633      -0.82226248       0.29358857
C        0.51008448      -0.45947140      -0.37715687
C        2.18220618       0.41205447       0.12230754
O        1.48994614      -1.30286553      -0.53143397
C        0.74189565       0.89948543      -0.85725694
N        0.93030219       2.06005061      -0.66122129
H       -1.91125646       1.02844062       0.47030371
H       -2.89112762      -0.39422526       0.44466125
H       -2.18528063       0.14361419      -1.06251440
H       -0.57181214      -0.81801641       1.36798210
H       -1.00610980      -1.84992768       0.00077082
H        3.08775174       0.70166257      -0.40458748
H        2.39179486       0.35681260       1.18822572
14
Frame=16 idx=009310 GeodesicLength=1.5101409587487014 rxn_smarts="[C:1]([C:2]([C@@:3]1([C:6]#[N:7])[C:4]([H:13])([H:14])[O:5]1)([H:11])[H:12])([H:8])([H:9])[H:10]>>[C:1]([C:2]([C:3](=[O:5])[C:6]1=[N:7][C:4]1([H:13])[H:14])([H:11])[H:12])([H:8])([H:9])[H:10]"
C       -1.98768286       0.04957216       0.01055649
C       -0.77381331      -0.82609194       0.29234490
C        0.51937892      -0.47224315      -0.37032106
C        2.17113492       0.43702287       0.13472178
O        1.48007736      -1.32917011      -0.54606257
C        0.73671016       0.88283215      -0.87275629
N        0.94027092       2.04209885      -0.68298974
H       -1.90734651       1.02501162       0.49217788
H       -2.88975443      -0.39174267       0.43720099
H       -2.17416115       0.16426659      -1.05766008
H       -0.57233682      -0.82810014       1.36674897
H       -1.01661350      -1.84912228      -0.00687291
H        3.07602989       0.72646719      -0.39380228
H        2.39810643       0.36919884       1.19671391
