18
Frame=0 idx=011091 GeodesicLength=0.0 rxn_smarts="[C:1]([C@@:2]1([H:11])[C:3]([H:12])([H:13])[N:4]1[C:5]([C:6]([O:7][H:18])([H:16])[H:17])([H:14])[H:15])([H:8])([H:9])[H:10]>>[C:1]([C@@:2]1([H:11])[C-:3]([H:13])[N+:4]1([C:5]([C:6]([O:7][H:18])([H:16])[H:17])([H:14])[H:15])[H:12])([H:8])([H:9])[H:10]"
C        1.92901153       0.19730112      -1.38265406
C        1.13935931      -0.57308834      -0.35995793
C        1.61794120      -0.70726365       1.03654892
N        0.24263313       0.20517568       0.49077155
C       -1.05669226      -0.34705176       0.85281320
C       -2.13473992       0.32990068       0.02161714
O       -2.17555176       1.71843497       0.24730674
H        1.28987553       0.54605223      -2.19710768
H        2.70744897      -0.44209839      -1.80347744
H        2.41212063       1.05447784      -0.91365082
H        0.60713838      -1.42878891      -0.77392634
H        0.96344311       0.50662727       1.31060631
H        1.14905902      -1.57991160       1.50772274
H       -1.07801534      -1.43287035       0.69977669
H       -1.23780176      -0.14910105       1.91165483
H       -1.97149532       0.10705403      -1.04196391
H       -3.11360859      -0.06518823       0.29927910
H       -1.29012587       2.06033850       0.09464096
18
Frame=1 idx=011091 GeodesicLength=0.059962991611263367 rxn_smarts="[C:1]([C@@:2]1([H:11])[C:3]([H:12])([H:13])[N:4]1[C:5]([C:6]([O:7][H:18])([H:16])[H:17])([H:14])[H:15])([H:8])([H:9])[H:10]>>[C:1]([C@@:2]1([H:11])[C-:3]([H:13])[N+:4]1([C:5]([C:6]([O:7][H:18])([H:16])[H:17])([H:14])[H:15])[H:12])([H:8])([H:9])[H:10]"
C        1.92443188       0.19934372      -1.38124856
C        1.13648960      -0.57728606      -0.36215207
C        1.60810986      -0.70580477       1.03718514
N        0.24400487       0.19452512       0.49793962
C       -1.05787070      -0.35228596       0.85571807
C       -2.13051991       0.33020325       0.02270660
O       -2.16440197       1.71749517       0.25792350
H        1.28491506       0.55041352      -2.19446314
H        2.70438875      -0.43637903      -1.80486029
H        2.40598503       1.05581534      -0.90926217
H        0.60518435      -1.43265849      -0.77813556
H        0.97740966       0.52284543       1.31262595
H        1.15076617      -1.58300931       1.51024453
H       -1.08172573      -1.43767626       0.70025302
H       -1.24131190      -0.15632411       1.91456550
H       -1.96523630       0.10899246      -1.04085240
H       -3.11179812      -0.06283729       0.29555054
H       -1.28882059       2.06462727       0.06626173
18
Frame=2 idx=011091 GeodesicLength=0.12001569564266495 rxn_smarts="[C:1]([C@@:2]1([H:11])[C:3]([H:12])([H:13])[N:4]1[C:5]([C:6]([O:7][H:18])([H:16])[H:17])([H:14])[H:15])([H:8])([H:9])[H:10]>>[C:1]([C@@:2]1([H:11])[C-:3]([H:13])[N+:4]1([C:5]([C:6]([O:7][H:18])([H:16])[H:17])([H:14])[H:15])[H:12])([H:8])([H:9])[H:10]"
C        1.91980492       0.20138559      -1.37983374
C        1.13364332      -0.58141986      -0.36420841
C        1.59844938      -0.70432155       1.03793942
N        0.24538612       0.18397884       0.50516527
C       -1.05907559      -0.35756687       0.85852720
C       -2.12622797       0.33057802       0.02369080
O       -2.15262034       1.71663975       0.26800774
H        1.27982885       0.55471240      -2.19179920
H        2.70125148      -0.43065595      -1.80624668
H        2.39985403       1.05718515      -0.90494643
H        0.60330539      -1.43653207      -0.78218933
H        0.99148415       0.53862963       1.31439212
H        1.15271770      -1.58598359       1.51289808
H       -1.08546139      -1.44251558       0.70058273
H       -1.24494413      -0.16369178       1.91740050
H       -1.95901228       0.11071047      -1.03982765
H       -3.11001346      -0.06001436       0.29192905
H       -1.28837019       2.06888178       0.03851853
18
Frame=3 idx=011091 GeodesicLength=0.17992962517909053 rxn_smarts="[C:1]([C@@:2]1([H:11])[C:3]([H:12])([H:13])[N:4]1[C:5]([C:6]([O:7][H:18])([H:16])[H:17])([H:14])[H:15])([H:8])([H:9])[H:10]>>[C:1]([C@@:2]1([H:11])[C-:3]([H:13])[N+:4]1([C:5]([C:6]([O:7][H:18])([H:16])[H:17])([H:14])[H:15])[H:12])([H:8])([H:9])[H:10]"
C        1.91502613       0.20332504      -1.37832634
C        1.13080484      -0.58550685      -0.36611529
C        1.58889863      -0.70278045       1.03869625
N        0.24674379       0.17354939       0.51236991
C       -1.06022432      -0.36282346       0.86115495
C       -2.12173592       0.33104538       0.02454322
O       -2.14035917       1.71583092       0.27757656
H        1.27453954       0.55879491      -2.18896590
H        2.69793886      -0.42503847      -1.80751027
H        2.39351820       1.05847870      -0.90067876
H        0.60158776      -1.44041170      -0.78602583
H        1.00555364       0.55399578       1.31579456
H        1.15491242      -1.58873005       1.51553915
H       -1.08905873      -1.44728862       0.70070667
H       -1.24863915      -0.17108813       1.91997713
H       -1.95259880       0.11229779      -1.03882535
H       -3.10801863      -0.05677446       0.28827094
H       -1.28888909       2.07312428       0.01181840
18
Frame=4 idx=011091 GeodesicLength=0.23995570538965497 rxn_smarts="[C:1]([C@@:2]1([H:11])[C:3]([H:12])([H:13])[N:4]1[C:5]([C:6]([O:7][H:18])([H:16])[H:17])([H:14])[H:15])([H:8])([H:9])[H:10]>>[C:1]([C@@:2]1([H:11])[C-:3]([H:13])[N+:4]1([C:5]([C:6]([O:7][H:18])([H:16])[H:17])([H:14])[H:15])[H:12])([H:8])([H:9])[H:10]"
C        1.91022291       0.20528267      -1.37679808
C        1.12798902      -0.58953408      -0.36789982
C        1.57951333      -0.70127923       1.03955415
N        0.24811116       0.16321745       0.51960497
C       -1.06138965      -0.36811115       0.86370720
C       -2.11719158       0.33157191       0.02532379
O       -2.12753757       1.71509181       0.28667097
H        1.26916248       0.56286286      -2.18610748
H        2.69456973      -0.41939523      -1.80877182
H        2.38721112       1.05981189      -0.89644294
H        0.59992169      -1.44427523      -0.78975067
H        1.01977957       0.56889349       1.31703292
H        1.15730126      -1.59139651       1.51829030
H       -1.09268112      -1.45208483       0.70072234
H       -1.25242345      -0.17858704       1.92249443
H       -1.94626233       0.11366443      -1.03788734
H       -3.10605034      -0.05312000       0.28476590
H       -1.29024622       2.07738679      -0.01450881
18
Frame=5 idx=011091 GeodesicLength=0.30003498340630175 rxn_smarts="[C:1]([C@@:2]1([H:11])[C:3]([H:12])([H:13])[N:4]1[C:5]([C:6]([O:7][H:18])([H:16])[H:17])([H:14])[H:15])([H:8])([H:9])[H:10]>>[C:1]([C@@:2]1([H:11])[C-:3]([H:13])[N+:4]1([C:5]([C:6]([O:7][H:18])([H:16])[H:17])([H:14])[H:15])[H:12])([H:8])([H:9])[H:10]"
C        1.90542002       0.20718488      -1.37528460
C        1.12520658      -0.59351325      -0.36957184
C        1.57028370      -0.69975848       1.04050708
N        0.24948071       0.15301050       0.52681713
C       -1.06256733      -0.37339828       0.86616058
C       -2.11257758       0.33215749       0.02599407
O       -2.11433994       1.71438777       0.29537102
H        1.26374046       0.56680225      -2.18327785
H        2.69115963      -0.41383337      -1.81004075
H        2.38096214       1.06112442      -0.89230714
H        0.59833449      -1.44815803      -0.79334178
H        1.03414944       0.58338710       1.31807882
H        1.15986563      -1.59389910       1.52117192
H       -1.09631635      -1.45687486       0.70062144
H       -1.25629691      -0.18613889       1.92492741
H       -1.93989570       0.11493543      -1.03705865
H       -3.10406109      -0.04918352       0.28125642
H       -1.29254791       2.08176795      -0.04002328
18
Frame=6 idx=011091 GeodesicLength=0.3600813958476326 rxn_smarts="[C:1]([C@@:2]1([H:11])[C:3]([H:12])([H:13])[N:4]1[C:5]([C:6]([O:7][H:18])([H:16])[H:17])([H:14])[H:15])([H:8])([H:9])[H:10]>>[C:1]([C@@:2]1([H:11])[C-:3]([H:13])[N+:4]1([C:5]([C:6]([O:7][H:18])([H:16])[H:17])([H:14])[H:15])[H:12])([H:8])([H:9])[H:10]"
C        1.90052465       0.20905101      -1.37364730
C        1.12243521      -0.59744528      -0.37112038
C        1.56116193      -0.69829656       1.04144863
N        0.25082595       0.14288983       0.53398051
C       -1.06368664      -0.37866361       0.86847493
C       -2.10783587       0.33281892       0.02662479
O       -2.10065020       1.71371830       0.30365391
H        1.25819835       0.57068534      -2.18025430
H        2.68762598      -0.40829974      -1.81118012
H        2.37459951       1.06238009      -0.88811491
H        0.59686334      -1.45199469      -0.79680289
H        1.04862062       0.59738998       1.31891885
H        1.16261113      -1.59628298       1.52401150
H       -1.09983437      -1.46160193       0.70036067
H       -1.26017978      -0.19371006       1.92714945
H       -1.93352164       0.11602730      -1.03618631
H       -3.10193142      -0.04482664       0.27790409
H       -1.29582676       2.08616071      -0.06522111
18
Frame=7 idx=011091 GeodesicLength=0.4202522123704276 rxn_smarts="[C:1]([C@@:2]1([H:11])[C:3]([H:12])([H:13])[N:4]1[C:5]([C:6]([O:7][H:18])([H:16])[H:17])([H:14])[H:15])([H:8])([H:9])[H:10]>>[C:1]([C@@:2]1([H:11])[C-:3]([H:13])[N+:4]1([C:5]([C:6]([O:7][H:18])([H:16])[H:17])([H:14])[H:15])[H:12])([H:8])([H:9])[H:10]"
C        1.89566902       0.21089579      -1.37203927
C        1.11970666      -0.60133925      -0.37257598
C        1.55220236      -0.69687226       1.04249342
N        0.25217978       0.13287471       0.54111749
C       -1.06483362      -0.38392660       0.87072605
C       -2.10306224       0.33352179       0.02716761
O       -2.08659698       1.71308120       0.31154609
H        1.25264960       0.57450978      -2.17728217
H        2.68409598      -0.40279858      -1.81236519
H        2.36835241       1.06364387      -0.88399952
H        0.59544219      -1.45584624      -0.80017968
H        1.06332706       0.61096305       1.31968262
H        1.16548819      -1.59855721       1.52699606
H       -1.10340548      -1.46633062       0.70003192
H       -1.26415039      -0.20129978       1.92933701
H       -1.92718694       0.11698555      -1.03542845
H       -3.09983202      -0.04021037       0.27460872
H       -1.30004558       2.09070517      -0.08983673
18
Frame=8 idx=011091 GeodesicLength=0.48032166398803766 rxn_smarts="[C:1]([C@@:2]1([H:11])[C:3]([H:12])([H:13])[N:4]1[C:5]([C:6]([O:7][H:18])([H:16])[H:17])([H:14])[H:15])([H:8])([H:9])[H:10]>>[C:1]([C@@:2]1([H:11])[C-:3]([H:13])[N+:4]1([C:5]([C:6]([O:7][H:18])([H:16])[H:17])([H:14])[H:15])[H:12])([H:8])([H:9])[H:10]"
C        1.89074050       0.21263105      -1.37036434
C        1.11700570      -0.60521135      -0.37391654
C        1.54335219      -0.69546007       1.04353855
N        0.25351733       0.12297145       0.54815845
C       -1.06592162      -0.38913006       0.87283217
C       -2.09813727       0.33429190       0.02759777
O       -2.07229160       1.71244760       0.31905625
H        1.24700215       0.57815938      -2.17419401
H        2.68045040      -0.39742905      -1.81345797
H        2.36201819       1.06481016      -0.87992539
H        0.59415035      -1.45971011      -0.80339584
H        1.07817246       0.62410957       1.32024434
H        1.16851139      -1.60064293       1.52998731
H       -1.10686695      -1.47097621       0.69957765
H       -1.26813251      -0.20882430       1.93131276
H       -1.92069655       0.11790881      -1.03471114
H       -3.09754040      -0.03536136       0.27124362
H       -1.30533376       2.09541552      -0.11358364
18
Frame=9 idx=011091 GeodesicLength=0.540495922202956 rxn_smarts="[C:1]([C@@:2]1([H:11])[C:3]([H:12])([H:13])[N:4]1[C:5]([C:6]([O:7][H:18])([H:16])[H:17])([H:14])[H:15])([H:8])([H:9])[H:10]>>[C:1]([C@@:2]1([H:11])[C-:3]([H:13])[N+:4]1([C:5]([C:6]([O:7][H:18])([H:16])[H:17])([H:14])[H:15])[H:12])([H:8])([H:9])[H:10]"
C        1.88582710       0.21434578      -1.36867774
C        1.11434402      -0.60905696      -0.37516787
C        1.53464272      -0.69412615       1.04464879
N        0.25485515       0.11315292       0.55514759
C       -1.06700934      -0.39431240       0.87486664
C       -2.09315852       0.33510447       0.02795794
O       -2.05762798       1.71183479       0.32618141
H        1.24133141       0.58176995      -2.17109195
H        2.67678696      -0.39207826      -1.81455751
H        2.35574855       1.06596465      -0.87587637
H        0.59291790      -1.46357168      -0.80653763
H        1.09329927       0.63679438       1.32077188
H        1.17164245      -1.60263798       1.53307383
H       -1.11033814      -1.47559423       0.69906188
H       -1.27216354      -0.21632449       1.93321298
H       -1.91423248       0.11869532      -1.03406670
H       -3.09522848      -0.03024507       0.26795888
H       -1.31163705       2.10028496      -0.13690603
18
Frame=10 idx=011091 GeodesicLength=0.6007021392073828 rxn_smarts="[C:1]([C@@:2]1([H:11])[C:3]([H:12])([H:13])[N:4]1[C:5]([C:6]([O:7][H:18])([H:16])[H:17])([H:14])[H:15])([H:8])([H:9])[H:10]>>[C:1]([C@@:2]1([H:11])[C-:3]([H:13])[N+:4]1([C:5]([C:6]([O:7][H:18])([H:16])[H:17])([H:14])[H:15])[H:12])([H:8])([H:9])[H:10]"
C        1.88089063       0.21603080      -1.36694869
C        1.11172261      -0.61288559      -0.37632506
C        1.52606330      -0.69287573       1.04579494
N        0.25618868       0.10340926       0.56207691
C       -1.06807898      -0.39945839       0.87681992
C       -2.08808983       0.33596347       0.02824247
O       -2.04261431       1.71124469       0.33288493
H        1.23559727       0.58533323      -2.16791288
H        2.67306204      -0.38674992      -1.81564225
H        2.34948086       1.06709123      -0.87182853
H        0.59176510      -1.46743225      -0.80959448
H        1.10869910       0.64901389       1.32125730
H        1.17487619      -1.60453757       1.53620750
H       -1.11378719      -1.48016649       0.69848375
H       -1.27622838      -0.22376411       1.93500473
H       -1.90774210       0.11934838      -1.03347148
H       -3.09283554      -0.02485808       0.26472959
H       -1.31896945       2.10529319      -0.15977867
18
Frame=11 idx=011091 GeodesicLength=0.660962932370082 rxn_smarts="[C:1]([C@@:2]1([H:11])[C:3]([H:12])([H:13])[N:4]1[C:5]([C:6]([O:7][H:18])([H:16])[H:17])([H:14])[H:15])([H:8])([H:9])[H:10]>>[C:1]([C@@:2]1([H:11])[C-:3]([H:13])[N+:4]1([C:5]([C:6]([O:7][H:18])([H:16])[H:17])([H:14])[H:15])[H:12])([H:8])([H:9])[H:10]"
C        1.87596302       0.21763012      -1.36520387
C        1.10914976      -0.61670814      -0.37739429
C        1.51760067      -0.69166739       1.04698497
N        0.25751355       0.09375864       0.56889920
C       -1.06912323      -0.40455815       0.87866426
C       -2.08293259       0.33687334       0.02843465
O       -2.02735042       1.71064475       0.33928800
H        1.22985071       0.58875577      -2.16471906
H        2.66931632      -0.38151957      -1.81669171
H        2.34324591       1.06814881      -0.86783160
H        0.59071121      -1.47132150      -0.81254847
H        1.12440835       0.66080623       1.32168518
H        1.17820086      -1.60628496       1.53942903
H       -1.11720425      -1.48468125       0.69781254
H       -1.28031557      -0.23114651       1.93666259
H       -1.90118254       0.11998059      -1.03295677
H       -3.09034668      -0.01927746       0.26147052
H       -1.32750508       2.11056668      -0.18198517
18
Frame=12 idx=011091 GeodesicLength=0.7212771798763108 rxn_smarts="[C:1]([C@@:2]1([H:11])[C:3]([H:12])([H:13])[N:4]1[C:5]([C:6]([O:7][H:18])([H:16])[H:17])([H:14])[H:15])([H:8])([H:9])[H:10]>>[C:1]([C@@:2]1([H:11])[C-:3]([H:13])[N+:4]1([C:5]([C:6]([O:7][H:18])([H:16])[H:17])([H:14])[H:15])[H:12])([H:8])([H:9])[H:10]"
C        1.87104055       0.21916995      -1.36344247
C        1.10663392      -0.62053130      -0.37837877
C        1.50926872      -0.69052893       1.04821907
N        0.25883221       0.08417935       0.57563557
C       -1.07015710      -0.40961279       0.88042550
C       -2.07769509       0.33782284       0.02852930
O       -2.01180798       1.71005025       0.34530028
H        1.22407151       0.59208958      -2.16148956
H        2.66554232      -0.37634989      -1.81773646
H        2.33704782       1.06915657      -0.86387047
H        0.58974796      -1.47523626      -0.81541588
H        1.14048011       0.67215474       1.32209584
H        1.18160975      -1.60791105       1.54273096
H       -1.12061349      -1.48914546       0.69709052
H       -1.28444046      -0.23844176       1.93821531
H       -1.89456430       0.12053968      -1.03252839
H       -3.08778413      -0.01348973       0.25819570
H       -1.33721231       2.11608419      -0.20357604
18
Frame=13 idx=011091 GeodesicLength=0.7816416456416873 rxn_smarts="[C:1]([C@@:2]1([H:11])[C:3]([H:12])([H:13])[N:4]1[C:5]([C:6]([O:7][H:18])([H:16])[H:17])([H:14])[H:15])([H:8])([H:9])[H:10]>>[C:1]([C@@:2]1([H:11])[C-:3]([H:13])[N+:4]1([C:5]([C:6]([O:7][H:18])([H:16])[H:17])([H:14])[H:15])[H:12])([H:8])([H:9])[H:10]"
C        1.86608185       0.22070043      -1.36161408
C        1.10415355      -0.62435460      -0.37927594
C        1.50104895      -0.68953050       1.04947759
N        0.26015536       0.07464961       0.58230602
C       -1.07115131      -0.41461098       0.88211760
C       -2.07234343       0.33882202       0.02855693
O       -1.99588485       1.70948064       0.35087284
H        1.21821423       0.59543527      -2.15813584
H        2.66168647      -0.37116635      -1.81876682
H        2.33084140       1.07013632      -0.85985862
H        0.58884667      -1.47914100      -0.81821950
H        1.15694901       0.68299194       1.32255612
H        1.18507754      -1.60950032       1.54605901
H       -1.12398657      -1.49354463       0.69633965
H       -1.28856555      -0.24561414       1.93965197
H       -1.88790686       0.12095665      -1.03213024
H       -3.08510190      -0.00741850       0.25499179
H       -1.34811456       2.12170814      -0.22492850
18
Frame=14 idx=011091 GeodesicLength=0.842064997494248 rxn_smarts="[C:1]([C@@:2]1([H:11])[C:3]([H:12])([H:13])[N:4]1[C:5]([C:6]([O:7][H:18])([H:16])[H:17])([H:14])[H:15])([H:8])([H:9])[H:10]>>[C:1]([C@@:2]1([H:11])[C-:3]([H:13])[N+:4]1([C:5]([C:6]([O:7][H:18])([H:16])[H:17])([H:14])[H:15])[H:12])([H:8])([H:9])[H:10]"
C        1.86114781       0.22215641      -1.35976335
C        1.10173756      -0.62819069      -0.38009840
C        1.49294269      -0.68860972       1.05077095
N        0.26147231       0.06518598       0.58886573
C       -1.07212624      -0.41954714       0.88371999
C       -2.06690662       0.33986288       0.02848798
O       -1.97969442       1.70890921       0.35606455
H        1.21235716       0.59867627      -2.15474695
H        2.65782636      -0.36605778      -1.81977681
H        2.32467925       1.07105166      -0.85587256
H        0.58804088      -1.48307483      -0.82094830
H        1.17385685       0.69337259       1.32302971
H        1.18860279      -1.61097351       1.54945946
H       -1.12734527      -1.49787563       0.69553973
H       -1.29270865      -0.25266103       1.94096993
H       -1.88118458       0.12132294      -1.03181553
H       -3.08232756      -0.00115013       0.25176855
H       -1.36037032       2.12760253      -0.24565470
18
Frame=15 idx=011091 GeodesicLength=0.902543621686387 rxn_smarts="[C:1]([C@@:2]1([H:11])[C:3]([H:12])([H:13])[N:4]1[C:5]([C:6]([O:7][H:18])([H:16])[H:17])([H:14])[H:15])([H:8])([H:9])[H:10]>>[C:1]([C@@:2]1([H:11])[C-:3]([H:13])[N+:4]1([C:5]([C:6]([O:7][H:18])([H:16])[H:17])([H:14])[H:15])[H:12])([H:8])([H:9])[H:10]"
C        1.85626762       0.22350807      -1.35790011
C        1.09939055      -0.63204463      -0.38085362
C        1.48494063      -0.68774494       1.05209673
N        0.26277782       0.05579794       0.59528525
C       -1.07307957      -0.42441219       0.88521838
C       -2.06139409       0.34095021       0.02831878
O       -1.96329884       1.70833172       0.36092311
H        1.20654957       0.60176537      -2.15135727
H        2.65399636      -0.36107014      -1.82074494
H        2.31858542       1.07188261      -0.85193357
H        0.58733714      -1.48704824      -0.82359909
H        1.19123647       0.70331818       1.32350888
H        1.19217287      -1.61230549       1.55294171
H       -1.13068619      -1.50213028       0.69467765
H       -1.29685635      -0.25957639       1.94215574
H       -1.87438950       0.12169787      -1.03159425
H       -3.07945805       0.00527256       0.24849588
H       -1.37409186       2.13380776      -0.26563925
18
Frame=16 idx=011091 GeodesicLength=0.9630709949783567 rxn_smarts="[C:1]([C@@:2]1([H:11])[C:3]([H:12])([H:13])[N:4]1[C:5]([C:6]([O:7][H:18])([H:16])[H:17])([H:14])[H:15])([H:8])([H:9])[H:10]>>[C:1]([C@@:2]1([H:11])[C-:3]([H:13])[N+:4]1([C:5]([C:6]([O:7][H:18])([H:16])[H:17])([H:14])[H:15])[H:12])([H:8])([H:9])[H:10]"
C        1.85147660       0.22472150      -1.35603734
C        1.09712012      -0.63592238      -0.38154978
C        1.47703401      -0.68691044       1.05345294
N        0.26406654       0.04649738       0.60153521
C       -1.07401143      -0.42919711       0.88659758
C       -2.05581834       0.34208890       0.02804525
O       -1.94676185       1.70774393       0.36549800
H        1.20084828       0.60464872      -2.14800780
H        2.65023916      -0.35625531      -1.82165046
H        2.31258929       1.07260691      -0.84806656
H        0.58674557      -1.49107471      -0.82616941
H        1.20912043       0.71285191       1.32398069
H        1.19577683      -1.61346585       1.55651837
H       -1.13400802      -1.50630037       0.69373670
H       -1.30099927      -0.26635608       1.94319738
H       -1.86751357       0.12214341      -1.03147861
H       -3.07649549       0.01180670       0.24514233
H       -1.38940889       2.14037290      -0.28474451
