12
Frame=0 idx=003461 GeodesicLength=0.0 rxn_smarts="[N:1]([C@@:2]1([H:9])[C:3]([H:10])([H:11])[O:4]/[C:5]1=[N:6]\[H:12])([H:7])[H:8]>>[C:3](=[O:4])([H:10])[H:11].[N:1]([C:2](=[C:5]=[N:6][H:12])[H:9])([H:7])[H:8]"
N        1.86423746      -0.12185006       0.52523599
C        0.70466290       0.07855758      -0.20100090
C       -1.16103138      -0.83884402      -1.04970018
O       -1.51926220       0.37188816      -1.04942059
C       -0.40748343       0.63711509       0.41355946
N       -0.93038650       0.77337501       1.52069041
H        2.71032524       0.28715495       0.16569379
H        1.76944575      -0.04038882       1.52373544
H        0.81516167       0.14368291      -1.26871342
H       -0.79634371      -1.30404842      -1.97181903
H       -1.45197658      -1.51246987      -0.23613471
H       -1.59734922       1.52582747       1.62787369
12
Frame=1 idx=003461 GeodesicLength=0.08298272291254963 rxn_smarts="[N:1]([C@@:2]1([H:9])[C:3]([H:10])([H:11])[O:4]/[C:5]1=[N:6]\[H:12])([H:7])[H:8]>>[C:3](=[O:4])([H:10])[H:11].[N:1]([C:2](=[C:5]=[N:6][H:12])[H:9])([H:7])[H:8]"
N        1.87553403      -0.14252774       0.51627382
C        0.71133900       0.08327533      -0.20014340
C       -1.15956392      -0.85303206      -1.04501482
O       -1.55747354       0.34855299      -1.01892415
C       -0.39870185       0.63835168       0.42291485
N       -0.90504810       0.84621729       1.52520027
H        2.71254743       0.30605509       0.18300649
H        1.77770723      -0.10982249       1.51747285
H        0.82722589       0.18565056      -1.26525828
H       -0.81276615      -1.29436298      -1.98573193
H       -1.43013770      -1.54510711      -0.23969703
H       -1.64066231       1.53674943       1.58990134
12
Frame=2 idx=003461 GeodesicLength=0.16542603843954246 rxn_smarts="[N:1]([C@@:2]1([H:9])[C:3]([H:10])([H:11])[O:4]/[C:5]1=[N:6]\[H:12])([H:7])[H:8]>>[C:3](=[O:4])([H:10])[H:11].[N:1]([C:2](=[C:5]=[N:6][H:12])[H:9])([H:7])[H:8]"
N        1.88518971      -0.16231967       0.50836142
C        0.71722520       0.08770274      -0.19905760
C       -1.15794693      -0.86800980      -1.04179768
O       -1.59683055       0.32187427      -0.98611460
C       -0.39135718       0.63816828       0.43243629
N       -0.87914195       0.92564486       1.52379925
H        2.71347012       0.32150139       0.20309520
H        1.78353696      -0.17443115       1.50985008
H        0.83952043       0.22809935      -1.25999898
H       -0.83044442      -1.28324157      -2.00126483
H       -1.40618375      -1.58037187      -0.24677741
H       -1.67703764       1.54538317       1.55746886
12
Frame=3 idx=003461 GeodesicLength=0.24716487932250872 rxn_smarts="[N:1]([C@@:2]1([H:9])[C:3]([H:10])([H:11])[O:4]/[C:5]1=[N:6]\[H:12])([H:7])[H:8]>>[C:3](=[O:4])([H:10])[H:11].[N:1]([C:2](=[C:5]=[N:6][H:12])[H:9])([H:7])[H:8]"
N        1.89348827      -0.18129456       0.50180078
C        0.72244835       0.09143538      -0.19754404
C       -1.15643354      -0.88345607      -1.04004225
O       -1.63707841       0.29185589      -0.95067334
C       -0.38519621       0.63645651       0.44241242
N       -0.85263549       1.01198366       1.51452879
H        2.71345192       0.33334448       0.22509405
H        1.78744779      -0.23345720       1.50177362
H        0.85230213       0.27045823      -1.25264598
H       -0.84984379      -1.27026872      -2.01825784
H       -1.38046340      -1.61800996      -0.25784672
H       -1.70748764       1.55095237       1.53140051
12
Frame=4 idx=003461 GeodesicLength=0.3280296981056749 rxn_smarts="[N:1]([C@@:2]1([H:9])[C:3]([H:10])([H:11])[O:4]/[C:5]1=[N:6]\[H:12])([H:7])[H:8]>>[C:3](=[O:4])([H:10])[H:11].[N:1]([C:2](=[C:5]=[N:6][H:12])[H:9])([H:7])[H:8]"
N        1.90108992      -0.19929840       0.49664291
C        0.72726341       0.09393689      -0.19553077
C       -1.15547400      -0.89895012      -1.03949278
O       -1.67771726       0.25883890      -0.91254326
C       -0.37966890       0.63315413       0.45323795
N       -0.82627005       1.10466197       1.49493555
H        2.71267212       0.34317408       0.24904666
H        1.78999600      -0.28743900       1.49381858
H        0.86591086       0.31202080      -1.24307977
H       -0.87168571      -1.25540737      -2.03614732
H       -1.35406186      -1.65736612      -0.27305316
H       -1.73205453       1.55267425       1.51216540
12
Frame=5 idx=003461 GeodesicLength=0.40697676844205943 rxn_smarts="[N:1]([C@@:2]1([H:9])[C:3]([H:10])([H:11])[O:4]/[C:5]1=[N:6]\[H:12])([H:7])[H:8]>>[C:3](=[O:4])([H:10])[H:11].[N:1]([C:2](=[C:5]=[N:6][H:12])[H:9])([H:7])[H:8]"
N        1.90795239      -0.21633037       0.49284777
C        0.73188862       0.09562614      -0.19327260
C       -1.15509709      -0.91388369      -1.03940955
O       -1.71814251       0.22330997      -0.87188768
C       -0.37408016       0.62964188       0.46444143
N       -0.80181094       1.20165136       1.46213311
H        2.71106497       0.35133812       0.27494754
H        1.79087327      -0.33691440       1.48619589
H        0.88078854       0.35241491      -1.23153001
H       -0.89607026      -1.23874946      -2.05360377
H       -1.32732096      -1.69737534      -0.29174368
H       -1.75004587       1.54927088       1.50088155
12
Frame=6 idx=003461 GeodesicLength=0.4845761701006955 rxn_smarts="[N:1]([C@@:2]1([H:9])[C:3]([H:10])([H:11])[O:4]/[C:5]1=[N:6]\[H:12])([H:7])[H:8]>>[C:3](=[O:4])([H:10])[H:11].[N:1]([C:2](=[C:5]=[N:6][H:12])[H:9])([H:7])[H:8]"
N        1.91398316      -0.23218994       0.49074294
C        0.73626739       0.09693949      -0.19075007
C       -1.15520774      -0.92839691      -1.03984162
O       -1.75881530       0.18436031      -0.82818719
C       -0.36866428       0.62643903       0.47597452
N       -0.78205798       1.29865213       1.41534730
H        2.70890322       0.35759948       0.30239034
H        1.79016322      -0.38174367       1.47961223
H        0.89701397       0.39188718      -1.21802979
H       -0.92317152      -1.21985326      -2.07078694
H       -1.29939792      -1.73845043      -0.31456245
H       -1.75901622       1.54475658       1.49809072
12
Frame=7 idx=003461 GeodesicLength=0.5613518311752351 rxn_smarts="[N:1]([C@@:2]1([H:9])[C:3]([H:10])([H:11])[O:4]/[C:5]1=[N:6]\[H:12])([H:7])[H:8]>>[C:3](=[O:4])([H:10])[H:11].[N:1]([C:2](=[C:5]=[N:6][H:12])[H:9])([H:7])[H:8]"
N        1.91908113      -0.24691640       0.48961393
C        0.74022103       0.09894634      -0.18810072
C       -1.15518037      -0.94308520      -1.04039683
O       -1.80036172       0.13952808      -0.77913490
C       -0.36375561       0.62370823       0.48813599
N       -0.76904950       1.38840381       1.35808097
H        2.70576404       0.36304136       0.33207000
H        1.78776294      -0.42503259       1.47306881
H        0.91396771       0.43209977      -1.20253734
H       -0.95345046      -1.19765627      -2.08761064
H       -1.26757534      -1.78188782      -0.34234311
H       -1.75742386       1.54885068       1.49915385
12
Frame=8 idx=003461 GeodesicLength=0.637260222174703 rxn_smarts="[N:1]([C@@:2]1([H:9])[C:3]([H:10])([H:11])[O:4]/[C:5]1=[N:6]\[H:12])([H:7])[H:8]>>[C:3](=[O:4])([H:10])[H:11].[N:1]([C:2](=[C:5]=[N:6][H:12])[H:9])([H:7])[H:8]"
N        1.92301415      -0.26066270       0.48945317
C        0.74435724       0.10237650      -0.18611232
C       -1.15497680      -0.95716805      -1.04026062
O       -1.84171440       0.08886690      -0.72416317
C       -0.35834805       0.62458978       0.49854556
N       -0.76268525       1.46992534       1.29161678
H        2.70196779       0.36684273       0.36431322
H        1.78266027      -0.46730146       1.46632765
H        0.93292322       0.47191253      -1.18625462
H       -0.98796348      -1.17197376      -2.10261943
H       -1.23132469      -1.82578286      -0.37415762
H       -1.74790999       1.55837504       1.50331141
12
Frame=9 idx=003461 GeodesicLength=0.7133981760560353 rxn_smarts="[N:1]([C@@:2]1([H:9])[C:3]([H:10])([H:11])[O:4]/[C:5]1=[N:6]\[H:12])([H:7])[H:8]>>[C:3](=[O:4])([H:10])[H:11].[N:1]([C:2](=[C:5]=[N:6][H:12])[H:9])([H:7])[H:8]"
N        1.92585736      -0.27419902       0.48941712
C        0.74926984       0.10861153      -0.18541449
C       -1.15443374      -0.97038425      -1.03845527
O       -1.88194782       0.03145837      -0.66146473
C       -0.35182321       0.63070166       0.50649425
N       -0.76377944       1.54302494       1.21837168
H        2.69794907       0.36804872       0.39967964
H        1.77419527      -0.51094273       1.45801136
H        0.95461637       0.51217975      -1.17006047
H       -1.02713387      -1.14250107      -2.11428915
H       -1.18947574      -1.86917579      -0.40955670
H       -1.73329409       1.57317788       1.50726676
12
Frame=10 idx=003461 GeodesicLength=0.7896010858244804 rxn_smarts="[N:1]([C@@:2]1([H:9])[C:3]([H:10])([H:11])[O:4]/[C:5]1=[N:6]\[H:12])([H:7])[H:8]>>[C:3](=[O:4])([H:10])[H:11].[N:1]([C:2](=[C:5]=[N:6][H:12])[H:9])([H:7])[H:8]"
N        1.92814742      -0.28763787       0.48878931
C        0.75520799       0.11757199      -0.18593748
C       -1.15369242      -0.98269562      -1.03433553
O       -1.91911264      -0.03363833      -0.58924340
C       -0.34391614       0.64096328       0.51270923
N       -0.77188363       1.60714192       1.14051575
H        2.69344885       0.36729842       0.43866014
H        1.76293855      -0.55780482       1.44663258
H        0.97909851       0.55382662      -1.15354153
H       -1.07164248      -1.10840227      -2.12123984
H       -1.14246578      -1.91157383      -0.44934743
H       -1.71612822       1.59495051       1.50633820
12
Frame=11 idx=003461 GeodesicLength=0.8655021179528561 rxn_smarts="[N:1]([C@@:2]1([H:9])[C:3]([H:10])([H:11])[O:4]/[C:5]1=[N:6]\[H:12])([H:7])[H:8]>>[C:3](=[O:4])([H:10])[H:11].[N:1]([C:2](=[C:5]=[N:6][H:12])[H:9])([H:7])[H:8]"
N        1.93026913      -0.30032430       0.48891779
C        0.76255052       0.12750891      -0.18748898
C       -1.15372255      -0.99372507      -1.02832530
O       -1.95105108      -0.10697880      -0.50644238
C       -0.33436930       0.65474685       0.51630381
N       -0.78655991       1.66274205       1.05693659
H        2.68837318       0.36509112       0.48107647
H        1.74939959      -0.60490291       1.43377294
H        1.00740537       0.59470176      -1.13654024
H       -1.12373501      -1.06808881      -2.12289327
H       -1.09198905      -1.95216275      -0.49603578
H       -1.69657090       1.62139195       1.50071834
12
Frame=12 idx=003461 GeodesicLength=0.9419590295635915 rxn_smarts="[N:1]([C@@:2]1([H:9])[C:3]([H:10])([H:11])[O:4]/[C:5]1=[N:6]\[H:12])([H:7])[H:8]>>[C:3](=[O:4])([H:10])[H:11].[N:1]([C:2](=[C:5]=[N:6][H:12])[H:9])([H:7])[H:8]"
N        1.93253682      -0.31280669       0.48977637
C        0.77176457       0.13864273      -0.19000394
C       -1.15476574      -1.00321650      -1.01972135
O       -1.97491371      -0.19020628      -0.41071696
C       -0.32289132       0.67177791       0.51760218
N       -0.80861707       1.70975973       0.96661733
H        2.68295028       0.36064967       0.52716994
H        1.73377961      -0.65278132       1.41908801
H        1.04008047       0.63535152      -1.11871225
H       -1.18509294      -1.01978766      -2.11695387
H       -1.03812077      -1.98994293      -0.55158958
H       -1.67671020       1.65255981       1.48744412
12
Frame=13 idx=003461 GeodesicLength=1.019438042383457 rxn_smarts="[N:1]([C@@:2]1([H:9])[C:3]([H:10])([H:11])[O:4]/[C:5]1=[N:6]\[H:12])([H:7])[H:8]>>[C:3](=[O:4])([H:10])[H:11].[N:1]([C:2](=[C:5]=[N:6][H:12])[H:9])([H:7])[H:8]"
N        1.93442002      -0.32613849       0.49038321
C        0.78337328       0.15266339      -0.19380404
C       -1.15628164      -1.01051366      -1.00690799
O       -1.98596734      -0.28266464      -0.30223522
C       -0.30891536       0.69294244       0.51661436
N       -0.83969851       1.74684949       0.86935613
H        2.67736630       0.35142136       0.57633157
H        1.71511560      -0.70285289       1.40095836
H        1.07778627       0.67792183      -1.09983821
H       -1.25550434      -0.96401172      -2.09944931
H       -0.98178761      -2.02190114      -0.61497002
H       -1.65990667       1.68628403       1.46356117
12
Frame=14 idx=003461 GeodesicLength=1.100008817190606 rxn_smarts="[N:1]([C@@:2]1([H:9])[C:3]([H:10])([H:11])[O:4]/[C:5]1=[N:6]\[H:12])([H:7])[H:8]>>[C:3](=[O:4])([H:10])[H:11].[N:1]([C:2](=[C:5]=[N:6][H:12])[H:9])([H:7])[H:8]"
N        1.93698810      -0.34027562       0.49074043
C        0.79800188       0.16887512      -0.19830934
C       -1.15889954      -1.01499689      -0.98916807
O       -1.97983716      -0.38334426      -0.18150842
C       -0.29191166       0.71726071       0.51447358
N       -0.87935122       1.77133550       0.76516463
H        2.67211203       0.33768223       0.62807857
H        1.69498389      -0.75468613       1.37919613
H        1.12101070       0.72263574      -1.07856924
H       -1.33611663      -0.90002268      -2.06688784
H       -0.92690726      -2.04594538      -0.68760141
H       -1.65007313       1.72148167       1.42439098
12
Frame=15 idx=003461 GeodesicLength=1.1859376008147395 rxn_smarts="[N:1]([C@@:2]1([H:9])[C:3]([H:10])([H:11])[O:4]/[C:5]1=[N:6]\[H:12])([H:7])[H:8]>>[C:3](=[O:4])([H:10])[H:11].[N:1]([C:2](=[C:5]=[N:6][H:12])[H:9])([H:7])[H:8]"
N        1.93894535      -0.35559670       0.48869437
C        0.81573420       0.19007448      -0.20474047
C       -1.16111901      -1.01666542      -0.96530853
O       -1.95328396      -0.48519072      -0.05653891
C       -0.27188432       0.74684471       0.51006166
N       -0.92760461       1.78107578       0.65634699
H        2.66598561       0.31745404       0.68279015
H        1.67095030      -0.81066619       1.34956125
H        1.17037925       0.77346866      -1.05443672
H       -1.42194597      -0.83506765      -2.01671795
H       -0.87774623      -2.05893445      -0.76173257
H       -1.64841062       1.75320347       1.37202073
12
Frame=16 idx=003461 GeodesicLength=1.2800659912901438 rxn_smarts="[N:1]([C@@:2]1([H:9])[C:3]([H:10])([H:11])[O:4]/[C:5]1=[N:6]\[H:12])([H:7])[H:8]>>[C:3](=[O:4])([H:10])[H:11].[N:1]([C:2](=[C:5]=[N:6][H:12])[H:9])([H:7])[H:8]"
N        1.94117393      -0.37151974       0.48473275
C        0.83654236       0.21465042      -0.21196264
C       -1.16351266      -1.01513297      -0.93580559
O       -1.90615333      -0.58492778       0.06923884
C       -0.24907740       0.78015594       0.50476697
N       -0.98011771       1.77382039       0.54522115
H        2.65941031       0.29159685       0.73783294
H        1.64531836      -0.86711409       1.31372755
H        1.22538769       0.82924452      -1.02534746
H       -1.51120820      -0.76862898      -1.94829012
H       -0.83974111      -2.06106559      -0.83728015
H       -1.65802224       1.77892103       1.30316576
