12
Frame=0 idx=007082 GeodesicLength=0.0 rxn_smarts="[O:1]=[C:2]1[N:3]([H:8])[C:4]([H:9])([H:10])[C@@:5]2([H:11])[O:6][C@@:7]12[H:12]>>[O:1]=[C:2]1[N:3]([H:8])[C:4]([H:9])([H:10])[C:5][C@:7]1([O:6][H:11])[H:12]"
O        0.89348815       2.22540185       0.75178042
C        0.49756520       1.16382378       0.33998513
N        1.24344665       0.10476394      -0.07021113
C        0.47204674      -0.99254182      -0.61350472
C       -0.96910133      -0.57010992      -0.53137760
O       -1.25761945      -0.24114792       1.16863047
C       -0.95170077       0.73644027       0.15992968
H        2.24114929       0.09697866       0.04735710
H        0.64244969      -1.93722323      -0.09225540
H        0.68486796      -1.15723632      -1.67667404
H       -1.80574038      -0.94771584       0.48899624
H       -1.69085175       1.51856651       0.02734385
12
Frame=1 idx=007082 GeodesicLength=0.0399405600164023 rxn_smarts="[O:1]=[C:2]1[N:3]([H:8])[C:4]([H:9])([H:10])[C@@:5]2([H:11])[O:6][C@@:7]12[H:12]>>[O:1]=[C:2]1[N:3]([H:8])[C:4]([H:9])([H:10])[C:5][C@:7]1([O:6][H:11])[H:12]"
O        0.89559226       2.22572064       0.75335636
C        0.49924825       1.16414453       0.34179174
N        1.24471789       0.10561507      -0.07051528
C        0.47329445      -0.99293879      -0.61176409
C       -0.96749859      -0.57087824      -0.52557086
O       -1.25723733      -0.24267763       1.16604769
C       -0.94998451       0.73764640       0.16059316
H        2.24323759       0.10064404       0.04002910
H        0.64637591      -1.93681049      -0.08987582
H        0.68372990      -1.15820222      -1.67529131
H       -1.82163836      -0.95115604       0.48392637
H       -1.68983745       1.51889273       0.02727295
12
Frame=2 idx=007082 GeodesicLength=0.07987690493495023 rxn_smarts="[O:1]=[C:2]1[N:3]([H:8])[C:4]([H:9])([H:10])[C@@:5]2([H:11])[O:6][C@@:7]12[H:12]>>[O:1]=[C:2]1[N:3]([H:8])[C:4]([H:9])([H:10])[C:5][C@:7]1([O:6][H:11])[H:12]"
O        0.89770410       2.22604168       0.75491984
C        0.50093679       1.16445446       0.34362313
N        1.24598599       0.10646298      -0.07081954
C        0.47453087      -0.99333194      -0.61001723
C       -0.96591008      -0.57167895      -0.51968897
O       -1.25689323      -0.24415064       1.16353395
C       -0.94825977       0.73884092       0.16127647
H        2.24526546       0.10429703       0.03269960
H        0.65032044      -1.93639096      -0.08750919
H        0.68254037      -1.15915145      -1.67390600
H       -1.83741229      -0.95459538       0.47872072
H       -1.68880866       1.51920227       0.02716722
12
Frame=3 idx=007082 GeodesicLength=0.11980655028227222 rxn_smarts="[O:1]=[C:2]1[N:3]([H:8])[C:4]([H:9])([H:10])[C@@:5]2([H:11])[O:6][C@@:7]12[H:12]>>[O:1]=[C:2]1[N:3]([H:8])[C:4]([H:9])([H:10])[C:5][C@:7]1([O:6][H:11])[H:12]"
O        0.89982394       2.22637639       0.75644260
C        0.50263044       1.16476125       0.34546143
N        1.24725002       0.10731211      -0.07113480
C        0.47575355      -0.99371668      -0.60827336
C       -0.96433740      -0.57250900      -0.51373143
O       -1.25656821      -0.24556546       1.16109848
C       -0.94652766       0.74002445       0.16198196
H        2.24722491       0.10790907       0.02543311
H        0.65428200      -1.93596284      -0.08517051
H        0.68129353      -1.16007505      -1.67252843
H       -1.85305320      -0.95804627       0.47338261
H       -1.68777193       1.51949204       0.02703834
12
Frame=4 idx=007082 GeodesicLength=0.1597264787437078 rxn_smarts="[O:1]=[C:2]1[N:3]([H:8])[C:4]([H:9])([H:10])[C@@:5]2([H:11])[O:6][C@@:7]12[H:12]>>[O:1]=[C:2]1[N:3]([H:8])[C:4]([H:9])([H:10])[C:5][C@:7]1([O:6][H:11])[H:12]"
O        0.90195191       2.22673715       0.75789409
C        0.50432866       1.16507325       0.34728727
N        1.24850873       0.10816731      -0.07147299
C        0.47695975      -0.99408798      -0.60654286
C       -0.96278244      -0.57336556      -0.50769726
O       -1.25624260      -0.24692045       1.15875080
C       -0.94478959       0.74119780       0.16271182
H        2.24910935       0.11144859       0.01830063
H        0.65825938      -1.93552421      -0.08287675
H        0.67998258      -1.16096268      -1.67117030
H       -1.86855120      -0.96152201       0.46791730
H       -1.68673453       1.51975877       0.02689824
12
Frame=5 idx=007082 GeodesicLength=0.19963243674931402 rxn_smarts="[O:1]=[C:2]1[N:3]([H:8])[C:4]([H:9])([H:10])[C@@:5]2([H:11])[O:6][C@@:7]12[H:12]>>[O:1]=[C:2]1[N:3]([H:8])[C:4]([H:9])([H:10])[C:5][C@:7]1([O:6][H:11])[H:12]"
O        0.90408808       2.22713583       0.75924540
C        0.50603079       1.16539863       0.34908210
N        1.24976058       0.10903319      -0.07184559
C        0.47814648      -0.99444099      -0.60483571
C       -0.96124715      -0.57424580      -0.50158534
O       -1.25589814      -0.24821386       1.15649999
C       -0.94304710       0.74236204       0.16346799
H        2.25091477       0.11488521       0.01137014
H        0.66225110      -1.93507322      -0.08064418
H        0.67860061      -1.16180446      -1.66984285
H       -1.88389642      -0.96503622       0.46232993
H       -1.68570362       1.51999963       0.02675811
12
Frame=6 idx=007082 GeodesicLength=0.23951889026523435 rxn_smarts="[O:1]=[C:2]1[N:3]([H:8])[C:4]([H:9])([H:10])[C@@:5]2([H:11])[O:6][C@@:7]12[H:12]>>[O:1]=[C:2]1[N:3]([H:8])[C:4]([H:9])([H:10])[C:5][C@:7]1([O:6][H:11])[H:12]"
O        0.90623239       2.22758752       0.76046002
C        0.50773583       1.16574762       0.35082288
N        1.25100374       0.10991568      -0.07226749
C        0.47931022      -0.99476954      -0.60316541
C       -0.95973445      -0.57514724      -0.49539360
O       -1.25551375      -0.24944338       1.15435660
C       -0.94130250       0.74351858       0.16425241
H        2.25263758       0.11817930       0.00472982
H        0.66625647      -1.93460766      -0.07849471
H        0.67713833      -1.16258703      -1.66856166
H       -1.89907536      -0.96860495       0.45663028
H       -1.68468849       1.52021110       0.02663085
12
Frame=7 idx=007082 GeodesicLength=0.2794148670133899 rxn_smarts="[O:1]=[C:2]1[N:3]([H:8])[C:4]([H:9])([H:10])[C@@:5]2([H:11])[O:6][C@@:7]12[H:12]>>[O:1]=[C:2]1[N:3]([H:8])[C:4]([H:9])([H:10])[C:5][C@:7]1([O:6][H:11])[H:12]"
O        0.90838244       2.22810852       0.76149559
C        0.50944283       1.16613056       0.35248290
N        1.25223663       0.11082204      -0.07275615
C        0.48044970      -0.99506754      -0.60154516
C       -0.95824265      -0.57606801      -0.48912092
O       -1.25505617      -0.25061358       1.15233412
C       -0.93955663       0.74466483       0.16506976
H        2.25427539       0.12129220      -0.00152851
H        0.67027655      -1.93412490      -0.07644956
H        0.67558917      -1.16329718      -1.66734073
H       -1.91409798      -0.97223138       0.45082172
H       -1.68369929       1.52038444       0.02653693
12
Frame=8 idx=007082 GeodesicLength=0.3192933961281612 rxn_smarts="[O:1]=[C:2]1[N:3]([H:8])[C:4]([H:9])([H:10])[C@@:5]2([H:11])[O:6][C@@:7]12[H:12]>>[O:1]=[C:2]1[N:3]([H:8])[C:4]([H:9])([H:10])[C:5][C@:7]1([O:6][H:11])[H:12]"
O        0.91054225       2.22868132       0.76239859
C        0.51115297       1.16654169       0.35408226
N        1.25345921       0.11174875      -0.07330142
C        0.48156423      -0.99534128      -0.59995896
C       -0.95677121      -0.57700251      -0.48277170
O       -1.25454969      -0.25171910       1.15042388
C       -0.93780945       0.74580544       0.16591861
H        2.25584475       0.12426410      -0.00750215
H        0.67430588      -1.93362357      -0.07447699
H        0.67395834      -1.16395904      -1.66616066
H       -1.92896750      -0.97592414       0.44488088
H       -1.68272978       1.52052835       0.02646765
12
Frame=9 idx=007082 GeodesicLength=0.3591553633641405 rxn_smarts="[O:1]=[C:2]1[N:3]([H:8])[C:4]([H:9])([H:10])[C@@:5]2([H:11])[O:6][C@@:7]12[H:12]>>[O:1]=[C:2]1[N:3]([H:8])[C:4]([H:9])([H:10])[C:5][C@:7]1([O:6][H:11])[H:12]"
O        0.91271468       2.22930899       0.76316328
C        0.51286732       1.16697723       0.35563206
N        1.25467084       0.11269040      -0.07389036
C        0.48265277      -0.99559297      -0.59839956
C       -0.95531847      -0.57794939      -0.47634240
O       -1.25399769      -0.25276270       1.14863051
C       -0.93606037       0.74694002       0.16680406
H        2.25735345       0.12710838      -0.01322014
H        0.67834179      -1.93310698      -0.07257200
H        0.67224609      -1.16457120      -1.66501422
H       -1.94369368      -0.97968612       0.43878545
H       -1.68177674       1.52064434       0.02642334
12
Frame=10 idx=007082 GeodesicLength=0.3990023251931927 rxn_smarts="[O:1]=[C:2]1[N:3]([H:8])[C:4]([H:9])([H:10])[C@@:5]2([H:11])[O:6][C@@:7]12[H:12]>>[O:1]=[C:2]1[N:3]([H:8])[C:4]([H:9])([H:10])[C:5][C@:7]1([O:6][H:11])[H:12]"
O        0.91489461       2.22999763       0.76377745
C        0.51458454       1.16744904       0.35710405
N        1.25586975       0.11365651      -0.07454550
C        0.48371330      -0.99581718      -0.59687959
C       -0.95388516      -0.57890830      -0.46983269
O       -1.25337464      -0.25374329       1.14696220
C       -0.93431083       0.74806822       0.16772506
H        2.25880024       0.12979205      -0.01860703
H        0.68238993      -1.93257088      -0.07075311
H        0.67044398      -1.16512980      -1.66391379
H       -1.95827946      -0.98352248       0.43255340
H       -1.68084626       1.52072849       0.02640956
12
Frame=11 idx=007082 GeodesicLength=0.43884330683073147 rxn_smarts="[O:1]=[C:2]1[N:3]([H:8])[C:4]([H:9])([H:10])[C@@:5]2([H:11])[O:6][C@@:7]12[H:12]>>[O:1]=[C:2]1[N:3]([H:8])[C:4]([H:9])([H:10])[C:5][C@:7]1([O:6][H:11])[H:12]"
O        0.91708573       2.23074016       0.76426036
C        0.51630655       1.16795116       0.35851584
N        1.25705704       0.11464262      -0.07525503
C        0.48474582      -0.99601883      -0.59538437
C       -0.95246915      -0.57987656      -0.46324142
O       -1.25269250      -0.25466123       1.14541818
C       -0.93255949       0.74919100       0.16868483
H        2.26019680       0.13234694      -0.02373566
H        0.68644602      -1.93201615      -0.06899677
H        0.66855494      -1.16564824      -1.66284285
H       -1.97273887      -0.98743623       0.42614917
H       -1.67993290       1.52078535       0.02642773
12
Frame=12 idx=007082 GeodesicLength=0.478676042149663 rxn_smarts="[O:1]=[C:2]1[N:3]([H:8])[C:4]([H:9])([H:10])[C@@:5]2([H:11])[O:6][C@@:7]12[H:12]>>[O:1]=[C:2]1[N:3]([H:8])[C:4]([H:9])([H:10])[C:5][C@:7]1([O:6][H:11])[H:12]"
O        0.91929027       2.23152695       0.76463826
C        0.51803511       1.16847728       0.35988558
N        1.25823335       0.11564562      -0.07600950
C        0.48575143      -0.99620392      -0.59389847
C       -0.95106683      -0.58085100      -0.45657050
O       -1.25196296      -0.25551939       1.14399538
C       -0.93080481       0.75030850       0.16968669
H        2.26155171       0.13480853      -0.02868745
H        0.69050712      -1.93144358      -0.06727778
H        0.66658704      -1.16614567      -1.66178226
H       -1.98709080      -0.99142207       0.41954029
H       -1.67903063       1.52081877       0.02647976
12
Frame=13 idx=007082 GeodesicLength=0.5185052011271575 rxn_smarts="[O:1]=[C:2]1[N:3]([H:8])[C:4]([H:9])([H:10])[C@@:5]2([H:11])[O:6][C@@:7]12[H:12]>>[O:1]=[C:2]1[N:3]([H:8])[C:4]([H:9])([H:10])[C:5][C@:7]1([O:6][H:11])[H:12]"
O        0.92151186       2.23235098       0.76493036
C        0.51977262       1.16901835       0.36123890
N        1.25940027       0.11665930      -0.07679176
C        0.48673213      -0.99637877      -0.59240543
C       -0.94967439      -0.58183010      -0.44981944
O       -1.25119977      -0.25632065       1.14269245
C       -0.92904442       0.75141956       0.17073563
H        2.26287398       0.13721559      -0.03354863
H        0.69457093      -1.93085664      -0.06557369
H        0.66454638      -1.16663406      -1.66071385
H       -2.00135812      -0.99547490       0.41269384
H       -1.67813145       1.52083134       0.02656164
12
Frame=14 idx=007082 GeodesicLength=0.5583311676410077 rxn_smarts="[O:1]=[C:2]1[N:3]([H:8])[C:4]([H:9])([H:10])[C@@:5]2([H:11])[O:6][C@@:7]12[H:12]>>[O:1]=[C:2]1[N:3]([H:8])[C:4]([H:9])([H:10])[C:5][C@:7]1([O:6][H:11])[H:12]"
O        0.92375102       2.23320049       0.76516312
C        0.52152074       1.16956610       0.36259478
N        1.26055870       0.11767459      -0.07758073
C        0.48769000      -0.99655042      -0.59088680
C       -0.94828725      -0.58281143      -0.44298756
O       -1.25041585      -0.25706674       1.14150622
C       -0.92727558       0.75252392       0.17183572
H        2.26416914       0.13960925      -0.03841807
H        0.69863285      -1.93025850      -0.06385687
H        0.66244341      -1.16712712      -1.65961555
H       -2.01555947      -0.99958688       0.40557193
H       -1.67722770       1.52082674       0.02667382
12
Frame=15 idx=007082 GeodesicLength=0.598152065120388 rxn_smarts="[O:1]=[C:2]1[N:3]([H:8])[C:4]([H:9])([H:10])[C@@:5]2([H:11])[O:6][C@@:7]12[H:12]>>[O:1]=[C:2]1[N:3]([H:8])[C:4]([H:9])([H:10])[C:5][C@:7]1([O:6][H:11])[H:12]"
O        0.92600894       2.23409752       0.76528139
C        0.52327884       1.17013346       0.36392278
N        1.26170730       0.11869725      -0.07839180
C        0.48862148      -0.99671148      -0.58936052
C       -0.94690866      -0.58379713      -0.43606679
O       -1.24958583      -0.25775619       1.14045270
C       -0.92550083       0.75362125       0.17299034
H        2.26543278       0.14193698      -0.04317688
H        0.70269607      -1.92964854      -0.06216040
H        0.66026512      -1.16760038      -1.65850995
H       -2.02968241      -1.00376935       0.39818471
H       -1.67633281       1.52079661       0.02683442
12
Frame=16 idx=007082 GeodesicLength=0.6379707057965435 rxn_smarts="[O:1]=[C:2]1[N:3]([H:8])[C:4]([H:9])([H:10])[C@@:5]2([H:11])[O:6][C@@:7]12[H:12]>>[O:1]=[C:2]1[N:3]([H:8])[C:4]([H:9])([H:10])[C:5][C@:7]1([O:6][H:11])[H:12]"
O        0.92828764       2.23504051       0.76528994
C        0.52504839       1.17071772       0.36523235
N        1.26284664       0.11972523      -0.07921859
C        0.48952678      -0.99686441      -0.58781817
C       -0.94553679      -0.58478511      -0.42905525
O       -1.24871229      -0.25839190       1.13953382
C       -0.92371897       0.75471135       0.17420509
H        2.26666843       0.14421538      -0.04786422
H        0.70675871      -1.92902678      -0.06047126
H        0.65801325      -1.16806305      -1.65738682
H       -2.04373768      -1.00802104       0.39050438
H       -1.67544411       1.52074212       0.02704873
