15
Frame=0 idx=006427 GeodesicLength=0.0 rxn_smarts="[C:1]([O:2][C:3](=[O:4])[C@@:5]([C:6]([H:12])([H:13])[H:14])([O:7][H:15])[H:11])([H:8])([H:9])[H:10]>>[C:1](=[O:2])([H:8])[H:9].[C:3](=[O:4])([C@@:5]([C:6]([H:12])([H:13])[H:14])([O:7][H:15])[H:11])[H:10]"
C        1.91593535       0.25000465       0.32518388
O        1.15020519       0.40719118       1.35110563
C        0.30678423      -0.93499340       0.40862046
O        0.48116883      -2.02849419       0.82573946
C       -1.01730792      -0.19834945       0.14817432
C       -0.91698204       1.12465552      -0.56647681
O       -1.79422006      -1.06033326      -0.64822955
H        2.72626242      -0.49217231       0.36088382
H        2.10193987       1.09853692      -0.35129790
H        1.10919593      -0.53175089      -0.54304807
H       -1.45921110      -0.07107161       1.14224991
H       -0.38790675       1.85455682       0.04073668
H       -1.92641981       1.48435165      -0.76176029
H       -0.41562165       1.00599229      -1.52919069
H       -1.87382244      -1.90812390      -0.20269086
15
Frame=1 idx=006427 GeodesicLength=0.13430011777668802 rxn_smarts="[C:1]([O:2][C:3](=[O:4])[C@@:5]([C:6]([H:12])([H:13])[H:14])([O:7][H:15])[H:11])([H:8])([H:9])[H:10]>>[C:1](=[O:2])([H:8])[H:9].[C:3](=[O:4])([C@@:5]([C:6]([H:12])([H:13])[H:14])([O:7][H:15])[H:11])[H:10]"
C        1.95293789       0.24582514       0.35139295
O        1.14955176       0.39253672       1.35117004
C        0.30214737      -0.92741237       0.37522269
O        0.47723209      -2.03678378       0.75282330
C       -1.02708256      -0.19379506       0.14779064
C       -0.94600105       1.12033130      -0.58741635
O       -1.83729380      -1.06226989      -0.60705636
H        2.74599311      -0.51401709       0.39462020
H        2.19157319       1.11882883      -0.27510666
H        1.13782851      -0.51079859      -0.56222036
H       -1.44308461      -0.04536923       1.15029825
H       -0.40427130       1.85976441      -0.00287154
H       -1.95932596       1.48001762      -0.76192584
H       -0.46825193       0.98897261      -1.56034629
H       -1.87195271      -1.91583062      -0.16637467
15
Frame=2 idx=006427 GeodesicLength=0.2675660980689276 rxn_smarts="[C:1]([O:2][C:3](=[O:4])[C@@:5]([C:6]([H:12])([H:13])[H:14])([O:7][H:15])[H:11])([H:8])([H:9])[H:10]>>[C:1](=[O:2])([H:8])[H:9].[C:3](=[O:4])([C@@:5]([C:6]([H:12])([H:13])[H:14])([O:7][H:15])[H:11])[H:10]"
C        1.99077392       0.24034299       0.37921399
O        1.14941707       0.37784031       1.35015700
C        0.29798975      -0.91786846       0.33945973
O        0.47410905      -2.04200731       0.67580642
C       -1.03670258      -0.18859596       0.14721882
C       -0.97718467       1.11551431      -0.60961919
O       -1.87941617      -1.06418092      -0.56219867
H        2.76467558      -0.53829258       0.42858417
H        2.28416340       1.13535686      -0.18987519
H        1.16772640      -0.48690384      -0.58180619
H       -1.42503635      -0.01831216       1.15753172
H       -0.42082206       1.86449235      -0.05108400
H       -1.99428256       1.47550565      -0.76044682
H       -0.52690075       0.96976488      -1.59346608
H       -1.86851004      -1.92265611      -0.12947569
15
Frame=3 idx=006427 GeodesicLength=0.39949156284333975 rxn_smarts="[C:1]([O:2][C:3](=[O:4])[C@@:5]([C:6]([H:12])([H:13])[H:14])([O:7][H:15])[H:11])([H:8])([H:9])[H:10]>>[C:1](=[O:2])([H:8])[H:9].[C:3](=[O:4])([C@@:5]([C:6]([H:12])([H:13])[H:14])([O:7][H:15])[H:11])[H:10]"
C        2.02932872       0.23343530       0.40841698
O        1.15002062       0.36338236       1.34785369
C        0.29430648      -0.90600485       0.30152082
O        0.47172742      -2.04366343       0.59487272
C       -1.04607384      -0.18258206       0.14650089
C       -1.01065343       1.11022184      -0.63298082
O       -1.91986076      -1.06604278      -0.51353486
H        2.78204986      -0.56509487       0.46231936
H        2.37901623       1.14683106      -0.09544890
H        1.19884305      -0.46004049      -0.60164898
H       -1.40515591       0.01036273       1.16372865
H       -0.43811983       1.86871508      -0.10391632
H       -2.03120538       1.47075851      -0.75744695
H       -0.59149672       0.94833272      -1.62793605
H       -1.86272652      -1.92861112      -0.09230023
15
Frame=4 idx=006427 GeodesicLength=0.5298910327598401 rxn_smarts="[C:1]([O:2][C:3](=[O:4])[C@@:5]([C:6]([H:12])([H:13])[H:14])([O:7][H:15])[H:11])([H:8])([H:9])[H:10]>>[C:1](=[O:2])([H:8])[H:9].[C:3](=[O:4])([C@@:5]([C:6]([H:12])([H:13])[H:14])([O:7][H:15])[H:11])[H:10]"
C        2.06853409       0.22499369       0.43876437
O        1.15160466       0.34951966       1.34406481
C        0.29111048      -0.89147175       0.26165609
O        0.46999787      -2.04125856       0.51032181
C       -1.05508467      -0.17557041       0.14568207
C       -1.04653408       1.10447187      -0.65736689
O       -1.95783442      -1.06786041      -0.46101841
H        2.79790012      -0.59448759       0.49539576
H        2.47535341       1.15185016       0.00810997
H        1.23116454      -0.43023655      -0.62157327
H       -1.38356852       0.04094616       1.16866291
H       -0.45687462       1.87245568      -0.16128723
H       -2.07004268       1.46566105      -0.75312350
H       -0.66184638       0.92466743      -1.66306171
H       -1.85387980      -1.93368045      -0.05522679
15
Frame=5 idx=006427 GeodesicLength=0.6583465395307219 rxn_smarts="[C:1]([O:2][C:3](=[O:4])[C@@:5]([C:6]([H:12])([H:13])[H:14])([O:7][H:15])[H:11])([H:8])([H:9])[H:10]>>[C:1](=[O:2])([H:8])[H:9].[C:3](=[O:4])([C@@:5]([C:6]([H:12])([H:13])[H:14])([O:7][H:15])[H:11])[H:10]"
C        2.10820642       0.21486490       0.47010100
O        1.15441338       0.33647210       1.33871230
C        0.28848161      -0.87388546       0.22000765
O        0.46892060      -2.03421307       0.42222584
C       -1.06347236      -0.16735368       0.14473850
C       -1.08491614       1.09821475      -0.68270433
O       -1.99225460      -1.06962636      -0.40471246
H        2.81181487      -0.62650990       0.52741257
H        2.57205467       1.14889428       0.12090215
H        1.26462580      -0.39738894      -0.64146377
H       -1.36016986       0.07376307       1.17207031
H       -0.47786454       1.87568506      -0.22315856
H       -2.11069932       1.45994469      -0.74773714
H       -0.73778239       0.89869052      -1.69824480
H       -1.84135814      -1.93755197      -0.01814927
15
Frame=6 idx=006427 GeodesicLength=0.7851077378387578 rxn_smarts="[C:1]([O:2][C:3](=[O:4])[C@@:5]([C:6]([H:12])([H:13])[H:14])([O:7][H:15])[H:11])([H:8])([H:9])[H:10]>>[C:1](=[O:2])([H:8])[H:9].[C:3](=[O:4])([C@@:5]([C:6]([H:12])([H:13])[H:14])([O:7][H:15])[H:11])[H:10]"
C        2.14846260       0.20294855       0.50226648
O        1.15871251       0.32475480       1.33162243
C        0.28647578      -0.85290705       0.17689030
O        0.46837940      -2.02208535       0.33111002
C       -1.07115047      -0.15771320       0.14371683
C       -1.12598808       1.09147740      -0.70883212
O       -2.02236589      -1.07136041      -0.34463616
H        2.82374592      -0.66121059       0.55810789
H        2.66830468       1.13639318       0.24242863
H        1.29939460      -0.36157451      -0.66108636
H       -1.33521806       0.10917408       1.17371324
H       -0.50200486       1.87856350      -0.28937341
H       -2.15331591       1.45344068      -0.74152736
H       -0.81897465       0.87036994      -1.73274759
H       -1.82445756      -1.94027102       0.01834718
15
Frame=7 idx=006427 GeodesicLength=0.9101489679603187 rxn_smarts="[C:1]([O:2][C:3](=[O:4])[C@@:5]([C:6]([H:12])([H:13])[H:14])([O:7][H:15])[H:11])([H:8])([H:9])[H:10]>>[C:1](=[O:2])([H:8])[H:9].[C:3](=[O:4])([C@@:5]([C:6]([H:12])([H:13])[H:14])([O:7][H:15])[H:11])[H:10]"
C        2.18927655       0.18910194       0.53519076
O        1.16468315       0.31482817       1.32270001
C        0.28519882      -0.82813229       0.13251326
O        0.46833322      -2.00433676       0.23734342
C       -1.07791249      -0.14638862       0.14262904
C       -1.16989136       1.08417818      -0.73561197
O       -2.04720026      -1.07300553      -0.28083037
H        2.83342387      -0.69861192       0.58729372
H        2.76301143       1.11269030       0.37218801
H        1.33564987      -0.32276293      -0.68025549
H       -1.30879311       0.14760014       1.17334774
H       -0.53022102       1.88111963      -0.35980113
H       -2.19796647       1.44581837      -0.73470694
H       -0.90509225       0.83952327      -1.76591077
H       -1.80249995      -1.94162195       0.05391072
15
Frame=8 idx=006427 GeodesicLength=1.0334444634836384 rxn_smarts="[C:1]([O:2][C:3](=[O:4])[C@@:5]([C:6]([H:12])([H:13])[H:14])([O:7][H:15])[H:11])([H:8])([H:9])[H:10]>>[C:1](=[O:2])([H:8])[H:9].[C:3](=[O:4])([C@@:5]([C:6]([H:12])([H:13])[H:14])([O:7][H:15])[H:11])[H:10]"
C        2.23059117       0.17314232       0.56891301
O        1.17251420       0.30709837       1.31190525
C        0.28480147      -0.79911939       0.08699022
O        0.46877006      -1.98038040       0.14122377
C       -1.08349369      -0.13308144       0.14144944
C       -1.21674696       1.07616237      -0.76291819
O       -2.06571984      -1.07444155      -0.21332753
H        2.84051274      -0.73870708       0.61483248
H        2.85478753       1.07614218       0.50963620
H        1.37365866      -0.28088347      -0.69876887
H       -1.28088453       0.18953368       1.17068420
H       -0.56338027       1.88329802      -0.43438844
H       -2.24473178       1.43667281      -0.72742151
H       -0.99582997       0.80582139      -1.79711644
H       -1.77484880      -1.94125780       0.08830641
15
Frame=9 idx=006427 GeodesicLength=1.1547580537840947 rxn_smarts="[C:1]([O:2][C:3](=[O:4])[C@@:5]([C:6]([H:12])([H:13])[H:14])([O:7][H:15])[H:11])([H:8])([H:9])[H:10]>>[C:1](=[O:2])([H:8])[H:9].[C:3](=[O:4])([C@@:5]([C:6]([H:12])([H:13])[H:14])([O:7][H:15])[H:11])[H:10]"
C        2.27219985       0.15477651       0.60365495
O        1.18233313       0.30194259       1.29934575
C        0.28543598      -0.76542722       0.04052897
O        0.46961380      -1.94964659       0.04329922
C       -1.08755664      -0.11748866       0.14017894
C       -1.26648487       1.06722924      -0.79050363
O       -2.07676657      -1.07541777      -0.14229550
H        2.84453943      -0.78145987       0.64078025
H        2.94152660       1.02545122       0.65306801
H        1.41374644      -0.23603506      -0.71630502
H       -1.25149392       0.23537738       1.16546747
H       -0.60226009       1.88494149      -0.51280458
H       -2.29349563       1.42552261      -0.71978410
H       -1.09048967       0.76897030      -1.82563191
H       -1.74084785      -1.93873617       0.12100122
15
Frame=10 idx=006427 GeodesicLength=1.2742061389597537 rxn_smarts="[C:1]([O:2][C:3](=[O:4])[C@@:5]([C:6]([H:12])([H:13])[H:14])([O:7][H:15])[H:11])([H:8])([H:9])[H:10]>>[C:1](=[O:2])([H:8])[H:9].[C:3](=[O:4])([C@@:5]([C:6]([H:12])([H:13])[H:14])([O:7][H:15])[H:11])[H:10]"
C        2.31387048       0.13369101       0.63958061
O        1.19430783       0.29962352       1.28506009
C        0.28731967      -0.72656972      -0.00690606
O        0.47090848      -1.91157418      -0.05603740
C       -1.08977217      -0.09923583       0.13874373
C       -1.31916302       1.05710571      -0.81819996
O       -2.07919096      -1.07560766      -0.06771588
H        2.84505704      -0.82682479       0.66505388
H        3.02136336       0.95940381       0.80165010
H        1.45639190      -0.18830980      -0.73264297
H       -1.22054528       0.28572381       1.15733197
H       -0.64759450       1.88578427      -0.59508527
H       -2.34431856       1.41188449      -0.71173082
H       -1.18868742       0.72841390      -1.85082627
H       -1.69994684      -1.93350854       0.15172426
15
Frame=11 idx=006427 GeodesicLength=1.3923011619311845 rxn_smarts="[C:1]([O:2][C:3](=[O:4])[C@@:5]([C:6]([H:12])([H:13])[H:14])([O:7][H:15])[H:11])([H:8])([H:9])[H:10]>>[C:1](=[O:2])([H:8])[H:9].[C:3](=[O:4])([C@@:5]([C:6]([H:12])([H:13])[H:14])([O:7][H:15])[H:11])[H:10]"
C        2.35551607       0.10933813       0.67719768
O        1.20877809       0.29998599       1.26940297
C        0.29075518      -0.68220314      -0.05543655
O        0.47278361      -1.86597542      -0.15645948
C       -1.08986157      -0.07793521       0.13691438
C       -1.37479767       1.04566026      -0.84582164
O       -2.07186865      -1.07469484       0.00998555
H        2.84194460      -0.87493540       0.68765940
H        3.09169602       0.87775946       0.95379340
H        1.50233770      -0.13806446      -0.74738869
H       -1.18807944       0.34118843       1.14574490
H       -0.69995965       1.88574026      -0.68113360
H       -2.39734684       1.39556156      -0.70313108
H       -1.29004802       0.68361996      -1.87205112
H       -1.65184943      -1.92504559       0.18072387
15
Frame=12 idx=006427 GeodesicLength=1.5088008325449604 rxn_smarts="[C:1]([O:2][C:3](=[O:4])[C@@:5]([C:6]([H:12])([H:13])[H:14])([O:7][H:15])[H:11])([H:8])([H:9])[H:10]>>[C:1](=[O:2])([H:8])[H:9].[C:3](=[O:4])([C@@:5]([C:6]([H:12])([H:13])[H:14])([O:7][H:15])[H:11])[H:10]"
C        2.39627297       0.08132408       0.71653828
O        1.22563763       0.30328274       1.25236956
C        0.29591577      -0.63170373      -0.10510289
O        0.47520161      -1.81224858      -0.25709983
C       -1.08737127      -0.05316262       0.13463729
C       -1.43314053       1.03238852      -0.87293536
O       -2.05333959      -1.07190379       0.09076382
H        2.83426174      -0.92550889       0.70852131
H        3.15015500       0.77989157       1.10780054
H        1.55202980      -0.08586165      -0.76039449
H       -1.15399625       0.40223620       1.13035612
H       -0.75997131       1.88399622      -0.77060991
H       -2.45218904       1.37578580      -0.69364457
H       -1.39353781       0.63396582      -1.88837745
H       -1.59592871      -1.91248171       0.20717757
15
Frame=13 idx=006427 GeodesicLength=1.623590641992894 rxn_smarts="[C:1]([O:2][C:3](=[O:4])[C@@:5]([C:6]([H:12])([H:13])[H:14])([O:7][H:15])[H:11])([H:8])([H:9])[H:10]>>[C:1](=[O:2])([H:8])[H:9].[C:3](=[O:4])([C@@:5]([C:6]([H:12])([H:13])[H:14])([O:7][H:15])[H:11])[H:10]"
C        2.43505987       0.04897538       0.75787111
O        1.24479543       0.30952494       1.23407196
C        0.30296644      -0.57468413      -0.15586877
O        0.47809217      -1.75023359      -0.35669185
C       -1.08185008      -0.02465073       0.13177410
C       -1.49363795       1.01691524      -0.89887419
O       -2.02219753      -1.06639993       0.17397772
H        2.82104032      -0.97841915       0.72818488
H        3.19385556       0.66693260       1.26010480
H        1.60595374      -0.03286462      -0.77143140
H       -1.11832334       0.46880789       1.11083255
H       -0.82800350       1.87982878      -0.86249071
H       -2.50823068       1.35185333      -0.68284825
H       -1.49743099       0.57939196      -1.89879456
H       -1.53208945      -1.89497798       0.23018263
15
Frame=14 idx=006427 GeodesicLength=1.7379948655256463 rxn_smarts="[C:1]([O:2][C:3](=[O:4])[C@@:5]([C:6]([H:12])([H:13])[H:14])([O:7][H:15])[H:11])([H:8])([H:9])[H:10]>>[C:1](=[O:2])([H:8])[H:9].[C:3](=[O:4])([C@@:5]([C:6]([H:12])([H:13])[H:14])([O:7][H:15])[H:11])[H:10]"
C        2.47143507       0.01169325       0.80141181
O        1.26656174       0.31779291       1.21487424
C        0.31231640      -0.51068156      -0.20845068
O        0.48195714      -1.68017395      -0.45566983
C       -1.07309941       0.00816737       0.12773803
C       -1.55631958       0.99904602      -0.92342553
O       -1.97715118      -1.05745506       0.25882036
H        2.80217030      -1.03380255       0.74582887
H        3.22001494       0.53949573       1.41088236
H        1.66487449       0.02025700      -0.78036357
H       -1.08113782       0.54191513       1.08617515
H       -0.90450199       1.87289212      -0.95677209
H       -2.56561312       1.32380606      -0.67007393
H       -1.60169871       0.51879953      -1.90249954
H       -1.45980825      -1.87175199       0.25152435
15
Frame=15 idx=006427 GeodesicLength=1.8524870861487035 rxn_smarts="[C:1]([O:2][C:3](=[O:4])[C@@:5]([C:6]([H:12])([H:13])[H:14])([O:7][H:15])[H:11])([H:8])([H:9])[H:10]>>[C:1](=[O:2])([H:8])[H:9].[C:3](=[O:4])([C@@:5]([C:6]([H:12])([H:13])[H:14])([O:7][H:15])[H:11])[H:10]"
C        2.50395366      -0.03084991       0.84692186
O        1.29070414       0.32842209       1.19464770
C        0.32400053      -0.43952973      -0.26276009
O        0.48670133      -1.60244071      -0.55246123
C       -1.06091340       0.04543191       0.12235848
C       -1.62040028       0.97826044      -0.94562334
O       -1.91734800      -1.04375286       0.34400606
H        2.77672089      -1.09112553       0.76195297
H        3.22659831       0.39957934       1.55662806
H        1.72901100       0.07150159      -0.78742967
H       -1.04286578       0.62103815       1.05638437
H       -0.98971147       1.86208846      -1.05134540
H       -2.62360073       1.29064442      -0.65483247
H       -1.70347981       0.45263229      -1.89869839
H       -1.37937037      -1.84189996       0.27025110
15
Frame=16 idx=006427 GeodesicLength=1.9674137664339266 rxn_smarts="[C:1]([O:2][C:3](=[O:4])[C@@:5]([C:6]([H:12])([H:13])[H:14])([O:7][H:15])[H:11])([H:8])([H:9])[H:10]>>[C:1](=[O:2])([H:8])[H:9].[C:3](=[O:4])([C@@:5]([C:6]([H:12])([H:13])[H:14])([O:7][H:15])[H:11])[H:10]"
C        2.53012346      -0.07961458       0.89432573
O        1.31641386       0.33971532       1.17349291
C        0.33818621      -0.36042646      -0.31911677
O        0.49248206      -1.51636699      -0.64767885
C       -1.04459585       0.08746431       0.11532503
C       -1.68454773       0.95394839      -0.96470775
O       -1.84060203      -1.02407410       0.42908733
H        2.74235510      -1.15045731       0.77587882
H        3.20944726       0.24946413       1.69523644
H        1.79782632       0.12056117      -0.79213384
H       -1.00317609       0.70644528       1.02036876
H       -1.08297134       1.84601724      -1.14589775
H       -2.68017220       1.25195942      -0.63569676
H       -1.80137451       0.37972577      -1.88554057
H       -1.28939451      -1.80436161       0.28705728
