13
Frame=0 idx=001984 GeodesicLength=0.0 rxn_smarts="[N:1]([C:2]([C@@:3]([N:4]([H:12])[H:13])([C:5]#[N:6])[H:11])([H:9])[H:10])([H:7])[H:8]>>[N:1]([C:2]([C:3]([N:4]([H:12])[H:13])=[C:5]=[N:6][H:11])([H:9])[H:10])([H:7])[H:8]"
N       -1.68489996       0.08220865       0.41489320
C       -0.63523646       0.64324591      -0.42350608
C        0.69248230      -0.02026093      -0.14748263
N        0.72458923      -1.39972265      -0.02539224
C        1.93141393       0.63675894      -0.71591506
N        1.97224575       0.96200946       0.50718181
H       -2.45651022       0.72576876       0.50991100
H       -2.04881942      -0.77071592       0.01241573
H       -0.54088200       1.71018742      -0.22404502
H       -0.82086676       0.52811319      -1.50013849
H        0.97699196       0.52690345       1.06800423
H        0.29201239      -1.78905410       0.79658180
H        1.59747929      -1.83544218      -0.27250831
13
Frame=1 idx=001984 GeodesicLength=0.1098774348402456 rxn_smarts="[N:1]([C:2]([C@@:3]([N:4]([H:12])[H:13])([C:5]#[N:6])[H:11])([H:9])[H:10])([H:7])[H:8]>>[N:1]([C:2]([C:3]([N:4]([H:12])[H:13])=[C:5]=[N:6][H:11])([H:9])[H:10])([H:7])[H:8]"
N       -1.69464737       0.05675529       0.39843121
C       -0.63768469       0.64239562      -0.41265451
C        0.69180484      -0.02219118      -0.14613132
N        0.72654041      -1.40378685      -0.02038883
C        1.91470303       0.62568593      -0.73948902
N        2.01406978       0.98448083       0.46558719
H       -2.45425856       0.70670906       0.53616351
H       -2.07474597      -0.76733719      -0.04673358
H       -0.55487557       1.70541148      -0.18650348
H       -0.81797891       0.55929707      -1.49293295
H        1.02126760       0.54771728       1.06601074
H        0.25046927      -1.79387248       0.77694270
H        1.61533615      -1.84126485      -0.19830167
13
Frame=2 idx=001984 GeodesicLength=0.21959255343241968 rxn_smarts="[N:1]([C:2]([C@@:3]([N:4]([H:12])[H:13])([C:5]#[N:6])[H:11])([H:9])[H:10])([H:7])[H:8]>>[N:1]([C:2]([C:3]([N:4]([H:12])[H:13])=[C:5]=[N:6][H:11])([H:9])[H:10])([H:7])[H:8]"
N       -1.70470523       0.03114739       0.38042530
C       -0.64011301       0.64148784      -0.40106125
C        0.69103445      -0.02415724      -0.14388720
N        0.72880273      -1.40790748      -0.01433460
C        1.89780104       0.61353696      -0.76228841
N        2.05624284       1.00713696       0.42025224
H       -2.45253997       0.68399481       0.56149321
H       -2.09970528      -0.76155195      -0.10663503
H       -0.56851574       1.69938974      -0.14674496
H       -0.81470497       0.59180501      -1.48413214
H        1.06751430       0.56949908       1.06242708
H        0.20949602      -1.79954352       0.75488604
H        1.62939281      -1.84483760      -0.12040028
13
Frame=3 idx=001984 GeodesicLength=0.32909437570084493 rxn_smarts="[N:1]([C:2]([C@@:3]([N:4]([H:12])[H:13])([C:5]#[N:6])[H:11])([H:9])[H:10])([H:7])[H:8]>>[N:1]([C:2]([C:3]([N:4]([H:12])[H:13])=[C:5]=[N:6][H:11])([H:9])[H:10])([H:7])[H:8]"
N       -1.71502159       0.00558517       0.36090473
C       -0.64251016       0.64054062      -0.38861768
C        0.69018135      -0.02615292      -0.14061684
N        0.73134881      -1.41209213      -0.00711746
C        1.88068488       0.60031407      -0.78420422
N        2.09867772       1.02972768       0.37093484
H       -2.45160994       0.65761107       0.58537544
H       -2.12337658      -0.75341737      -0.16695211
H       -0.58175884       1.69201930      -0.10466903
H       -0.81103457       0.62565954      -1.47349954
H        1.11579463       0.59227746       1.05709223
H        0.16930541      -1.80624882       0.73024247
H        1.63931888      -1.84582366      -0.03887281
13
Frame=4 idx=001984 GeodesicLength=0.43839229101277494 rxn_smarts="[N:1]([C:2]([C@@:3]([N:4]([H:12])[H:13])([C:5]#[N:6])[H:11])([H:9])[H:10])([H:7])[H:8]>>[N:1]([C:2]([C:3]([N:4]([H:12])[H:13])=[C:5]=[N:6][H:11])([H:9])[H:10])([H:7])[H:8]"
N       -1.72547956      -0.02001083       0.33977519
C       -0.64487681       0.63948972      -0.37528174
C        0.68931409      -0.02809732      -0.13623424
N        0.73426615      -1.41623612       0.00153057
C        1.86338297       0.58612783      -0.80510652
N        2.14128876       1.05197793       0.31742391
H       -2.45132369       0.62746734       0.60782266
H       -2.14579161      -0.74282623      -0.22783046
H       -0.59466467       1.68307897      -0.06016351
H       -0.80691133       0.66086629      -1.46086304
H        1.16603428       0.61625884       1.04977824
H        0.13013414      -1.81386157       0.70300219
H        1.64462727      -1.84423485       0.04614674
13
Frame=5 idx=001984 GeodesicLength=0.5474071383802505 rxn_smarts="[N:1]([C:2]([C@@:3]([N:4]([H:12])[H:13])([C:5]#[N:6])[H:11])([H:9])[H:10])([H:7])[H:8]>>[N:1]([C:2]([C:3]([N:4]([H:12])[H:13])=[C:5]=[N:6][H:11])([H:9])[H:10])([H:7])[H:8]"
N       -1.73596423      -0.04546226       0.31707741
C       -0.64720269       0.63835323      -0.36095292
C        0.68844612      -0.02997184      -0.13063925
N        0.73751151      -1.42031492       0.01176207
C        1.84588447       0.57100441      -0.82485590
N        2.18389746       1.07354062       0.25949659
H       -2.45184835       0.59358071       0.62837002
H       -2.16662281      -0.72981616      -0.28898596
H       -0.60722594       1.67243058      -0.01315587
H       -0.80233036       0.69745034      -1.44596782
H        1.21821007       0.64143595       1.04029045
H        0.09231431      -1.82249115       0.67302907
H        1.64493044      -1.83973950       0.13453212
13
Frame=6 idx=001984 GeodesicLength=0.6561680032057267 rxn_smarts="[N:1]([C:2]([C@@:3]([N:4]([H:12])[H:13])([C:5]#[N:6])[H:11])([H:9])[H:10])([H:7])[H:8]>>[N:1]([C:2]([C:3]([N:4]([H:12])[H:13])=[C:5]=[N:6][H:11])([H:9])[H:10])([H:7])[H:8]"
N       -1.74630946      -0.07076686       0.29280075
C       -0.64950148       0.63708399      -0.34561248
C        0.68764637      -0.03168514      -0.12379830
N        0.74115391      -1.42422509       0.02375593
C        1.82824044       0.55514800      -0.84327378
N        2.22637680       1.09398622       0.19705913
H       -2.45304534       0.55592432       0.64693416
H       -2.18582326      -0.71430226      -0.35033305
H       -0.61952703       1.65987006       0.03632778
H       -0.79728866       0.73534158      -1.42863377
H        1.27214433       0.66791500       1.02841317
H        0.05620851      -1.83197448       0.64022187
H        1.63972489      -1.83231535       0.22613858
13
Frame=7 idx=001984 GeodesicLength=0.7646468476548266 rxn_smarts="[N:1]([C:2]([C@@:3]([N:4]([H:12])[H:13])([C:5]#[N:6])[H:11])([H:9])[H:10])([H:7])[H:8]>>[N:1]([C:2]([C:3]([N:4]([H:12])[H:13])=[C:5]=[N:6][H:11])([H:9])[H:10])([H:7])[H:8]"
N       -1.75632717      -0.09584573       0.26697427
C       -0.65178180       0.63566630      -0.32922845
C        0.68695679      -0.03315929      -0.11568858
N        0.74519103      -1.42786663       0.03767686
C        1.81048025       0.53875543      -0.86017864
N        2.26854809       1.11280804       0.13006481
H       -2.45484453       0.51451166       0.66325397
H       -2.20320648      -0.69626875      -0.41164805
H       -0.63164886       1.64521558       0.08822989
H       -0.79179633       0.77446719      -1.40865966
H        1.32764390       0.69569832       1.01396720
H        0.02230713      -1.84212949       0.60458956
H        1.62847799      -1.82185263       0.32064682
13
Frame=8 idx=001984 GeodesicLength=0.8728172808295028 rxn_smarts="[N:1]([C:2]([C@@:3]([N:4]([H:12])[H:13])([C:5]#[N:6])[H:11])([H:9])[H:10])([H:7])[H:8]>>[N:1]([C:2]([C:3]([N:4]([H:12])[H:13])=[C:5]=[N:6][H:11])([H:9])[H:10])([H:7])[H:8]"
N       -1.76585271      -0.12055366       0.23959766
C       -0.65406199       0.63413168      -0.31182545
C        0.68640380      -0.03433042      -0.10634133
N        0.74950482      -1.43117571       0.05365619
C        1.79270759       0.52205513      -0.87533403
N        2.31017335       1.12949413       0.05862248
H       -2.45723374       0.46942986       0.67700110
H       -2.21856512      -0.67581874      -0.47264074
H       -0.64370205       1.62834378       0.14240909
H       -0.78586677       0.81476582      -1.38590205
H        1.38446407       0.72462436       0.99686234
H       -0.00870415      -1.85262699       0.56669364
H        1.61073290      -1.80833924       0.41720111
13
Frame=9 idx=001984 GeodesicLength=0.9806325971486738 rxn_smarts="[N:1]([C:2]([C@@:3]([N:4]([H:12])[H:13])([C:5]#[N:6])[H:11])([H:9])[H:10])([H:7])[H:8]>>[N:1]([C:2]([C:3]([N:4]([H:12])[H:13])=[C:5]=[N:6][H:11])([H:9])[H:10])([H:7])[H:8]"
N       -1.77466798      -0.14484979       0.21059075
C       -0.65632251       0.63250146      -0.29331186
C        0.68599525      -0.03516539      -0.09577440
N        0.75397566      -1.43404807       0.07195689
C        1.77497890       0.50506335      -0.88866596
N        2.35078379       1.14371919      -0.01749798
H       -2.46009651       0.42055472       0.68787738
H       -2.23164934      -0.65279401      -0.53338013
H       -0.65580547       1.60898640       0.19899547
H       -0.77944421       0.85638928      -1.36005468
H        1.44249877       0.75449941       0.97690484
H       -0.03629297      -1.86317113       0.52707950
H        1.58604662      -1.79168542       0.51528017
13
Frame=10 idx=001984 GeodesicLength=1.088096205441876 rxn_smarts="[N:1]([C:2]([C@@:3]([N:4]([H:12])[H:13])([C:5]#[N:6])[H:11])([H:9])[H:10])([H:7])[H:8]>>[N:1]([C:2]([C:3]([N:4]([H:12])[H:13])=[C:5]=[N:6][H:11])([H:9])[H:10])([H:7])[H:8]"
N       -1.78250992      -0.16859602       0.18019398
C       -0.65865392       0.63068803      -0.27393968
C        0.68577651      -0.03543746      -0.08403259
N        0.75862342      -1.43626383       0.09234132
C        1.75731417       0.48868734      -0.89976883
N        2.39046056       1.15450232      -0.09740397
H       -2.46304595       0.36827050       0.69579461
H       -2.24254205      -0.62739797      -0.59309092
H       -0.66821985       1.58714039       0.25706504
H       -0.77266644       0.89855328      -1.33130862
H        1.50116038       0.78520997       0.95434658
H       -0.05988700      -1.87298590       0.48641025
H        1.55419009      -1.77237064       0.61339282
13
Frame=11 idx=001984 GeodesicLength=1.1953697512439834 rxn_smarts="[N:1]([C:2]([C@@:3]([N:4]([H:12])[H:13])([C:5]#[N:6])[H:11])([H:9])[H:10])([H:7])[H:8]>>[N:1]([C:2]([C:3]([N:4]([H:12])[H:13])=[C:5]=[N:6][H:11])([H:9])[H:10])([H:7])[H:8]"
N       -1.78931046      -0.19173973       0.14822204
C       -0.66108471       0.62877331      -0.25358248
C        0.68574802      -0.03514235      -0.07107752
N        0.76324536      -1.43781147       0.11512823
C        1.73982554       0.47288657      -0.90861825
N        2.42869066       1.16171435      -0.18135703
H       -2.46617599       0.31253558       0.70021888
H       -2.25112816      -0.59945682      -0.65201203
H       -0.68116677       1.56263777       0.31680516
H       -0.76552016       0.94153825      -1.29932820
H        1.56057385       0.81645554       0.92910901
H       -0.07913230      -1.88178915       0.44602776
H        1.51543514      -1.75060185       0.71046443
13
Frame=12 idx=001984 GeodesicLength=1.3024635405929301 rxn_smarts="[N:1]([C:2]([C@@:3]([N:4]([H:12])[H:13])([C:5]#[N:6])[H:11])([H:9])[H:10])([H:7])[H:8]>>[N:1]([C:2]([C:3]([N:4]([H:12])[H:13])=[C:5]=[N:6][H:11])([H:9])[H:10])([H:7])[H:8]"
N       -1.79487388      -0.21408552       0.11468900
C       -0.66365512       0.62678559      -0.23234839
C        0.68590382      -0.03415279      -0.05690172
N        0.76773352      -1.43856112       0.14018071
C        1.72257379       0.45811518      -0.91501195
N        2.46510795       1.16487547      -0.26898217
H       -2.46919683       0.25352510       0.70097604
H       -2.25735868      -0.56907850      -0.70978189
H       -0.69489726       1.53543963       0.37773370
H       -0.75803886       0.98500845      -1.26413928
H        1.62053072       0.84793283       0.90138192
H       -0.09391432      -1.88909114       0.40688916
H        1.47008514      -1.72671319       0.80531489
13
Frame=13 idx=001984 GeodesicLength=1.4093764055960678 rxn_smarts="[N:1]([C:2]([C@@:3]([N:4]([H:12])[H:13])([C:5]#[N:6])[H:11])([H:9])[H:10])([H:7])[H:8]>>[N:1]([C:2]([C:3]([N:4]([H:12])[H:13])=[C:5]=[N:6][H:11])([H:9])[H:10])([H:7])[H:8]"
N       -1.79906761      -0.23546040       0.07933970
C       -0.66638654       0.62476167      -0.21025100
C        0.68619871      -0.03243075      -0.04137413
N        0.77180360      -1.43845116       0.16760527
C        1.70563152       0.44443949      -0.91876810
N        2.49890450       1.16391278      -0.36025091
H       -2.47188818       0.19126784       0.69763433
H       -2.26124732      -0.53595306      -0.76655448
H       -0.70970025       1.50540548       0.43966156
H       -0.75016350       1.02893490      -1.22559239
H        1.68103731       0.87927067       0.87131890
H       -0.10439843      -1.89447596       0.37080129
H        1.41927619      -1.70122150       0.89642995
13
Frame=14 idx=001984 GeodesicLength=1.5162074821325833 rxn_smarts="[N:1]([C:2]([C@@:3]([N:4]([H:12])[H:13])([C:5]#[N:6])[H:11])([H:9])[H:10])([H:7])[H:8]>>[N:1]([C:2]([C:3]([N:4]([H:12])[H:13])=[C:5]=[N:6][H:11])([H:9])[H:10])([H:7])[H:8]"
N       -1.80171068      -0.25566063       0.04246932
C       -0.66933778       0.62268945      -0.18742053
C        0.68667454      -0.02980830      -0.02437288
N        0.77554579      -1.43738342       0.19707419
C        1.68911723       0.43242759      -0.91965017
N        2.52972541       1.15842921      -0.45468482
H       -2.47389669       0.12619697       0.69009104
H       -2.26294736      -0.50021086      -0.82163592
H       -0.72586444       1.47272090       0.50178407
H       -0.74202095       1.07267251      -1.18390119
H        1.74197647       0.91035719       0.83923138
H       -0.11086170      -1.89787680       0.33770893
H        1.36360017      -1.67455380       0.98330657
13
Frame=15 idx=001984 GeodesicLength=1.6229782616286046 rxn_smarts="[N:1]([C:2]([C@@:3]([N:4]([H:12])[H:13])([C:5]#[N:6])[H:11])([H:9])[H:10])([H:7])[H:8]>>[N:1]([C:2]([C:3]([N:4]([H:12])[H:13])=[C:5]=[N:6][H:11])([H:9])[H:10])([H:7])[H:8]"
N       -1.80259982      -0.27451952       0.00436326
C       -0.67252987       0.62056479      -0.16391984
C        0.68736666      -0.02613670      -0.00574194
N        0.77901980      -1.43525381       0.22838119
C        1.67316065       0.42244851      -0.91745563
N        2.55698133       1.14812295      -0.55197309
H       -2.47486437       0.05877188       0.67819986
H       -2.26253948      -0.46202113      -0.87444782
H       -0.74363139       1.43759622       0.56347529
H       -0.73371104       1.11569629      -1.13924641
H        1.80333842       0.94111662       0.80537980
H       -0.11353412      -1.89932060       0.30733270
H        1.30354323      -1.64706551       1.06565261
13
Frame=16 idx=001984 GeodesicLength=1.729685504829074 rxn_smarts="[N:1]([C:2]([C@@:3]([N:4]([H:12])[H:13])([C:5]#[N:6])[H:11])([H:9])[H:10])([H:7])[H:8]>>[N:1]([C:2]([C:3]([N:4]([H:12])[H:13])=[C:5]=[N:6][H:11])([H:9])[H:10])([H:7])[H:8]"
N       -1.80158681      -0.29185590      -0.03499240
C       -0.67594915       0.61841131      -0.13979434
C        0.68828892      -0.02135140       0.01472345
N        0.78208622      -1.43205136       0.26148430
C        1.65798686       0.41455456      -0.91195737
N        2.57958523       1.13307991      -0.65204214
H       -2.47446698      -0.01071205       0.66164290
H       -2.26011790      -0.42130650      -0.92482435
H       -0.76322496       1.40014678       0.62434070
H       -0.72521556       1.15780225      -1.09173465
H        1.86526986       0.97134432       0.76998400
H       -0.11283803      -1.89876419       0.28024120
H        1.24018231      -1.61929773       1.14292869
