12
Frame=0 idx=005877 GeodesicLength=0.0 rxn_smarts="[C:1]([C:2]([C:3](=[O:4])[H:11])([C:5](=[O:6])[H:12])[H:10])([H:7])([H:8])[H:9]>>[C:1]([C@@:2]1([H:10])[C@@:3]2([H:11])[O:4][C@:5]1([H:12])[O:6]2)([H:7])([H:8])[H:9]"
C       -1.33876132      -0.49534516      -0.47579928
C        0.10180601      -0.04522833      -0.50889640
C        0.60614357       1.16109865       0.26403799
O        1.89775084       0.95258049       0.21731330
C        1.01709627      -0.50685402       0.61809592
O        0.44757439       0.05691587       1.65611558
H       -1.43167524      -1.50725018      -0.87490616
H       -1.72980443      -0.48385429       0.54041664
H       -1.95574081       0.15895327      -1.09404860
H        0.54453432      -0.05730084      -1.50483667
H        0.16123355       2.13811501       0.46614759
H        1.67984283      -1.37183043       0.69636011
12
Frame=1 idx=005877 GeodesicLength=0.049378724914071616 rxn_smarts="[C:1]([C:2]([C:3](=[O:4])[H:11])([C:5](=[O:6])[H:12])[H:10])([H:7])([H:8])[H:9]>>[C:1]([C@@:2]1([H:10])[C@@:3]2([H:11])[O:4][C@:5]1([H:12])[O:6]2)([H:7])([H:8])[H:9]"
C       -1.33973109      -0.48985064      -0.47504536
C        0.10291363      -0.04714203      -0.50640792
C        0.60355839       1.16213277       0.26597554
O        1.89658661       0.96079881       0.21657527
C        1.01826074      -0.51555093       0.61835096
O        0.44499116       0.03534080       1.66138043
H       -1.43445769      -1.50731753      -0.85900876
H       -1.73928460      -0.46293794       0.53760519
H       -1.94943129       0.16007964      -1.10504140
H        0.54837627      -0.06442481      -1.50109815
H        0.14969086       2.13647858       0.46159105
H        1.69852702      -1.36760671       0.68512314
12
Frame=2 idx=005877 GeodesicLength=0.09874698135831693 rxn_smarts="[C:1]([C:2]([C:3](=[O:4])[H:11])([C:5](=[O:6])[H:12])[H:10])([H:7])([H:8])[H:9]>>[C:1]([C@@:2]1([H:10])[C@@:3]2([H:11])[O:4][C@:5]1([H:12])[O:6]2)([H:7])([H:8])[H:9]"
C       -1.34064245      -0.48438009      -0.47425609
C        0.10403944      -0.04904568      -0.50388079
C        0.60098210       1.16319460       0.26791889
O        1.89538758       0.96904409       0.21589505
C        1.01940685      -0.52437741       0.61858815
O        0.44228188       0.01338270       1.66651010
H       -1.43734352      -1.50709009      -0.84320415
H       -1.74837884      -0.44228875       0.53465506
H       -1.94312911       0.16113418      -1.11565723
H        0.55216795      -0.07145431      -1.49731866
H        0.13830589       2.13489669       0.45662844
H        1.71692222      -1.36301594       0.67412122
12
Frame=3 idx=005877 GeodesicLength=0.14809220775737897 rxn_smarts="[C:1]([C:2]([C:3](=[O:4])[H:11])([C:5](=[O:6])[H:12])[H:10])([H:7])([H:8])[H:9]>>[C:1]([C@@:2]1([H:10])[C@@:3]2([H:11])[O:4][C@:5]1([H:12])[O:6]2)([H:7])([H:8])[H:9]"
C       -1.34148973      -0.47893913      -0.47342675
C        0.10518394      -0.05093420      -0.50131152
C        0.59841823       1.16429279       0.26985635
O        1.89415537       0.97731693       0.21525866
C        1.02052928      -0.53332252       0.61881318
O        0.43944301      -0.00894617       1.67149943
H       -1.44031396      -1.50656275      -0.82754704
H       -1.75707343      -0.42196960       0.53159482
H       -1.93684707       0.16214574      -1.12585733
H        0.55590885      -0.07838820      -1.49349720
H        0.12709407       2.13338033       0.45123452
H        1.73499145      -1.35807320       0.66338290
12
Frame=4 idx=005877 GeodesicLength=0.197429897871738 rxn_smarts="[C:1]([C:2]([C:3](=[O:4])[H:11])([C:5](=[O:6])[H:12])[H:10])([H:7])([H:8])[H:9]>>[C:1]([C@@:2]1([H:10])[C@@:3]2([H:11])[O:4][C@:5]1([H:12])[O:6]2)([H:7])([H:8])[H:9]"
C       -1.34227804      -0.47352128      -0.47255703
C        0.10634570      -0.05280309      -0.49869978
C        0.59586258       1.16542776       0.27180424
O        1.89288914       0.98562678       0.21466918
C        1.02163717      -0.54239558       0.61901013
O        0.43647752      -0.03168498       1.67633702
H       -1.44336253      -1.50576220      -0.81197803
H       -1.76539774      -0.40191329       0.52842921
H       -1.93057896       0.16309467      -1.13569952
H        0.55959497      -0.08521434      -1.48963656
H        0.11604868       2.13192483       0.44542560
H        1.75276153      -1.35277928       0.65289556
12
Frame=5 idx=005877 GeodesicLength=0.24675099354957863 rxn_smarts="[C:1]([C:2]([C:3](=[O:4])[H:11])([C:5](=[O:6])[H:12])[H:10])([H:7])([H:8])[H:9]>>[C:1]([C@@:2]1([H:10])[C@@:3]2([H:11])[O:4][C@:5]1([H:12])[O:6]2)([H:7])([H:8])[H:9]"
C       -1.34300409      -0.46813273      -0.47164344
C        0.10752513      -0.05464890      -0.49604312
C        0.59332023       1.16661022       0.27374862
O        1.89159339       0.99397543       0.21411131
C        1.02272636      -0.55158600       0.61918535
O        0.43338218      -0.05481820       1.68101618
H       -1.44647417      -1.50468226      -0.79656405
H       -1.77333739      -0.38219426       0.52518815
H       -1.92434440       0.16401731      -1.14513710
H        0.56322555      -0.09193495      -1.48573683
H        0.10518716       2.13054417       0.43917468
H        1.77020006      -1.34714981       0.64270025
12
Frame=6 idx=005877 GeodesicLength=0.2960491622113654 rxn_smarts="[C:1]([C:2]([C:3](=[O:4])[H:11])([C:5](=[O:6])[H:12])[H:10])([H:7])([H:8])[H:9]>>[C:1]([C@@:2]1([H:10])[C@@:3]2([H:11])[O:4][C@:5]1([H:12])[O:6]2)([H:7])([H:8])[H:9]"
C       -1.34366610      -0.46277849      -0.47068248
C        0.10872203      -0.05646779      -0.49333679
C        0.59079594       1.16785186       0.27567756
O        1.89027299       1.00236459       0.21357116
C        1.02379120      -0.56088417       0.61934778
O        0.43015350      -0.07833044       1.68553201
H       -1.44963062      -1.50332359      -0.78136192
H       -1.78088815      -0.36287263       0.52190006
H       -1.91816073       0.16494609      -1.15413446
H        0.56679997      -0.09855343      -1.48179558
H        0.09452525       2.12925125       0.43245910
H        1.78728472      -1.34120325       0.63282356
12
Frame=7 idx=005877 GeodesicLength=0.345334255941045 rxn_smarts="[C:1]([C:2]([C:3](=[O:4])[H:11])([C:5](=[O:6])[H:12])[H:10])([H:7])([H:8])[H:9]>>[C:1]([C@@:2]1([H:10])[C@@:3]2([H:11])[O:4][C@:5]1([H:12])[O:6]2)([H:7])([H:8])[H:9]"
C       -1.34426638      -0.45745327      -0.46967261
C        0.10993676      -0.05825708      -0.49058084
C        0.58828502       1.16915138       0.27760124
O        1.88892570       1.01080354       0.21304666
C        1.02484159      -0.57029462       0.61948387
O        0.42679416      -0.10225782       1.68987439
H       -1.45282710      -1.50170634      -0.76632978
H       -1.78807132      -0.34389383       0.51857571
H       -1.91202142       0.16587159      -1.16273543
H        0.57031749      -0.10506303      -1.47781570
H        0.08405241       2.12803847       0.42528993
H        1.80403309      -1.33493900       0.62326256
12
Frame=8 idx=005877 GeodesicLength=0.39461231228110377 rxn_smarts="[C:1]([C:2]([C:3](=[O:4])[H:11])([C:5](=[O:6])[H:12])[H:10])([H:7])([H:8])[H:9]>>[C:1]([C@@:2]1([H:10])[C@@:3]2([H:11])[O:4][C@:5]1([H:12])[O:6]2)([H:7])([H:8])[H:9]"
C       -1.34480587      -0.45215107      -0.46861150
C        0.11116835      -0.06001239      -0.48777308
C        0.58578040       1.17050875       0.27953216
O        1.88754273       1.01930380       0.21253689
C        1.02588095      -0.57982415       0.61957663
O        0.42330174      -0.12664281       1.69402255
H       -1.45606180      -1.49984897      -0.75141152
H       -1.79490829      -0.32520413       0.51521517
H       -1.90591117       0.16677483      -1.17098212
H        0.57377361      -0.11144837      -1.47379646
H        0.07377503       2.12689369       0.41767659
H        1.82046430      -1.32834919       0.61401469
12
Frame=9 idx=005877 GeodesicLength=0.4438776067226148 rxn_smarts="[C:1]([C:2]([C:3](=[O:4])[H:11])([C:5](=[O:6])[H:12])[H:10])([H:7])([H:8])[H:9]>>[C:1]([C@@:2]1([H:10])[C@@:3]2([H:11])[O:4][C@:5]1([H:12])[O:6]2)([H:7])([H:8])[H:9]"
C       -1.34528227      -0.44687619      -0.46749572
C        0.11241775      -0.06173080      -0.48491049
C        0.58328755       1.17193685       0.28145637
O        1.88613151       1.02786712       0.21202956
C        1.02690766      -0.58946120       0.61963822
O        0.41967772      -0.15146750       1.69797282
H       -1.45931461      -1.49775082      -0.73666610
H       -1.80138982      -0.30686256       0.51185120
H       -1.89985155       0.16769092      -1.17884098
H        0.57717070      -0.11771789      -1.46973817
H        0.06369617       2.12583258       0.40959732
H        1.83654919      -1.32146052       0.60510597
12
Frame=10 idx=005877 GeodesicLength=0.49312582263384025 rxn_smarts="[C:1]([C:2]([C:3](=[O:4])[H:11])([C:5](=[O:6])[H:12])[H:10])([H:7])([H:8])[H:9]>>[C:1]([C@@:2]1([H:10])[C@@:3]2([H:11])[O:4][C@:5]1([H:12])[O:6]2)([H:7])([H:8])[H:9]"
C       -1.34569585      -0.44163314      -0.46632185
C        0.11368557      -0.06340983      -0.48198804
C        0.58081289       1.17344713       0.28335750
O        1.88469879       1.03649491       0.21150463
C        1.02791515      -0.59919537       0.61967807
O        0.41591448      -0.17671434       1.70172213
H       -1.46257037      -1.49541634      -0.72214803
H       -1.80752020      -0.28892436       0.50851066
H       -1.89385525       0.16865453      -1.18627881
H        0.58050907      -0.12387943      -1.46563690
H        0.05383240       2.12485944       0.40104005
H        1.85227331      -1.31428321       0.59656059
12
Frame=11 idx=005877 GeodesicLength=0.542363786935318 rxn_smarts="[C:1]([C:2]([C:3](=[O:4])[H:11])([C:5](=[O:6])[H:12])[H:10])([H:7])([H:8])[H:9]>>[C:1]([C@@:2]1([H:10])[C@@:3]2([H:11])[O:4][C@:5]1([H:12])[O:6]2)([H:7])([H:8])[H:9]"
C       -1.34604729      -0.43641569      -0.46508828
C        0.11497240      -0.06504801      -0.47900647
C        0.57834892       1.17504046       0.28524437
O        1.88323828       1.04519973       0.21096166
C        1.02891273      -0.60903123       0.61968109
O        0.41201514      -0.20242496       1.70524843
H       -1.46582902      -1.49285858      -0.70781801
H       -1.81331157      -0.27134523       0.50520092
H       -1.88791676       0.16965972      -1.19332685
H        0.58378698      -0.12992525      -1.46149625
H        0.04417740       2.12396584       0.39200670
H        1.86765278      -1.30681679       0.58839269
12
Frame=12 idx=005877 GeodesicLength=0.5915850583489051 rxn_smarts="[C:1]([C:2]([C:3](=[O:4])[H:11])([C:5](=[O:6])[H:12])[H:10])([H:7])([H:8])[H:9]>>[C:1]([C@@:2]1([H:10])[C@@:3]2([H:11])[O:4][C@:5]1([H:12])[O:6]2)([H:7])([H:8])[H:9]"
C       -1.34633523      -0.43122744      -0.46379037
C        0.11627828      -0.06664120      -0.47595915
C        0.57590296       1.17672794       0.28710354
O        1.88175539       1.05398522       0.21038466
C        1.02989410      -0.61895872       0.61965812
O        0.40797470      -0.22858651       1.70854687
H       -1.46906993      -1.49008995      -0.69369621
H       -1.81877531      -0.25414212       0.50194235
H       -1.88203912       0.17071579      -1.19998358
H        0.58700573      -0.13586166      -1.45731102
H        0.03474220       2.12315079       0.38250810
H        1.88266622      -1.29907214       0.58059668
12
Frame=13 idx=005877 GeodesicLength=0.6407948475039904 rxn_smarts="[C:1]([C:2]([C:3](=[O:4])[H:11])([C:5](=[O:6])[H:12])[H:10])([H:7])([H:8])[H:9]>>[C:1]([C@@:2]1([H:10])[C@@:3]2([H:11])[O:4][C@:5]1([H:12])[O:6]2)([H:7])([H:8])[H:9]"
C       -1.34656116      -0.42606221      -0.46242675
C        0.11760445      -0.06818780      -0.47284718
C        0.57346781       1.17851235       0.28893995
O        1.88024494       1.06286207       0.20976722
C        1.03086663      -0.62898026       0.61959403
O        0.40379306      -0.25523651       1.71159229
H       -1.47229573      -1.48712037      -0.67975067
H       -1.82392060      -0.23728064       0.49873952
H       -1.87621675       0.17181998      -1.20627034
H        0.59016227      -0.14168338      -1.45308355
H        0.02552162       2.12240760       0.37254894
H        1.89733345      -1.29105082       0.57319653
12
Frame=14 idx=005877 GeodesicLength=0.6900107005650298 rxn_smarts="[C:1]([C:2]([C:3](=[O:4])[H:11])([C:5](=[O:6])[H:12])[H:10])([H:7])([H:8])[H:9]>>[C:1]([C@@:2]1([H:10])[C@@:3]2([H:11])[O:4][C@:5]1([H:12])[O:6]2)([H:7])([H:8])[H:9]"
C       -1.34672696      -0.42091490      -0.46099511
C        0.11895123      -0.06968524      -0.46966713
C        0.57104021       1.18039553       0.29075968
O        1.87870429       1.07183934       0.20910770
C        1.03183594      -0.63909993       0.61948349
O        0.39946662      -0.28241252       1.71437036
H       -1.47550314      -1.48396329      -0.66593983
H       -1.82876591      -0.22071781       0.49559830
H       -1.87044200       0.17296266      -1.21222111
H        0.59325860      -0.14738575      -1.44881421
H        0.01651241       2.12172811       0.36213227
H        1.91166870      -1.28274620       0.56618559
12
Frame=15 idx=005877 GeodesicLength=0.7392423489277794 rxn_smarts="[C:1]([C:2]([C:3](=[O:4])[H:11])([C:5](=[O:6])[H:12])[H:10])([H:7])([H:8])[H:9]>>[C:1]([C@@:2]1([H:10])[C@@:3]2([H:11])[O:4][C@:5]1([H:12])[O:6]2)([H:7])([H:8])[H:9]"
C       -1.34683361      -0.41578060      -0.45949280
C        0.12031913      -0.07113083      -0.46641595
C        0.56861552       1.18238001       0.29257174
O        1.87712866       1.08092836       0.20840620
C        1.03280844      -0.64932145       0.61931594
O        0.39499287      -0.31015733       1.71685543
H       -1.47869433      -1.48062971      -0.65221481
H       -1.83332512      -0.20440302       0.49251691
H       -1.86470516       0.17412440      -1.21786931
H        0.59629227      -0.15295972      -1.44450263
H        0.00771323       2.12110294       0.35126349
H        1.92568810      -1.27415306       0.55956581
12
Frame=16 idx=005877 GeodesicLength=0.7884917696979248 rxn_smarts="[C:1]([C:2]([C:3](=[O:4])[H:11])([C:5](=[O:6])[H:12])[H:10])([H:7])([H:8])[H:9]>>[C:1]([C@@:2]1([H:10])[C@@:3]2([H:11])[O:4][C@:5]1([H:12])[O:6]2)([H:7])([H:8])[H:9]"
C       -1.34688095      -0.41065438      -0.45791533
C        0.12171006      -0.07252197      -0.46308978
C        0.56618994       1.18446689       0.29437867
O        1.87551436       1.09013768       0.20765914
C        1.03378910      -0.65964416       0.61908325
O        0.39036459      -0.33850968       1.71901774
H       -1.48186855      -1.47712680      -0.63852528
H       -1.83761166      -0.18829004       0.48949308
H       -1.85899254       0.17528614      -1.22324525
H        0.59926527      -0.15840041      -1.44014517
H       -0.00087887       2.12051888       0.33995545
H        1.93939921      -1.26526216       0.55333348
