8
Frame=0 idx=002735 GeodesicLength=0.0 rxn_smarts="[O:1]=[C:2]([C:3]#[C:4][C:5]#[C:6][H:8])[H:7]>>[O:1]1[C:2]([H:7])=[C:3]=[C:4]=[C:5]=[C:6]1[H:8]"
O       -0.51546569      -0.48844825      -0.85098012
C       -1.28249365       0.06554598      -0.05350572
C       -0.85534479       0.78968813       1.15727830
C        0.39062668       0.68339652       1.14466972
C        1.55400904       0.26958496       0.62858556
C        1.38092732      -0.38082528      -0.44027978
H       -2.35144092       0.00049237      -0.28132082
H        1.67918202      -0.93943440      -1.30444712
8
Frame=1 idx=002735 GeodesicLength=0.06054778921939722 rxn_smarts="[O:1]=[C:2]([C:3]#[C:4][C:5]#[C:6][H:8])[H:7]>>[O:1]1[C:2]([H:7])=[C:3]=[C:4]=[C:5]=[C:6]1[H:8]"
O       -0.53242278      -0.48137501      -0.86140094
C       -1.29466232       0.08177604      -0.06182424
C       -0.85349472       0.79748018       1.14484211
C        0.39188199       0.68241902       1.14219495
C        1.55537417       0.26828159       0.62661012
C        1.38771430      -0.41939013      -0.42173396
H       -2.36808054      -0.01081531      -0.25632843
H        1.71368990      -0.91837638      -1.31235960
8
Frame=2 idx=002735 GeodesicLength=0.1210526287161057 rxn_smarts="[O:1]=[C:2]([C:3]#[C:4][C:5]#[C:6][H:8])[H:7]>>[O:1]1[C:2]([H:7])=[C:3]=[C:4]=[C:5]=[C:6]1[H:8]"
O       -0.55027558      -0.47521867      -0.87158343
C       -1.30754062       0.09467158      -0.06813777
C       -0.85096307       0.80924432       1.12927147
C        0.39309876       0.68022207       1.13953573
C        1.55602310       0.26026067       0.62743955
C        1.39464679      -0.44928848      -0.40960512
H       -2.38392570      -0.02168352      -0.23047795
H        1.74893634      -0.89820797      -1.31644249
8
Frame=3 idx=002735 GeodesicLength=0.1820806354208007 rxn_smarts="[O:1]=[C:2]([C:3]#[C:4][C:5]#[C:6][H:8])[H:7]>>[O:1]1[C:2]([H:7])=[C:3]=[C:4]=[C:5]=[C:6]1[H:8]"
O       -0.56922092      -0.47087999      -0.88108628
C       -1.32117580       0.10528560      -0.07310126
C       -0.84786310       0.82419224       1.11115198
C        0.39407417       0.67669926       1.13706871
C        1.55613422       0.24808112       0.63027108
C        1.40198268      -0.47410004      -0.40173252
H       -2.39947320      -0.03146822      -0.20395266
H        1.78554194      -0.87780996      -1.31861905
8
Frame=4 idx=002735 GeodesicLength=0.2423390273788935 rxn_smarts="[O:1]=[C:2]([C:3]#[C:4][C:5]#[C:6][H:8])[H:7]>>[O:1]1[C:2]([H:7])=[C:3]=[C:4]=[C:5]=[C:6]1[H:8]"
O       -0.58849536      -0.45869137      -0.89533489
C       -1.33540842       0.11599861      -0.07781097
C       -0.84461487       0.83860327       1.09278970
C        0.39480351       0.67389729       1.13335663
C        1.55545306       0.23364993       0.63370229
C        1.40874760      -0.49477368      -0.39714109
H       -2.41383525      -0.04566900      -0.17366205
H        1.82334974      -0.86301505      -1.31589961
8
Frame=5 idx=002735 GeodesicLength=0.3032997766460159 rxn_smarts="[O:1]=[C:2]([C:3]#[C:4][C:5]#[C:6][H:8])[H:7]>>[O:1]1[C:2]([H:7])=[C:3]=[C:4]=[C:5]=[C:6]1[H:8]"
O       -0.60883973      -0.44543155      -0.91042988
C       -1.35047141       0.12650165      -0.08216412
C       -0.84131684       0.85341495       1.07387290
C        0.39533485       0.67174347       1.12889860
C        1.55415190       0.21674485       0.63828144
C        1.41552817      -0.51298116      -0.39518501
H       -2.42739526      -0.06052851      -0.14186893
H        1.86300832      -0.84946370      -1.31140498
8
Frame=6 idx=002735 GeodesicLength=0.3639054702075131 rxn_smarts="[O:1]=[C:2]([C:3]#[C:4][C:5]#[C:6][H:8])[H:7]>>[O:1]1[C:2]([H:7])=[C:3]=[C:4]=[C:5]=[C:6]1[H:8]"
O       -0.63070637      -0.43717869      -0.92261579
C       -1.36604568       0.13605167      -0.08583833
C       -0.83767080       0.86752751       1.05440491
C        0.39554680       0.66809038       1.12437446
C        1.55237605       0.19948719       0.64257810
C        1.42282886      -0.52839560      -0.39574439
H       -2.44064309      -0.07084738      -0.11131114
H        1.90431422      -0.83473508      -1.30584782
8
Frame=7 idx=002735 GeodesicLength=0.42481748622711557 rxn_smarts="[O:1]=[C:2]([C:3]#[C:4][C:5]#[C:6][H:8])[H:7]>>[O:1]1[C:2]([H:7])=[C:3]=[C:4]=[C:5]=[C:6]1[H:8]"
O       -0.65358028      -0.42658156      -0.93607708
C       -1.38239258       0.14547177      -0.08891387
C       -0.83454370       0.87833888       1.03706570
C        0.39565830       0.66476567       1.11927460
C        1.55044414       0.18406921       0.64497368
C        1.43029227      -0.54154562      -0.39843982
H       -2.45341114      -0.08042270      -0.08066477
H        1.94753300      -0.82409565      -1.29721844
8
Frame=8 idx=002735 GeodesicLength=0.48587011694379956 rxn_smarts="[O:1]=[C:2]([C:3]#[C:4][C:5]#[C:6][H:8])[H:7]>>[O:1]1[C:2]([H:7])=[C:3]=[C:4]=[C:5]=[C:6]1[H:8]"
O       -0.67783687      -0.41608325      -0.94946658
C       -1.39949785       0.15459736      -0.09140267
C       -0.83149895       0.88821411       1.01992477
C        0.39564190       0.66145565       1.11345329
C        1.54803320       0.16784560       0.64711324
C        1.43805316      -0.55240782      -0.40352276
H       -2.46585270      -0.08892381      -0.04957605
H        1.99295812      -0.81469784      -1.28652324
8
Frame=9 idx=002735 GeodesicLength=0.547052206649092 rxn_smarts="[O:1]=[C:2]([C:3]#[C:4][C:5]#[C:6][H:8])[H:7]>>[O:1]1[C:2]([H:7])=[C:3]=[C:4]=[C:5]=[C:6]1[H:8]"
O       -0.70352323      -0.40463062      -0.96332718
C       -1.41741289       0.16361239      -0.09330225
C       -0.82861260       0.89719924       1.00304108
C        0.39559782       0.65867402       1.10653530
C        1.54490677       0.15028624       0.64913763
C        1.44606102      -0.56091324      -0.41113944
H       -2.47777587      -0.09726563      -0.01755718
H        2.04075898      -0.80696239      -1.27338797
8
Frame=10 idx=002735 GeodesicLength=0.6083644275844712 rxn_smarts="[O:1]=[C:2]([C:3]#[C:4][C:5]#[C:6][H:8])[H:7]>>[O:1]1[C:2]([H:7])=[C:3]=[C:4]=[C:5]=[C:6]1[H:8]"
O       -0.73079594      -0.39244081      -0.97741727
C       -1.43619308       0.17243370      -0.09445736
C       -0.82599436       0.90493052       0.98671747
C        0.39554985       0.65617004       1.09861505
C        1.54109649       0.13171539       0.65060718
C        1.45454833      -0.56631166      -0.42172597
H       -2.48939474      -0.10500928       0.01507914
H        2.09118346      -0.80148791      -1.25741824
8
Frame=11 idx=002735 GeodesicLength=0.6698227443462103 rxn_smarts="[O:1]=[C:2]([C:3]#[C:4][C:5]#[C:6][H:8])[H:7]>>[O:1]1[C:2]([H:7])=[C:3]=[C:4]=[C:5]=[C:6]1[H:8]"
O       -0.76027345      -0.38457684      -0.98924398
C       -1.45578187       0.18052738      -0.09483144
C       -0.82297869       0.91325867       0.96889926
C        0.39554191       0.65350558       1.08952943
C        1.53598926       0.10869104       0.65339129
C        1.46427709      -0.56774741      -0.43606403
H       -2.50160468      -0.10936581       0.04806910
H        2.14483043      -0.79429261      -1.23974962
8
Frame=12 idx=002735 GeodesicLength=0.731300025885948 rxn_smarts="[O:1]=[C:2]([C:3]#[C:4][C:5]#[C:6][H:8])[H:7]>>[O:1]1[C:2]([H:7])=[C:3]=[C:4]=[C:5]=[C:6]1[H:8]"
O       -0.79135070      -0.37538192      -1.00156211
C       -1.47617698       0.18861318      -0.09448956
C       -0.82029051       0.91985973       0.95206310
C        0.39562900       0.65083861       1.07966868
C        1.52993150       0.08519340       0.65497162
C        1.47500355      -0.56447854      -0.45403069
H       -2.51343034      -0.11359095       0.08166643
H        2.20068449      -0.79105350      -1.21828747
8
Frame=13 idx=002735 GeodesicLength=0.793060615726961 rxn_smarts="[O:1]=[C:2]([C:3]#[C:4][C:5]#[C:6][H:8])[H:7]>>[O:1]1[C:2]([H:7])=[C:3]=[C:4]=[C:5]=[C:6]1[H:8]"
O       -0.82484783      -0.37426462      -1.00979922
C       -1.49722648       0.19573121      -0.09336999
C       -0.81685099       0.92652003       0.93354825
C        0.39562743       0.64568891       1.06969608
C        1.52271474       0.05772934       0.65645490
C        1.48844382      -0.55514280      -0.47643062
H       -2.52732161      -0.11090566       0.11443659
H        2.25946092      -0.78535642      -1.19453599
8
Frame=14 idx=002735 GeodesicLength=0.8542979743364557 rxn_smarts="[O:1]=[C:2]([C:3]#[C:4][C:5]#[C:6][H:8])[H:7]>>[O:1]1[C:2]([H:7])=[C:3]=[C:4]=[C:5]=[C:6]1[H:8]"
O       -0.85929304      -0.37401719      -1.01716728
C       -1.51851916       0.20246442      -0.09159804
C       -0.81362544       0.93071519       0.91607790
C        0.39529892       0.63849571       1.06037582
C        1.51512945       0.03165073       0.65529423
C        1.50428268      -0.53859380      -0.50242047
H       -2.54148115      -0.10606013       0.14639302
H        2.31820773      -0.78465492      -1.16695519
8
Frame=15 idx=002735 GeodesicLength=0.9160709789826177 rxn_smarts="[O:1]=[C:2]([C:3]#[C:4][C:5]#[C:6][H:8])[H:7]>>[O:1]1[C:2]([H:7])=[C:3]=[C:4]=[C:5]=[C:6]1[H:8]"
O       -0.89460246      -0.37706822      -1.02280930
C       -1.54003965       0.20875722      -0.08958714
C       -0.81028862       0.93326568       0.89887458
C        0.39465122       0.62827931       1.05254378
C        1.50796698       0.00653540       0.65185404
C        1.52361876      -0.51473142      -0.53118751
H       -2.55665860      -0.09777058       0.17692710
H        2.37535238      -0.78726738      -1.13661555
8
Frame=16 idx=002735 GeodesicLength=0.9768584667484348 rxn_smarts="[O:1]=[C:2]([C:3]#[C:4][C:5]#[C:6][H:8])[H:7]>>[O:1]1[C:2]([H:7])=[C:3]=[C:4]=[C:5]=[C:6]1[H:8]"
O       -0.92923767      -0.38343728      -1.02626237
C       -1.56070753       0.21386227      -0.08718544
C       -0.80712891       0.93189148       0.88340895
C        0.39330570       0.61429860       1.04685829
C        1.50228050      -0.01410404       0.64500062
C        1.54681916      -0.48152677      -0.56201657
H       -2.57273882      -0.08498311       0.20408868
H        2.42740758      -0.79600115      -1.10389216
