11
Frame=0 idx=001428 GeodesicLength=0.0 rxn_smarts="[C:1](#[C:2][C:3]1([H:7])[C:4]([H:8])([H:9])[C:5]1([H:10])[H:11])[H:6]>>[C-:1](=[C:2]1[C+:3]([H:7])[C:5]([H:10])([H:11])[C:4]1([H:8])[H:9])[H:6]"
C        2.27862740      -0.15496172      -0.29780296
C        1.04534351       0.19036638      -0.13662766
C       -0.00229890       1.10833986      -0.06474720
C       -0.41144593      -0.76272815       0.01483352
C       -1.14526164       0.41308043       0.59234686
H        2.53737007      -1.07209802      -0.82064751
H       -0.14585451       1.85851439      -0.84175505
H       -0.75104334      -1.08923589      -0.95998666
H       -0.11136399      -1.57057422       0.67207141
H       -2.12067078       0.62648538       0.16327676
H       -1.17340190       0.45281151       1.67903852
11
Frame=1 idx=001428 GeodesicLength=0.039204027136318195 rxn_smarts="[C:1](#[C:2][C:3]1([H:7])[C:4]([H:8])([H:9])[C:5]1([H:10])[H:11])[H:6]>>[C-:1](=[C:2]1[C+:3]([H:7])[C:5]([H:10])([H:11])[C:4]1([H:8])[H:9])[H:6]"
C        2.28647865      -0.14167446      -0.29827610
C        1.04912205       0.18636792      -0.13251701
C       -0.00518791       1.09676159      -0.07766631
C       -0.42242955      -0.76264503       0.00475641
C       -1.14440643       0.41374260       0.59827487
H        2.56635492      -1.06369174      -0.80086764
H       -0.14581141       1.84870419      -0.85266758
H       -0.77461670      -1.08920206      -0.96578230
H       -0.12826607      -1.57636903       0.65764820
H       -2.12387317       0.63385046       0.18200065
H       -1.15736437       0.45415557       1.68509681
11
Frame=2 idx=001428 GeodesicLength=0.0783822930176504 rxn_smarts="[C:1](#[C:2][C:3]1([H:7])[C:4]([H:8])([H:9])[C:5]1([H:10])[H:11])[H:6]>>[C-:1](=[C:2]1[C+:3]([H:7])[C:5]([H:10])([H:11])[C:4]1([H:8])[H:9])[H:6]"
C        2.29404507      -0.12816970      -0.29939165
C        1.05271085       0.18204186      -0.12906997
C       -0.00795405       1.08485172      -0.09053645
C       -0.43366025      -0.76270071      -0.00538416
C       -1.14330911       0.41432366       0.60404152
H        2.59585407      -1.05470327      -0.78011332
H       -0.14561210       1.83909415      -0.86301280
H       -0.79911244      -1.08939686      -0.97118294
H       -0.14525019      -1.58204259       0.64328393
H       -2.12653542       0.64145776       0.20057715
H       -1.14117643       0.45524397       1.69078870
11
Frame=3 idx=001428 GeodesicLength=0.11751324318939718 rxn_smarts="[C:1](#[C:2][C:3]1([H:7])[C:4]([H:8])([H:9])[C:5]1([H:10])[H:11])[H:6]>>[C-:1](=[C:2]1[C+:3]([H:7])[C:5]([H:10])([H:11])[C:4]1([H:8])[H:9])[H:6]"
C        2.30131713      -0.11454475      -0.30112138
C        1.05614272       0.17736023      -0.12622598
C       -0.01058337       1.07260315      -0.10334621
C       -0.44514084      -0.76290352      -0.01555506
C       -1.14197832       0.41482556       0.60962851
H        2.62582641      -1.04498520      -0.75853712
H       -0.14520733       1.82967031      -0.87278329
H       -0.82448560      -1.08981540      -0.97614433
H       -0.16235123      -1.58760101       0.62904296
H       -2.12864593       0.64930190       0.21894177
H       -1.12489363       0.45608873       1.69610014
11
Frame=4 idx=001428 GeodesicLength=0.15657231258377818 rxn_smarts="[C:1](#[C:2][C:3]1([H:7])[C:4]([H:8])([H:9])[C:5]1([H:10])[H:11])[H:6]>>[C-:1](=[C:2]1[C+:3]([H:7])[C:5]([H:10])([H:11])[C:4]1([H:8])[H:9])[H:6]"
C        2.30828892      -0.10090366      -0.30341948
C        1.05945353       0.17229771      -0.12389925
C       -0.01305801       1.06000702      -0.11607798
C       -0.45686864      -0.76326155      -0.02571539
C       -1.14042822       0.41525141       0.61501383
H        2.65620522      -1.03438519      -0.73634408
H       -0.14453634       1.82041374      -0.88196747
H       -0.85066835      -1.09045588      -0.98062124
H       -0.17960311      -1.59304748       0.61500224
H       -2.13019680       0.65737496       0.23701294
H       -1.10858821       0.45670892       1.70101589
11
Frame=5 idx=001428 GeodesicLength=0.19554052572329766 rxn_smarts="[C:1](#[C:2][C:3]1([H:7])[C:4]([H:8])([H:9])[C:5]1([H:10])[H:11])[H:6]>>[C-:1](=[C:2]1[C+:3]([H:7])[C:5]([H:10])([H:11])[C:4]1([H:8])[H:9])[H:6]"
C        2.31498284      -0.08742056      -0.30599431
C        1.06269195       0.16679236      -0.12188169
C       -0.01533405       1.04703021      -0.12869202
C       -0.46884088      -0.76379834      -0.03576687
C       -1.13870291       0.41562087       0.62015410
H        2.68689815      -1.02259572      -0.71418391
H       -0.14345498       1.81125064      -0.89056956
H       -0.87753293      -1.09135873      -0.98452946
H       -0.19709229      -1.59838308       0.60134030
H       -2.13118863       0.66568369       0.25461986
H       -1.09242627       0.45717865       1.70550356
11
Frame=6 idx=001428 GeodesicLength=0.2343880547630486 rxn_smarts="[C:1](#[C:2][C:3]1([H:7])[C:4]([H:8])([H:9])[C:5]1([H:10])[H:11])[H:6]>>[C-:1](=[C:2]1[C+:3]([H:7])[C:5]([H:10])([H:11])[C:4]1([H:8])[H:9])[H:6]"
C        2.32138900      -0.07412663      -0.30890587
C        1.06588082       0.16086368      -0.12016179
C       -0.01741399       1.03368470      -0.14118469
C       -0.48104117      -0.76450580      -0.04571054
C       -1.13680481       0.41592892       0.62504319
H        2.71781947      -1.00964065      -0.69201324
H       -0.14196562       1.80219853      -0.89856381
H       -0.90501815      -1.09248963      -0.98786984
H       -0.21479406      -1.60360398       0.58805877
H       -2.13162667       0.67420476       0.27173735
H       -1.07642482       0.45748610       1.70957048
11
Frame=7 idx=001428 GeodesicLength=0.27311831651559126 rxn_smarts="[C:1](#[C:2][C:3]1([H:7])[C:4]([H:8])([H:9])[C:5]1([H:10])[H:11])[H:6]>>[C-:1](=[C:2]1[C+:3]([H:7])[C:5]([H:10])([H:11])[C:4]1([H:8])[H:9])[H:6]"
C        2.32751342      -0.06103248      -0.31224061
C        1.06904715       0.15455022      -0.11875241
C       -0.01930620       1.01999874      -0.15355990
C       -0.49345800      -0.76537951      -0.05555814
C       -1.13474466       0.41617267       0.62968708
H        2.74891792      -0.99559857      -0.66973939
H       -0.14008242       1.79329438      -0.90592838
H       -0.93306971      -1.09382452      -0.99065867
H       -0.23268180      -1.60871665       0.57513936
H       -2.13153647       0.68290994       0.28837035
H       -1.06059922       0.45762578       1.71324070
11
Frame=8 idx=001428 GeodesicLength=0.3116427363734977 rxn_smarts="[C:1](#[C:2][C:3]1([H:7])[C:4]([H:8])([H:9])[C:5]1([H:10])[H:11])[H:6]>>[C-:1](=[C:2]1[C+:3]([H:7])[C:5]([H:10])([H:11])[C:4]1([H:8])[H:9])[H:6]"
C        2.33363706      -0.04893199      -0.31328714
C        1.07236784       0.14744093      -0.11611341
C       -0.02068409       1.00567677      -0.16547781
C       -0.50602444      -0.76657525      -0.06463330
C       -1.13284921       0.41651227       0.63377457
H        2.77959166      -0.97872311      -0.65246822
H       -0.13680119       1.78393706      -0.91271952
H       -0.96090056      -1.09578366      -0.99243074
H       -0.25128878      -1.61365720       0.56380193
H       -2.13094322       0.69194363       0.30330319
H       -1.04610506       0.45816056       1.71625044
11
Frame=9 idx=001428 GeodesicLength=0.35003950188508515 rxn_smarts="[C:1](#[C:2][C:3]1([H:7])[C:4]([H:8])([H:9])[C:5]1([H:10])[H:11])[H:6]>>[C-:1](=[C:2]1[C+:3]([H:7])[C:5]([H:10])([H:11])[C:4]1([H:8])[H:9])[H:6]"
C        2.33959992      -0.03709760      -0.31395914
C        1.07570166       0.13990389      -0.11356124
C       -0.02183883       0.99097184      -0.17727145
C       -0.51878244      -0.76795827      -0.07352772
C       -1.13085349       0.41682221       0.63757634
H        2.81022823      -0.96059061      -0.63612353
H       -0.13299984       1.77458041      -0.91895658
H       -0.98910666      -1.09796431      -0.99362267
H       -0.27013561      -1.61848902       0.55298832
H       -2.12987872       0.70117752       0.31758545
H       -1.03193421       0.45864394       1.71887222
11
Frame=10 idx=001428 GeodesicLength=0.38834140159110014 rxn_smarts="[C:1](#[C:2][C:3]1([H:7])[C:4]([H:8])([H:9])[C:5]1([H:10])[H:11])[H:6]>>[C-:1](=[C:2]1[C+:3]([H:7])[C:5]([H:10])([H:11])[C:4]1([H:8])[H:9])[H:6]"
C        2.34548969      -0.02555135      -0.31351472
C        1.07903959       0.13183204      -0.11097112
C       -0.02274054       0.97582615      -0.18896171
C       -0.53177090      -0.76956230      -0.08218404
C       -1.12878492       0.41713087       0.64106780
H        2.84083334      -0.94095255      -0.62152832
H       -0.12855853       1.76508528      -0.92474896
H       -1.01765869      -1.10038831      -0.99419881
H       -0.28935493      -1.62324798       0.54280649
H       -2.12834377       0.71067161       0.33113187
H       -1.01815035       0.45915655       1.72110151
11
Frame=11 idx=001428 GeodesicLength=0.4264895227936244 rxn_smarts="[C:1](#[C:2][C:3]1([H:7])[C:4]([H:8])([H:9])[C:5]1([H:10])[H:11])[H:6]>>[C-:1](=[C:2]1[C+:3]([H:7])[C:5]([H:10])([H:11])[C:4]1([H:8])[H:9])[H:6]"
C        2.35076516      -0.01362328      -0.31590903
C        1.08210399       0.12367620      -0.11060914
C       -0.02388342       0.96054834      -0.20112108
C       -0.54512884      -0.77112036      -0.09152576
C       -1.12604436       0.41718030       0.64465258
H        2.87207009      -0.92156218      -0.60118676
H       -0.12495479       1.75610169      -0.93009504
H       -1.04771215      -1.10230311      -0.99465700
H       -0.30822658      -1.62796929       0.53154775
H       -2.12613536       0.72021743       0.34570127
H       -1.00285375       0.45885427       1.72320220
11
Frame=12 idx=001428 GeodesicLength=0.46452234601656534 rxn_smarts="[C:1](#[C:2][C:3]1([H:7])[C:4]([H:8])([H:9])[C:5]1([H:10])[H:11])[H:6]>>[C-:1](=[C:2]1[C+:3]([H:7])[C:5]([H:10])([H:11])[C:4]1([H:8])[H:9])[H:6]"
C        2.35646349      -0.00272476      -0.31342728
C        1.08544677       0.11455296      -0.10813622
C       -0.02432463       0.94450482      -0.21265946
C       -0.55858692      -0.77308086      -0.09985086
C       -1.12371168       0.41743584       0.64753520
H        2.90235068      -0.89890673      -0.58927445
H       -0.11939595       1.74622843      -0.93501018
H       -1.07700952      -1.10493814      -0.99409327
H       -0.32810791      -1.63255283       0.52233223
H       -2.12358408       0.73020702       0.35794963
H       -0.98954025       0.45927424       1.72463464
11
Frame=13 idx=001428 GeodesicLength=0.5024356068604366 rxn_smarts="[C:1](#[C:2][C:3]1([H:7])[C:4]([H:8])([H:9])[C:5]1([H:10])[H:11])[H:6]>>[C-:1](=[C:2]1[C+:3]([H:7])[C:5]([H:10])([H:11])[C:4]1([H:8])[H:9])[H:6]"
C        2.36189988       0.00823277      -0.31132419
C        1.08869401       0.10509458      -0.10661942
C       -0.02474181       0.92815842      -0.22437660
C       -0.57233591      -0.77513621      -0.10835081
C       -1.12103106       0.41757621       0.65029203
H        2.93272825      -0.87553548      -0.57595553
H       -0.11386687       1.73640355      -0.93957500
H       -1.10709126      -1.10741368      -0.99314243
H       -0.34804563      -1.63709948       0.51297208
H       -2.12046604       0.74035945       0.37025871
H       -0.97574356       0.45935987       1.72582116
11
Frame=14 idx=001428 GeodesicLength=0.5402592695706846 rxn_smarts="[C:1](#[C:2][C:3]1([H:7])[C:4]([H:8])([H:9])[C:5]1([H:10])[H:11])[H:6]>>[C-:1](=[C:2]1[C+:3]([H:7])[C:5]([H:10])([H:11])[C:4]1([H:8])[H:9])[H:6]"
C        2.36731219       0.01897687      -0.30767315
C        1.09194123       0.09503845      -0.10518654
C       -0.02493179       0.91133550      -0.23606959
C       -0.58635843      -0.77737937      -0.11670271
C       -1.11820189       0.41770013       0.65275635
H        2.96289007      -0.85059932      -0.56429827
H       -0.10777995       1.72623899      -0.94386053
H       -1.13755691      -1.10992596      -0.99164117
H       -0.36838169      -1.64160842       0.50406207
H       -2.11681933       0.75081309       0.38196235
H       -0.96211349       0.45941005       1.72665118
11
Frame=15 idx=001428 GeodesicLength=0.5780408248601147 rxn_smarts="[C:1](#[C:2][C:3]1([H:7])[C:4]([H:8])([H:9])[C:5]1([H:10])[H:11])[H:6]>>[C-:1](=[C:2]1[C+:3]([H:7])[C:5]([H:10])([H:11])[C:4]1([H:8])[H:9])[H:6]"
C        2.37289491       0.02925984      -0.30080927
C        1.09527494       0.08412240      -0.10309886
C       -0.02468570       0.89384826      -0.24755414
C       -0.60064722      -0.77988723      -0.12465228
C       -1.11538752       0.41788752       0.65478645
H        2.99253814      -0.82328164      -0.55687908
H       -0.10059403       1.71534952      -0.94790810
H       -1.16809908      -1.11260367      -0.98948014
H       -0.38943207      -1.64606724       0.49606483
H       -2.11267349       0.76170092       0.39249970
H       -0.94918889       0.45967132       1.72703087
11
Frame=16 idx=001428 GeodesicLength=0.6157688932107502 rxn_smarts="[C:1](#[C:2][C:3]1([H:7])[C:4]([H:8])([H:9])[C:5]1([H:10])[H:11])[H:6]>>[C-:1](=[C:2]1[C+:3]([H:7])[C:5]([H:10])([H:11])[C:4]1([H:8])[H:9])[H:6]"
C        2.37809776       0.03984330      -0.29474140
C        1.09842577       0.07277980      -0.10270399
C       -0.02455500       0.87604515      -0.25947615
C       -0.61538781      -0.78243528      -0.13300526
C       -1.11198803       0.41789411       0.65680691
H        3.02251895      -0.79529781      -0.54639045
H       -0.09382866       1.70438422      -0.95190240
H       -1.19988830      -1.11483072      -0.98695150
H       -0.41053310      -1.65054891       0.48747868
H       -2.10777556       0.77279759       0.40366610
H       -0.93508603       0.45936855       1.72721944
