10
Frame=0 idx=000413 GeodesicLength=0.0 rxn_smarts="[C:1]([n:2]1[c:3]([H:10])[n:4][n:5][n:6]1)([H:7])([H:8])[H:9]>>[C:1]([n:6]1[n:2][c:3]([H:10])[n:4][n:5]1)([H:7])([H:8])[H:9]"
C       -1.31169449      -0.47883395       0.20544478
N        0.03488105       0.49323152      -0.74008566
C        1.05546656       1.08206164      -0.11431810
N        1.94418839       0.19089759       0.29802476
N        1.45281676      -0.99672557       0.00084256
N        0.33184710      -0.84601203      -0.64986036
H       -1.10400570      -1.26941910       0.91681229
H       -1.96152838      -0.77135131      -0.60508328
H       -1.60165296       0.44833144       0.68454100
H        1.15968168       2.14781976       0.00368202
10
Frame=1 idx=000413 GeodesicLength=0.0661707058684007 rxn_smarts="[C:1]([n:2]1[c:3]([H:10])[n:4][n:5][n:6]1)([H:7])([H:8])[H:9]>>[C:1]([n:6]1[n:2][c:3]([H:10])[n:4][n:5]1)([H:7])([H:8])[H:9]"
C       -1.32543261      -0.48187310       0.20110877
N        0.03114902       0.50179266      -0.69473432
C        1.07449189       1.08509850      -0.10668367
N        1.97924898       0.18918266       0.25785525
N        1.47241176      -0.99512959      -0.02746209
N        0.32562240      -0.83556560      -0.62450419
H       -1.12511285      -1.25209083       0.93687564
H       -1.95860799      -0.80604533      -0.61135050
H       -1.65672750       0.44453182       0.65510246
H        1.18295690       2.15009880       0.01379265
10
Frame=2 idx=000413 GeodesicLength=0.13198697442378807 rxn_smarts="[C:1]([n:2]1[c:3]([H:10])[n:4][n:5][n:6]1)([H:7])([H:8])[H:9]>>[C:1]([n:6]1[n:2][c:3]([H:10])[n:4][n:5]1)([H:7])([H:8])[H:9]"
C       -1.33972157      -0.48498161       0.19692223
N        0.02794825       0.51005723      -0.64491777
C        1.09416384       1.08814688      -0.09868668
N        2.01438986       0.18810092       0.21333879
N        1.49194758      -0.99305519      -0.05777648
N        0.31988681      -0.82520535      -0.59587278
H       -1.14889994      -1.23378991       0.95727017
H       -1.95388050      -0.84106901      -0.61757320
H       -1.71263409       0.43945496       0.62273122
H        1.20679977       2.15234108       0.02456449
10
Frame=3 idx=000413 GeodesicLength=0.1973099108996217 rxn_smarts="[C:1]([n:2]1[c:3]([H:10])[n:4][n:5][n:6]1)([H:7])([H:8])[H:9]>>[C:1]([n:6]1[n:2][c:3]([H:10])[n:4][n:5]1)([H:7])([H:8])[H:9]"
C       -1.35456266      -0.48829034       0.19286933
N        0.02537859       0.51792944      -0.58952445
C        1.11443576       1.09128151      -0.09012378
N        2.04903339       0.18789214       0.16442928
N        1.51128040      -0.99031643      -0.09039934
N        0.31479922      -0.81496321      -0.56326955
H       -1.17599730      -1.21509088       0.97753574
H       -1.94714974      -0.87596912      -0.62398961
H       -1.76885819       0.43280588       0.58756621
H        1.23164054       2.15472102       0.03490618
10
Frame=4 idx=000413 GeodesicLength=0.2620336899471771 rxn_smarts="[C:1]([n:2]1[c:3]([H:10])[n:4][n:5][n:6]1)([H:7])([H:8])[H:9]>>[C:1]([n:6]1[n:2][c:3]([H:10])[n:4][n:5]1)([H:7])([H:8])[H:9]"
C       -1.36995128      -0.49195001       0.18891590
N        0.02363026       0.52525819      -0.52686055
C        1.13522874       1.09455720      -0.08043299
N        2.08262420       0.18882553       0.11088521
N        1.53020022      -0.98669734      -0.12573989
N        0.31057306      -0.80490049      -0.52567259
H       -1.20726797      -1.19683536       0.99706309
H       -1.93810072      -0.91009494      -0.63108924
H       -1.82483505       0.42433239       0.54981894
H        1.25789854       2.15750482       0.04311211
10
Frame=5 idx=000413 GeodesicLength=0.3260402670468554 rxn_smarts="[C:1]([n:2]1[c:3]([H:10])[n:4][n:5][n:6]1)([H:7])([H:8])[H:9]>>[C:1]([n:6]1[n:2][c:3]([H:10])[n:4][n:5]1)([H:7])([H:8])[H:9]"
C       -1.38580677      -0.49603681       0.18499281
N        0.02310024       0.53167689      -0.45454233
C        1.15654602       1.09794730      -0.06898622
N        2.11461312       0.19121189       0.05180563
N        1.54838106      -0.98199089      -0.16436360
N        0.30753393      -0.79524934      -0.48152945
H       -1.24382368      -1.17984229       1.01524969
H       -1.92615400      -0.94269048      -0.63957751
H       -1.87987836       0.41406336       0.50943763
H        1.28548844       2.16091037       0.04751335
10
Frame=6 idx=000413 GeodesicLength=0.38898239831835624 rxn_smarts="[C:1]([n:2]1[c:3]([H:10])[n:4][n:5][n:6]1)([H:7])([H:8])[H:9]>>[C:1]([n:6]1[n:2][c:3]([H:10])[n:4][n:5]1)([H:7])([H:8])[H:9]"
C       -1.40185730      -0.50056378       0.18099269
N        0.02449613       0.53650637      -0.36892581
C        1.17847723       1.10139445      -0.05530126
N        2.14403572       0.19541521      -0.01380088
N        1.56522142      -0.97595688      -0.20705762
N        0.30622616      -0.78645526      -0.42852998
H       -1.28714339      -1.16537633       1.03107093
H       -1.91034561      -0.97240357      -0.65059780
H       -1.93280785       0.40227979       0.46653917
H        1.31369748       2.16516001       0.04561056
10
Frame=7 idx=000413 GeodesicLength=0.45011993252645793 rxn_smarts="[C:1]([n:2]1[c:3]([H:10])[n:4][n:5][n:6]1)([H:7])([H:8])[H:9]>>[C:1]([n:6]1[n:2][c:3]([H:10])[n:4][n:5]1)([H:7])([H:8])[H:9]"
C       -1.41741694      -0.50510097       0.17671598
N        0.02928256       0.53795195      -0.26524201
C        1.20093195       1.10461514      -0.04017431
N        2.16956913       0.20222076      -0.09027674
N        1.57987266      -0.96846126      -0.25460958
N        0.30779589      -0.78004152      -0.36202868
H       -1.33938573      -1.15371888       1.04373847
H       -1.88861943      -0.99773364      -0.66551647
H       -1.98180761       0.39038610       0.41976440
H        1.33977752       2.16988231       0.03762894
10
Frame=8 idx=000413 GeodesicLength=0.5061075076096023 rxn_smarts="[C:1]([n:2]1[c:3]([H:10])[n:4][n:5][n:6]1)([H:7])([H:8])[H:9]>>[C:1]([n:6]1[n:2][c:3]([H:10])[n:4][n:5]1)([H:7])([H:8])[H:9]"
C       -1.43017500      -0.50904441       0.17174944
N        0.03978841       0.53400147      -0.13649905
C        1.22278990       1.10769184      -0.02730094
N        2.18706312       0.21124613      -0.17503437
N        1.58935808      -0.95981049      -0.30667751
N        0.31378508      -0.77723831      -0.27938959
H       -1.40145535      -1.14795673       1.04943018
H       -1.85861978      -1.01414511      -0.68655683
H       -2.02171503       0.38006539       0.37177698
H        1.35918057       2.17519022       0.01850170
10
Frame=9 idx=000413 GeodesicLength=0.5520895208941258 rxn_smarts="[C:1]([n:2]1[c:3]([H:10])[n:4][n:5][n:6]1)([H:7])([H:8])[H:9]>>[C:1]([n:6]1[n:2][c:3]([H:10])[n:4][n:5]1)([H:7])([H:8])[H:9]"
C       -1.43571766      -0.50998634       0.16583557
N        0.05946250       0.52005959       0.01637560
C        1.23847702       1.10891069      -0.01859196
N        2.19073665       0.22239589      -0.26900514
N        1.58971998      -0.95074362      -0.36448522
N        0.32650711      -0.78224715      -0.17890263
H       -1.47015124      -1.14332762       1.04789186
H       -1.81645445      -1.02027981      -0.71234123
H       -2.04560467       0.37644086       0.31939319
H        1.36302477       2.17877751      -0.00617002
10
Frame=10 idx=000413 GeodesicLength=0.5918305898855507 rxn_smarts="[C:1]([n:2]1[c:3]([H:10])[n:4][n:5][n:6]1)([H:7])([H:8])[H:9]>>[C:1]([n:6]1[n:2][c:3]([H:10])[n:4][n:5]1)([H:7])([H:8])[H:9]"
C       -1.42919125      -0.50598468       0.15915591
N        0.08828694       0.49593781       0.17171161
C        1.24208702       1.10656665      -0.01341011
N        2.17647918       0.23351138      -0.36035315
N        1.57747889      -0.94330447      -0.42146421
N        0.34543739      -0.79545615      -0.07733649
H       -1.53391329      -1.13338663       1.04046196
H       -1.76593392      -1.01951481      -0.73563604
H       -2.04622519       0.38297322       0.26464066
H        1.34549422       2.17865767      -0.02777014
10
Frame=11 idx=000413 GeodesicLength=0.637066197147734 rxn_smarts="[C:1]([n:2]1[c:3]([H:10])[n:4][n:5][n:6]1)([H:7])([H:8])[H:9]>>[C:1]([n:6]1[n:2][c:3]([H:10])[n:4][n:5]1)([H:7])([H:8])[H:9]"
C       -1.41369686      -0.49911713       0.15289789
N        0.11846701       0.46858551       0.29561371
C        1.23581124       1.10135625      -0.00810935
N        2.15079341       0.24318215      -0.43530870
N        1.55578706      -0.93707841      -0.47366682
N        0.36576825      -0.81199951       0.00382081
H       -1.58155475      -1.11069128       1.03610124
H       -1.71915698      -1.02465039      -0.74687341
H       -2.03003361       0.39531114       0.20784784
H        1.31781523       2.17510168      -0.03232322
10
Frame=12 idx=000413 GeodesicLength=0.6852806197479536 rxn_smarts="[C:1]([n:2]1[c:3]([H:10])[n:4][n:5][n:6]1)([H:7])([H:8])[H:9]>>[C:1]([n:6]1[n:2][c:3]([H:10])[n:4][n:5]1)([H:7])([H:8])[H:9]"
C       -1.39533928      -0.49198240       0.14754732
N        0.14582898       0.44180042       0.38812246
C        1.22619802       1.09513293      -0.00003272
N        2.12370348       0.25162850      -0.48967547
N        1.53064882      -0.93034441      -0.52035986
N        0.38419810      -0.82801291       0.06047073
H       -1.61487282      -1.07996139       1.03594701
H       -1.68254693      -1.03625594      -0.74784961
H       -2.00675934       0.40792037       0.15331517
H        1.28894096       2.17007483      -0.02748503
10
Frame=13 idx=000413 GeodesicLength=0.7345822204753234 rxn_smarts="[C:1]([n:2]1[c:3]([H:10])[n:4][n:5][n:6]1)([H:7])([H:8])[H:9]>>[C:1]([n:6]1[n:2][c:3]([H:10])[n:4][n:5]1)([H:7])([H:8])[H:9]"
C       -1.37637914      -0.48564310       0.14280287
N        0.17027001       0.41676546       0.46004351
C        1.21546959       1.08901235       0.00807589
N        2.09667929       0.25963256      -0.53325387
N        1.50362417      -0.92293552      -0.56271988
N        0.40123373      -0.84275494       0.10310179
H       -1.64015338      -1.04411055       1.03868906
H       -1.65322377      -1.05332263      -0.74207793
H       -1.98059551       0.41853719       0.09945715
H        1.26307500       2.16481919      -0.01411860
10
Frame=14 idx=000413 GeodesicLength=0.784234337727523 rxn_smarts="[C:1]([n:2]1[c:3]([H:10])[n:4][n:5][n:6]1)([H:7])([H:8])[H:9]>>[C:1]([n:6]1[n:2][c:3]([H:10])[n:4][n:5]1)([H:7])([H:8])[H:9]"
C       -1.35746286      -0.47987877       0.13852908
N        0.19293703       0.39240104       0.51950007
C        1.20439459       1.08295725       0.01667487
N        2.07076067       0.26751188      -0.56868896
N        1.47624762      -0.91485918      -0.60107906
N        0.41718939      -0.85674476       0.13586762
H       -1.66037332      -1.00592463       1.04213706
H       -1.62950774      -1.07205849      -0.73253113
H       -1.95266128       0.42722601       0.04785035
H        1.23847590       2.15936966       0.00174010
10
Frame=15 idx=000413 GeodesicLength=0.8342177806825914 rxn_smarts="[C:1]([n:2]1[c:3]([H:10])[n:4][n:5][n:6]1)([H:7])([H:8])[H:9]>>[C:1]([n:6]1[n:2][c:3]([H:10])[n:4][n:5]1)([H:7])([H:8])[H:9]"
C       -1.33875165      -0.47467144       0.13457730
N        0.21425321       0.36864498       0.57025681
C        1.19323515       1.07701757       0.02548504
N        2.04530040       0.27553487      -0.59949035
N        1.44875190      -0.90633079      -0.63597437
N        0.43245929      -0.87011285       0.16222790
H       -1.67722045      -0.96588257       1.04564706
H       -1.60974740      -1.09182108      -0.72022058
H       -1.92361275       0.43382261      -0.00230461
H        1.21533229       2.15379870       0.01979580
10
Frame=16 idx=000413 GeodesicLength=0.8843435200155683 rxn_smarts="[C:1]([n:2]1[c:3]([H:10])[n:4][n:5][n:6]1)([H:7])([H:8])[H:9]>>[C:1]([n:6]1[n:2][c:3]([H:10])[n:4][n:5]1)([H:7])([H:8])[H:9]"
C       -1.32034080      -0.46986695       0.13091559
N        0.23460160       0.34522074       0.61462143
C        1.18214461       1.07112485       0.03452385
N        2.02046913       0.28368519      -0.62650620
N        1.42154909      -0.89748290      -0.66779393
N        0.44716950      -0.88303247       0.18366188
H       -1.69146341      -0.92467813       1.04864409
H       -1.59314912      -1.11151019      -0.70601925
H       -1.89388816       0.43848269      -0.05062984
H        1.19290756       2.14805717       0.03858238
