9
Frame=0 idx=000014 GeodesicLength=0.0 rxn_smarts="[O:1]([c+:2]1[n-:3][c:4]([H:8])[n:5][n:6]1[H:9])[H:7]>>[O:1]([C@@:2]1([H:9])[N:3]=[C:4]([H:8])[N:5]=[N:6]1)[H:7]"
O       -1.96170424      -0.20228656      -0.11452634
C       -0.64911345       0.01235622       0.05488852
N        0.30491631      -0.93807006      -0.07552924
C        1.38886558      -0.20659724      -0.24225326
N        1.19629949       1.12643026      -0.20721449
N       -0.10107064       1.31672572      -0.07334790
H       -2.10651751      -1.15314544      -0.08384540
H        2.37720956      -0.62800765      -0.36021583
H       -0.44888508       0.67259473       1.10204390
9
Frame=1 idx=000014 GeodesicLength=0.04119843529458932 rxn_smarts="[O:1]([c+:2]1[n-:3][c:4]([H:8])[n:5][n:6]1[H:9])[H:7]>>[O:1]([C@@:2]1([H:9])[N:3]=[C:4]([H:8])[N:5]=[N:6]1)[H:7]"
O       -1.95813564      -0.20447855      -0.12617320
C       -0.64792762       0.00960810       0.06472186
N        0.30844303      -0.94044228      -0.06261150
C        1.39082558      -0.20976881      -0.23896366
N        1.19693738       1.12526652      -0.20703174
N       -0.09899412       1.31140875      -0.06901108
H       -2.10537195      -1.15477550      -0.09153650
H        2.37629765      -0.63005103      -0.38203519
H       -0.46207432       0.69323281       1.11264100
9
Frame=2 idx=000014 GeodesicLength=0.08238785892169571 rxn_smarts="[O:1]([c+:2]1[n-:3][c:4]([H:8])[n:5][n:6]1[H:9])[H:7]>>[O:1]([C@@:2]1([H:9])[N:3]=[C:4]([H:8])[N:5]=[N:6]1)[H:7]"
O       -1.95421708      -0.20673707      -0.13760257
C       -0.64670962       0.00682854       0.07471936
N        0.31198046      -0.94278616      -0.05027267
C        1.39272232      -0.21297634      -0.23648313
N        1.19757728       1.12406637      -0.20684400
N       -0.09684985       1.30606493      -0.06427720
H       -2.10401503      -1.15643084      -0.09909034
H        2.37495888      -0.63213368      -0.40305103
H       -0.47544735       0.71410426       1.12290158
9
Frame=3 idx=000014 GeodesicLength=0.12358342866690933 rxn_smarts="[O:1]([c+:2]1[n-:3][c:4]([H:8])[n:5][n:6]1[H:9])[H:7]>>[O:1]([C@@:2]1([H:9])[N:3]=[C:4]([H:8])[N:5]=[N:6]1)[H:7]"
O       -1.94978419      -0.20916975      -0.14930301
C       -0.64542121       0.00403294       0.08497958
N        0.31565782      -0.94511992      -0.03748901
C        1.39474336      -0.21629353      -0.23358408
N        1.19837102       1.12276691      -0.20605133
N       -0.09456052       1.30065930      -0.05931597
H       -2.10228444      -1.15820203      -0.10667437
H        2.37284031      -0.63436834      -0.42523656
H       -0.48956215       0.73569441       1.13267475
9
Frame=4 idx=000014 GeodesicLength=0.16476843472342467 rxn_smarts="[O:1]([c+:2]1[n-:3][c:4]([H:8])[n:5][n:6]1[H:9])[H:7]>>[O:1]([C@@:2]1([H:9])[N:3]=[C:4]([H:8])[N:5]=[N:6]1)[H:7]"
O       -1.94501443      -0.21164662      -0.16072047
C       -0.64410503       0.00119400       0.09537619
N        0.31933312      -0.94744188      -0.02541616
C        1.39665835      -0.21964595      -0.23165774
N        1.19916144       1.12143474      -0.20526438
N       -0.09220126       1.29522355      -0.05391198
H       -2.10038568      -1.15996714      -0.11405041
H        2.37041456      -0.63661385      -0.44641332
H       -0.50386108       0.75746317       1.14205828
9
Frame=5 idx=000014 GeodesicLength=0.2059451201384568 rxn_smarts="[O:1]([c+:2]1[n-:3][c:4]([H:8])[n:5][n:6]1[H:9])[H:7]>>[O:1]([C@@:2]1([H:9])[N:3]=[C:4]([H:8])[N:5]=[N:6]1)[H:7]"
O       -1.94000671      -0.21409846      -0.17165043
C       -0.64278221      -0.00170862       0.10583726
N        0.32294541      -0.94976850      -0.01453296
C        1.39835461      -0.22300464      -0.23121360
N        1.19986764       1.12009749      -0.20472076
N       -0.08981128       1.28976388      -0.04798810
H       -2.09844218      -1.16165560      -0.12108041
H        2.36802730      -0.63881912      -0.46575407
H       -0.51815258       0.77919357       1.15110307
9
Frame=6 idx=000014 GeodesicLength=0.24706705222847225 rxn_smarts="[O:1]([c+:2]1[n-:3][c:4]([H:8])[n:5][n:6]1[H:9])[H:7]>>[O:1]([C@@:2]1([H:9])[N:3]=[C:4]([H:8])[N:5]=[N:6]1)[H:7]"
O       -1.93474160      -0.21653121      -0.18222117
C       -0.64144198      -0.00469497       0.11635540
N        0.32652178      -0.95212099      -0.00460277
C        1.39988279      -0.22638541      -0.23183602
N        1.20053130       1.11873737      -0.20426128
N       -0.08736354       1.28426563      -0.04158288
H       -2.09646156      -1.16326708      -0.12775372
H        2.36568258      -0.64098898      -0.48382896
H       -0.53260978       0.80098563       1.15973139
9
Frame=7 idx=000014 GeodesicLength=0.2881164003098369 rxn_smarts="[O:1]([c+:2]1[n-:3][c:4]([H:8])[n:5][n:6]1[H:9])[H:7]>>[O:1]([C@@:2]1([H:9])[N:3]=[C:4]([H:8])[N:5]=[N:6]1)[H:7]"
O       -1.92932856      -0.21889592      -0.19228118
C       -0.64010255      -0.00776607       0.12690412
N        0.33000434      -0.95452023       0.00395007
C        1.40114665      -0.22975821      -0.23392073
N        1.20106520       1.11738362      -0.20408275
N       -0.08491491       1.27872546      -0.03465674
H       -2.09457354      -1.16473294      -0.13394795
H        2.36376914      -0.64310650      -0.49997218
H       -0.54706576       0.82267080       1.16800733
9
Frame=8 idx=000014 GeodesicLength=0.32918582817713266 rxn_smarts="[O:1]([c+:2]1[n-:3][c:4]([H:8])[n:5][n:6]1[H:9])[H:7]>>[O:1]([C@@:2]1([H:9])[N:3]=[C:4]([H:8])[N:5]=[N:6]1)[H:7]"
O       -1.92363996      -0.22123792      -0.20204642
C       -0.63873137      -0.01094424       0.13752843
N        0.33348627      -0.95700247       0.01180957
C        1.40227519      -0.23319691      -0.23676339
N        1.20158711       1.11598562      -0.20387426
N       -0.08237249       1.27314018      -0.02727101
H       -2.09264808      -1.16612749      -0.13986250
H        2.36189843      -0.64516789      -0.51534813
H       -0.56185511       0.84455111       1.17582770
9
Frame=9 idx=000014 GeodesicLength=0.370221872278609 rxn_smarts="[O:1]([c+:2]1[n-:3][c:4]([H:8])[n:5][n:6]1[H:9])[H:7]>>[O:1]([C@@:2]1([H:9])[N:3]=[C:4]([H:8])[N:5]=[N:6]1)[H:7]"
O       -1.91782431      -0.22353649      -0.21132960
C       -0.63734138      -0.01422603       0.14819758
N        0.33690421      -0.95952150       0.01845430
C        1.40316639      -0.23659110      -0.24082042
N        1.20200111       1.11458778      -0.20387742
N       -0.07980234       1.26745189      -0.01937183
H       -2.09084502      -1.16736654      -0.14536016
H        2.36050309      -0.64722106      -0.52915563
H       -0.57676175       0.86642306       1.18326317
9
Frame=10 idx=000014 GeodesicLength=0.4112361906189915 rxn_smarts="[O:1]([c+:2]1[n-:3][c:4]([H:8])[n:5][n:6]1[H:9])[H:7]>>[O:1]([C@@:2]1([H:9])[N:3]=[C:4]([H:8])[N:5]=[N:6]1)[H:7]"
O       -1.91171528      -0.22579099      -0.22033965
C       -0.63590872      -0.01763676       0.15895513
N        0.34032215      -0.96216086       0.02454922
C        1.40391649      -0.24008473      -0.24543633
N        1.20240531       1.11311940      -0.20378086
N       -0.07710722       1.26170463      -0.01099701
H       -2.08900745      -1.16851458      -0.15060051
H        2.35920857      -0.64918099      -0.54250393
H       -0.59211385       0.88854487       1.19015392
9
Frame=11 idx=000014 GeodesicLength=0.45220511141423 rxn_smarts="[O:1]([c+:2]1[n-:3][c:4]([H:8])[n:5][n:6]1[H:9])[H:7]>>[O:1]([C@@:2]1([H:9])[N:3]=[C:4]([H:8])[N:5]=[N:6]1)[H:7]"
O       -1.90557990      -0.22792171      -0.22867056
C       -0.63444826      -0.02121382       0.16971806
N        0.34363487      -0.96488106       0.02911092
C        1.40432418      -0.24350628      -0.25167438
N        1.20263066       1.11166072      -0.20411524
N       -0.07439089       1.25584347      -0.00206048
H       -2.08740039      -1.16944243      -0.15537314
H        2.35866237      -0.65104733      -0.55363872
H       -0.60743265       0.91050844       1.19670354
9
Frame=12 idx=000014 GeodesicLength=0.4931566797388249 rxn_smarts="[O:1]([c+:2]1[n-:3][c:4]([H:8])[n:5][n:6]1[H:9])[H:7]>>[O:1]([C@@:2]1([H:9])[N:3]=[C:4]([H:8])[N:5]=[N:6]1)[H:7]"
O       -1.89934235      -0.22994047      -0.23646050
C       -0.63293883      -0.02496181       0.18053925
N        0.34689381      -0.96772058       0.03264221
C        1.40444585      -0.24694242      -0.25908914
N        1.20273839       1.11017091      -0.20468642
N       -0.07158253       1.24987632       0.00743445
H       -2.08592727      -1.17020091      -0.15983678
H        2.35865716      -0.65279298      -0.56335445
H       -0.62294422       0.93251193       1.20281138
9
Frame=13 idx=000014 GeodesicLength=0.5340897373746413 rxn_smarts="[O:1]([c+:2]1[n-:3][c:4]([H:8])[n:5][n:6]1[H:9])[H:7]>>[O:1]([C@@:2]1([H:9])[N:3]=[C:4]([H:8])[N:5]=[N:6]1)[H:7]"
O       -1.89292562      -0.23189480      -0.24385854
C       -0.63135840      -0.02887383       0.19147356
N        0.35015546      -0.97066225       0.03551943
C        1.40433762      -0.25039443      -0.26734481
N        1.20279837       1.10863198      -0.20526021
N       -0.06864394       1.24378717       0.01748601
H       -2.08449733      -1.17083032      -0.16407390
H        2.35898192      -0.65448902      -0.57231226
H       -0.63884809       0.95472550       1.20837073
9
Frame=14 idx=000014 GeodesicLength=0.575016770995302 rxn_smarts="[O:1]([c+:2]1[n-:3][c:4]([H:8])[n:5][n:6]1[H:9])[H:7]>>[O:1]([C@@:2]1([H:9])[N:3]=[C:4]([H:8])[N:5]=[N:6]1)[H:7]"
O       -1.88624587      -0.23381656      -0.25096864
C       -0.62968825      -0.03294884       0.20258687
N        0.35347151      -0.97370878       0.03810381
C        1.40405257      -0.25389533      -0.27612620
N        1.20286689       1.10700788      -0.20565230
N       -0.06552598       1.23756034       0.02810781
H       -2.08301337      -1.17136165      -0.16820518
H        2.35939781      -0.65614420      -0.58111041
H       -0.65531531       0.97730713       1.21326424
9
Frame=15 idx=000014 GeodesicLength=0.6159380876432714 rxn_smarts="[O:1]([c+:2]1[n-:3][c:4]([H:8])[n:5][n:6]1[H:9])[H:7]>>[O:1]([C@@:2]1([H:9])[N:3]=[C:4]([H:8])[N:5]=[N:6]1)[H:7]"
O       -1.87917628      -0.23577409      -0.25797508
C       -0.62790507      -0.03716881       0.21396194
N        0.35691837      -0.97683954       0.04090282
C        1.40370186      -0.25746151      -0.28488144
N        1.20304880       1.10527386      -0.20556669
N       -0.06216650       1.23118650       0.03932242
H       -2.08133499      -1.17185978      -0.17237435
H        2.35951837      -0.65783289      -0.59069393
H       -0.67260456       1.00047625       1.21730432
9
Frame=16 idx=000014 GeodesicLength=0.6568391921307086 rxn_smarts="[O:1]([c+:2]1[n-:3][c:4]([H:8])[n:5][n:6]1[H:9])[H:7]>>[O:1]([C@@:2]1([H:9])[N:3]=[C:4]([H:8])[N:5]=[N:6]1)[H:7]"
O       -1.87211676      -0.23753788      -0.26421681
C       -0.62604025      -0.04163001       0.22541052
N        0.36029497      -0.98009372       0.04247089
C        1.40287303      -0.26098369      -0.29535544
N        1.20301623       1.10350358      -0.20597993
N       -0.05866881       1.22463136       0.05127439
H       -2.07983998      -1.17212534      -0.17627382
H        2.36042530      -0.65933743      -0.59818976
H       -0.68994373       1.02357312       1.22085997
