16
Frame=0 idx=011245 GeodesicLength=0.0 rxn_smarts="[C:1]([C@@:2]([O:3][H:12])([C@@:4]([C:5]([H:14])([H:15])[H:16])([C:6]#[N:7])[H:13])[H:11])([H:8])([H:9])[H:10]>>[C:1](/[C:2]([O:3][H:12])=[C:4](/[C:5]([H:14])([H:15])[H:16])[H:13])([H:8])([H:9])[H:10].[C:6]=[N:7][H:11]"
C       -1.65719214      -0.21110111      -0.59689311
C       -0.50677789      -0.37232049       0.34196879
O       -0.30619909      -1.64817581       0.69651471
C        0.75726205       0.42493276       0.37676040
C        1.96823051      -0.36508729      -0.12504845
C        0.46356938       1.82590305      -0.19641054
N       -0.56996274       2.35548472       0.21871530
H       -1.79822081       0.80404843      -0.94420075
H       -2.58362201      -0.55615478      -0.13209344
H       -1.46735023      -0.85461424      -1.47194642
H       -1.11186258       1.71668888       0.89297758
H       -0.96985180      -2.22829529       0.30653461
H        0.95884310       0.75490792       1.39613329
H        2.83358115       0.29489252      -0.13711539
H        1.80523670      -0.72444417      -1.14235992
H        2.18431640      -1.21666517       0.51646340
16
Frame=1 idx=011245 GeodesicLength=0.15798827525297204 rxn_smarts="[C:1]([C@@:2]([O:3][H:12])([C@@:4]([C:5]([H:14])([H:15])[H:16])([C:6]#[N:7])[H:13])[H:11])([H:8])([H:9])[H:10]>>[C:1](/[C:2]([O:3][H:12])=[C:4](/[C:5]([H:14])([H:15])[H:16])[H:13])([H:8])([H:9])[H:10].[C:6]=[N:7][H:11]"
C       -1.67009626      -0.21496758      -0.59126365
C       -0.51076930      -0.36044243       0.34175404
O       -0.30664686      -1.64291454       0.68669554
C        0.75927535       0.42215047       0.38166946
C        1.97085398      -0.36463163      -0.12073811
C        0.48263675       1.86379298      -0.19985669
N       -0.55602401       2.37637416       0.21105743
H       -1.83073570       0.79832132      -0.93697073
H       -2.59194627      -0.57332361      -0.12722226
H       -1.47858324      -0.84944402      -1.47173390
H       -1.10019872       1.68142031       0.86550758
H       -0.96686868      -2.22985455       0.30307569
H        0.95977021       0.74383363       1.40434647
H        2.84091281       0.28947439      -0.12730187
H        1.80789687      -0.72287335      -1.13819375
H        2.19052307      -1.21691556       0.51917476
16
Frame=2 idx=011245 GeodesicLength=0.3160247398039484 rxn_smarts="[C:1]([C@@:2]([O:3][H:12])([C@@:4]([C:5]([H:14])([H:15])[H:16])([C:6]#[N:7])[H:13])[H:11])([H:8])([H:9])[H:10]>>[C:1](/[C:2]([O:3][H:12])=[C:4](/[C:5]([H:14])([H:15])[H:16])[H:13])([H:8])([H:9])[H:10].[C:6]=[N:7][H:11]"
C       -1.68369752      -0.21916776      -0.58511255
C       -0.51455194      -0.34921065       0.34046066
O       -0.30690178      -1.63831813       0.67554208
C        0.76117030       0.41872257       0.38688960
C        1.97390171      -0.36399366      -0.11592463
C        0.50260987       1.90244136      -0.20286970
N       -0.54171400       2.39764735       0.20188466
H       -1.86478715       0.79197076      -0.92847593
H       -2.60027842      -0.59086861      -0.12091058
H       -1.49170823      -0.84419600      -1.47142708
H       -1.08697235       1.64827034       0.83640757
H       -0.96379079      -2.23205379       0.29865961
H        0.95966816       0.73215669       1.41293263
H        2.84837925       0.28450109      -0.11619740
H        1.81165270      -0.72057842      -1.13382366
H        2.19702020      -1.21732316       0.52196472
16
Frame=3 idx=011245 GeodesicLength=0.47411627787881416 rxn_smarts="[C:1]([C@@:2]([O:3][H:12])([C@@:4]([C:5]([H:14])([H:15])[H:16])([C:6]#[N:7])[H:13])[H:11])([H:8])([H:9])[H:10]>>[C:1](/[C:2]([O:3][H:12])=[C:4](/[C:5]([H:14])([H:15])[H:16])[H:13])([H:8])([H:9])[H:10].[C:6]=[N:7][H:11]"
C       -1.69803746      -0.22367493      -0.57836919
C       -0.51811475      -0.33861586       0.33803742
O       -0.30695840      -1.63438109       0.66296801
C        0.76295561       0.41463280       0.39240224
C        1.97739956      -0.36318808      -0.11056025
C        0.52358403       1.94189921      -0.20546179
N       -0.52693734       2.41938992       0.19098224
H       -1.90048339       0.78501795      -0.91845163
H       -2.60861337      -0.60884722      -0.11309316
H       -1.50681918      -0.83877171      -1.47099669
H       -1.07228255       1.61704665       0.80555972
H       -0.96057318      -2.23488876       0.29314853
H        0.95849927       0.71989926       1.42186435
H        2.85599934       0.27995708      -0.10374260
H        1.81656915      -0.71759147      -1.12919787
H        2.20381268      -1.21788375       0.52491067
16
Frame=4 idx=011245 GeodesicLength=0.6322659469267571 rxn_smarts="[C:1]([C@@:2]([O:3][H:12])([C@@:4]([C:5]([H:14])([H:15])[H:16])([C:6]#[N:7])[H:13])[H:11])([H:8])([H:9])[H:10]>>[C:1](/[C:2]([O:3][H:12])=[C:4](/[C:5]([H:14])([H:15])[H:16])[H:13])([H:8])([H:9])[H:10].[C:6]=[N:7][H:11]"
C       -1.71316300      -0.22846474      -0.57094913
C       -0.52144480      -0.32865501       0.33441872
O       -0.30680468      -1.63110592       0.64885630
C        0.76463428       0.40985983       0.39818848
C        1.98137506      -0.36222474      -0.10458752
C        0.54565262       1.98221638      -0.20764156
N       -0.51159703       2.44167557       0.17811721
H       -1.93792542       0.77747890      -0.90659753
H       -2.61693744      -0.62731721      -0.10368379
H       -1.52404129      -0.83306698      -1.47039930
H       -1.05620362       1.58757298       0.77279881
H       -0.95717172      -2.23835905       0.28637916
H        0.95620777       0.70707733       1.43111468
H        2.86378785       0.27583505      -0.08985203
H        1.82272578      -0.71393077      -1.12425742
H        2.21090564      -1.21859162       0.52809492
16
Frame=5 idx=011245 GeodesicLength=0.7904790929477559 rxn_smarts="[C:1]([C@@:2]([O:3][H:12])([C@@:4]([C:5]([H:14])([H:15])[H:16])([C:6]#[N:7])[H:13])[H:11])([H:8])([H:9])[H:10]>>[C:1](/[C:2]([O:3][H:12])=[C:4](/[C:5]([H:14])([H:15])[H:16])[H:13])([H:8])([H:9])[H:10].[C:6]=[N:7][H:11]"
C       -1.72912761      -0.23351451      -0.56275111
C       -0.52452581      -0.31933190       0.32951997
O       -0.30642052      -1.62850338       0.63305183
C        0.76620341       0.40437738       0.40422711
C        1.98585912      -0.36110807      -0.09793659
C        0.56890572       2.02344246      -0.20941563
N       -0.49558963       2.46456686       0.16303210
H       -1.97720377       0.76936612      -0.89256874
H       -2.62522809      -0.64633578      -0.09256948
H       -1.54353966      -0.82697089      -1.46957484
H       -1.03878713       1.55968004       0.73790711
H       -0.95354569      -2.24246761       0.27815742
H        0.95271654       0.69370142       1.44065458
H        2.87175595       0.27213705      -0.07440932
H        1.83022224      -0.70960058      -1.11893328
H        2.21830493      -1.21943861       0.53160887
16
Frame=6 idx=011245 GeodesicLength=0.9487539755314169 rxn_smarts="[C:1]([C@@:2]([O:3][H:12])([C@@:4]([C:5]([H:14])([H:15])[H:16])([C:6]#[N:7])[H:13])[H:11])([H:8])([H:9])[H:10]>>[C:1](/[C:2]([O:3][H:12])=[C:4](/[C:5]([H:14])([H:15])[H:16])[H:13])([H:8])([H:9])[H:10].[C:6]=[N:7][H:11]"
C       -1.74598733      -0.23880353      -0.55365725
C       -0.52733877      -0.31065841       0.32323389
O       -0.30577721      -1.62659284       0.61535486
C        0.76765272       0.39815378       0.41049487
C        1.99088438      -0.35983581      -0.09052605
C        0.59342877       2.06562995      -0.21078382
N       -0.47880498       2.48811267       0.14544866
H       -2.01838657       0.76068959      -0.87597340
H       -2.63344984      -0.66595626      -0.07961410
H       -1.56551732      -0.82036779      -1.46843967
H       -1.02006356       1.53319752       0.70060469
H       -0.94966538      -2.24721744       0.26826913
H        0.94792427       0.67977428       1.45045311
H        2.87990812       0.26887692      -0.05726986
H        1.83917644      -0.70458964      -1.11314681
H        2.22601629      -1.22041298       0.53555175
16
Frame=7 idx=011245 GeodesicLength=1.107092236334355 rxn_smarts="[C:1]([C@@:2]([O:3][H:12])([C@@:4]([C:5]([H:14])([H:15])[H:16])([C:6]#[N:7])[H:13])[H:11])([H:8])([H:9])[H:10]>>[C:1](/[C:2]([O:3][H:12])=[C:4](/[C:5]([H:14])([H:15])[H:16])[H:13])([H:8])([H:9])[H:10].[C:6]=[N:7][H:11]"
C       -1.76380630      -0.24431201      -0.54352341
C       -0.52985941      -0.30265588       0.31541996
O       -0.30483388      -1.62540429       0.59550135
C        0.76896386       0.39115127       0.41696268
C        1.99648912      -0.35839774      -0.08225508
C        0.61930133       2.10883291      -0.21174478
N       -0.46111973       2.51234862       0.12505005
H       -2.06151961       0.75146026      -0.85635307
H       -2.64155406      -0.68622788      -0.06463834
H       -1.59023784      -0.81313446      -1.46688049
H       -1.00003759       1.50794717       0.66053569
H       -0.94551050      -2.25261519       0.25645856
H        0.94169698       0.66529158       1.46047280
H        2.88824400       0.26608169      -0.03824194
H        1.84973878      -0.69886713      -1.10680297
H        2.23404484      -1.22149892       0.54003900
16
Frame=8 idx=011245 GeodesicLength=1.2654970904918257 rxn_smarts="[C:1]([C@@:2]([O:3][H:12])([C@@:4]([C:5]([H:14])([H:15])[H:16])([C:6]#[N:7])[H:13])[H:11])([H:8])([H:9])[H:10]>>[C:1](/[C:2]([O:3][H:12])=[C:4](/[C:5]([H:14])([H:15])[H:16])[H:13])([H:8])([H:9])[H:10].[C:6]=[N:7][H:11]"
C       -1.78265560      -0.25002113      -0.53217313
C       -0.53205606      -0.29535734       0.30589366
O       -0.30353365      -1.62497961       0.57314277
C        0.77010810       0.38332475       0.42359381
C        2.00271721      -0.35677338      -0.07299900
C        0.64659237       2.15310890      -0.21229512
N       -0.44239033       2.53729330       0.10147656
H       -2.10661534       0.74169266      -0.83316699
H       -2.64947396      -0.70719341      -0.04741061
H       -1.61803660      -0.80514014      -1.46474352
H       -0.97868559       1.48373392       0.61724538
H       -0.94107702      -2.25867009       0.24242622
H        0.93385953       0.65023913       1.47066670
H        2.89675494       0.26379447      -0.01707605
H        1.86209845      -0.69237623      -1.09978610
H        2.24239355      -1.22267581       0.54520541
16
Frame=9 idx=011245 GeodesicLength=1.4239857281547306 rxn_smarts="[C:1]([C@@:2]([O:3][H:12])([C@@:4]([C:5]([H:14])([H:15])[H:16])([C:6]#[N:7])[H:13])[H:11])([H:8])([H:9])[H:10]>>[C:1](/[C:2]([O:3][H:12])=[C:4](/[C:5]([H:14])([H:15])[H:16])[H:13])([H:8])([H:9])[H:10].[C:6]=[N:7][H:11]"
C       -1.80261420      -0.25591254      -0.51938449
C       -0.53388126      -0.28880659       0.29440810
O       -0.30179297      -1.62536976       0.54781550
C        0.77104190       0.37462077       0.43033860
C        2.00961703      -0.35493151      -0.06259942
C        0.67534506       2.19851534      -0.21242449
N       -0.42242796       2.56294814       0.07431352
H       -2.15364470       0.73140523      -0.80576677
H       -2.65711430      -0.72889154      -0.02761988
H       -1.64934713      -0.79624031      -1.46182156
H       -0.95595347       1.46033613       0.57014257
H       -0.93637284      -2.26539026       0.22580707
H        0.92417644       0.63459049       1.48096941
H        2.90541271       0.26207538       0.00655475
H        1.87649695      -0.68503064      -1.09194545
H        2.25105875      -1.22391833       0.55121255
16
Frame=10 idx=011245 GeodesicLength=1.5825534793597487 rxn_smarts="[C:1]([C@@:2]([O:3][H:12])([C@@:4]([C:5]([H:14])([H:15])[H:16])([C:6]#[N:7])[H:13])[H:11])([H:8])([H:9])[H:10]>>[C:1](/[C:2]([O:3][H:12])=[C:4](/[C:5]([H:14])([H:15])[H:16])[H:13])([H:8])([H:9])[H:10].[C:6]=[N:7][H:11]"
C       -1.82379056      -0.26196335      -0.50485069
C       -0.53528110      -0.28307467       0.28061191
O       -0.29950500      -1.62665217       0.51885994
C        0.77170416       0.36497292       0.43712334
C        2.01725975      -0.35282712      -0.05083331
C        0.70560862       2.24511332      -0.21216320
N       -0.40103242       2.58928083       0.04303012
H       -2.20255322       0.72064233      -0.77329205
H       -2.66434033      -0.75136133      -0.00482189
H       -1.68477188      -0.78624938      -1.45780750
H       -0.93171856       1.43749399       0.51843387
H       -0.93140288      -2.27279483       0.20607850
H        0.91232236       0.61831206       1.49129199
H        2.91419145       0.26100821       0.03312545
H        1.89328363      -0.67670544      -1.08307836
H        2.26002598      -1.22519537       0.55829190
16
Frame=11 idx=011245 GeodesicLength=1.7412129895301773 rxn_smarts="[C:1]([C@@:2]([O:3][H:12])([C@@:4]([C:5]([H:14])([H:15])[H:16])([C:6]#[N:7])[H:13])[H:11])([H:8])([H:9])[H:10]>>[C:1](/[C:2]([O:3][H:12])=[C:4](/[C:5]([H:14])([H:15])[H:16])[H:13])([H:8])([H:9])[H:10].[C:6]=[N:7][H:11]"
C       -1.84630998      -0.26814705      -0.48816186
C       -0.53616823      -0.27825879       0.26399793
O       -0.29650825      -1.62892440       0.48533974
C        0.77200719       0.35430021       0.44383893
C        2.02573160      -0.35039359      -0.03739715
C        0.73739815       2.29296822      -0.21154841
N       -0.37794088       2.61622707       0.00697782
H       -2.25320731       0.70947391      -0.73463621
H       -2.67094761      -0.77462975       0.02161558
H       -1.72513283      -0.77495928      -1.45226579
H       -0.90579066       1.41487698       0.46103126
H       -0.92620173      -2.28090486       0.18256673
H        0.89784410       0.60134620       1.50150070
H        2.92303355       0.26070658       0.06329833
H        1.91293431      -0.66721154      -1.07290340
H        2.26925857      -1.22646990       0.56674581
16
Frame=12 idx=011245 GeodesicLength=1.8999881636368519 rxn_smarts="[C:1]([C@@:2]([O:3][H:12])([C@@:4]([C:5]([H:14])([H:15])[H:16])([C:6]#[N:7])[H:13])[H:11])([H:8])([H:9])[H:10]>>[C:1](/[C:2]([O:3][H:12])=[C:4](/[C:5]([H:14])([H:15])[H:16])[H:13])([H:8])([H:9])[H:10].[C:6]=[N:7][H:11]"
C       -1.87031316      -0.27443272      -0.46875657
C       -0.53641759      -0.27449154       0.24381898
O       -0.29257422      -1.63230804       0.44589981
C        0.77182116       0.34250467       0.45031997
C        2.03513609      -0.34753598      -0.02186940
C        0.77068367       2.34215874      -0.21063312
N       -0.35281797       2.64369047      -0.03462285
H       -2.30534733       0.69801190      -0.68832942
H       -2.67660775      -0.79871479       0.05259188
H       -1.77155831      -0.76213464      -1.44454852
H       -0.87787318       1.39204793       0.39637789
H       -0.92084716      -2.28974575       0.15439177
H        0.88010074       0.58360183       1.51139128
H        2.93183641       0.26132081       0.09801107
H        1.93610210      -0.65627002      -1.06102274
H        2.27867651      -1.22770287       0.57697998
16
Frame=13 idx=011245 GeodesicLength=2.058868119515661 rxn_smarts="[C:1]([C@@:2]([O:3][H:12])([C@@:4]([C:5]([H:14])([H:15])[H:16])([C:6]#[N:7])[H:13])[H:11])([H:8])([H:9])[H:10]>>[C:1](/[C:2]([O:3][H:12])=[C:4](/[C:5]([H:14])([H:15])[H:16])[H:13])([H:8])([H:9])[H:10].[C:6]=[N:7][H:11]"
C       -1.89587926      -0.28077688      -0.44583352
C       -0.53586686      -0.27194698       0.21902533
O       -0.28740945      -1.63691371       0.39863389
C        0.77091189       0.32946702       0.45630554
C        2.04553361      -0.34413377      -0.00366956
C        0.80532312       2.39270469      -0.20964796
N       -0.32522854       2.67155640      -0.08252087
H       -2.35840034       0.68641297      -0.63238377
H       -2.68072419      -0.82366920       0.08936139
H       -1.82549123      -0.74741439      -1.43364914
H       -0.84751429       1.36836978       0.32217043
H       -0.91541304      -2.29929417       0.12034146
H        0.85812420       0.56496340       1.52061880
H        2.94034545       0.26303151       0.13853659
H        1.96364518      -0.64351759      -1.04684850
H        2.28804372      -1.22883908       0.58955989
16
Frame=14 idx=011245 GeodesicLength=2.217857817376653 rxn_smarts="[C:1]([C@@:2]([O:3][H:12])([C@@:4]([C:5]([H:14])([H:15])[H:16])([C:6]#[N:7])[H:13])[H:11])([H:8])([H:9])[H:10]>>[C:1](/[C:2]([O:3][H:12])=[C:4](/[C:5]([H:14])([H:15])[H:16])[H:13])([H:8])([H:9])[H:10].[C:6]=[N:7][H:11]"
C       -1.92300439      -0.28712311      -0.41829191
C       -0.53426557      -0.27087454       0.18799311
O       -0.28058250      -1.64286999       0.34067079
C        0.76892224       0.31505373       0.46137015
C        2.05694769      -0.34001539       0.01802289
C        0.84099342       2.44469539      -0.20887346
N       -0.29470080       2.69973396      -0.13726120
H       -2.41125183       0.67495922      -0.56416611
H       -2.68231032      -0.84941553       0.13376748
H       -1.88895791      -0.73056752      -1.41798062
H       -0.81396366       1.34290712       0.23473355
H       -0.91013417      -2.30953348       0.07894592
H        0.83053700       0.54522686       1.52862346
H        2.94811475       0.26607148       0.18671312
H        1.99670271      -0.62840988      -1.02952259
H        2.29695335      -1.22983833       0.60525543
16
Frame=15 idx=011245 GeodesicLength=2.3768538354707927 rxn_smarts="[C:1]([C@@:2]([O:3][H:12])([C@@:4]([C:5]([H:14])([H:15])[H:16])([C:6]#[N:7])[H:13])[H:11])([H:8])([H:9])[H:10]>>[C:1](/[C:2]([O:3][H:12])=[C:4](/[C:5]([H:14])([H:15])[H:16])[H:13])([H:8])([H:9])[H:10].[C:6]=[N:7][H:11]"
C       -1.95113074      -0.29336185      -0.38479035
C       -0.53140621      -0.27157565       0.14897340
O       -0.27170494      -1.65018286       0.26865649
C        0.76519228       0.29916715       0.46495024
C        2.06898899      -0.33504487       0.04410044
C        0.87684240       2.49822954      -0.20887714
N       -0.26107306       2.72834007      -0.19783072
H       -2.46139472       0.66411469      -0.48077191
H       -2.67964122      -0.87574782       0.18781495
H       -1.96371817      -0.71144201      -1.39517170
H       -0.77594224       1.31414560       0.12815555
H       -0.90528543      -2.32031763       0.02884315
H        0.79556965       0.52419850       1.53456961
H        2.95411033       0.27061097       0.24443299
H        2.03608980      -0.61043085      -1.00795716
H        2.30450329      -1.23070299       0.62490216
16
Frame=16 idx=011245 GeodesicLength=2.535560352149282 rxn_smarts="[C:1]([C@@:2]([O:3][H:12])([C@@:4]([C:5]([H:14])([H:15])[H:16])([C:6]#[N:7])[H:13])[H:11])([H:8])([H:9])[H:10]>>[C:1](/[C:2]([O:3][H:12])=[C:4](/[C:5]([H:14])([H:15])[H:16])[H:13])([H:8])([H:9])[H:10].[C:6]=[N:7][H:11]"
C       -1.97840373      -0.29908062      -0.34451850
C       -0.52736906      -0.27435782       0.10177986
O       -0.26090596      -1.65857882       0.18093388
C        0.75876734       0.28185562       0.46671000
C        2.08036906      -0.32925441       0.07479746
C        0.91064002       2.55362175      -0.20976532
N       -0.22600550       2.75744217      -0.25941247
H       -2.50367537       0.65493338      -0.38121993
H       -2.67049184      -0.90160941       0.25214411
H       -2.04908424      -0.69041231      -1.36251705
H       -0.73091849       1.27926107      -0.00630024
H       -0.90136783      -2.33123870      -0.02935297
H        0.75204548       0.50177775       1.53766362
H        2.95643666       0.27660898       0.31192085
H        2.08068962      -0.58942959      -0.98144700
H        2.30927383      -1.23153903       0.64858371
