14
Frame=0 idx=004231 GeodesicLength=0.0 rxn_smarts="[C:1]1([H:7])([H:8])[C@@:2]2([H:9])[C:3]([H:10])([H:11])[C@:4]1([H:12])[O:5][C:6]2([H:13])[H:14]>>[C:1]1([H:7])([H:8])[C:2][C:6]([H:13])([H:14])[O:5][C@:4]1([C:3]([H:9])([H:10])[H:11])[H:12]"
C       -0.61877848      -1.10021768      -0.26463437
C        0.38284979      -0.26778605      -1.10266189
C       -0.72175429       1.12595936      -0.01039260
C       -0.49483108      -0.10234588       0.87151411
O        0.88293531      -0.12995023       1.20459957
C        1.49550649      -0.11073938      -0.10613284
H       -1.60712659      -1.16437392      -0.71704268
H       -0.24287277      -2.09975665      -0.04203687
H       -0.22048717       0.89535897      -1.15443529
H       -1.75050725       1.24025600      -0.34926832
H       -0.27444207       2.06056028       0.32398670
H       -1.07460048      -0.17303230       1.79275319
H        2.16052697      -0.97380935      -0.21587107
H        2.08358163       0.79987679      -0.23037761
14
Frame=1 idx=004231 GeodesicLength=0.06259720184853337 rxn_smarts="[C:1]1([H:7])([H:8])[C@@:2]2([H:9])[C:3]([H:10])([H:11])[C@:4]1([H:12])[O:5][C:6]2([H:13])[H:14]>>[C:1]1([H:7])([H:8])[C:2][C:6]([H:13])([H:14])[O:5][C@:4]1([C:3]([H:9])([H:10])[H:11])[H:12]"
C       -0.61829689      -1.10039156      -0.26412604
C        0.38461736      -0.27194678      -1.09925692
C       -0.72281364       1.12760491      -0.01168872
C       -0.49503444      -0.09975104       0.87133937
O        0.88351386      -0.12728014       1.20395709
C        1.49813261      -0.11659638      -0.10492983
H       -1.60607315      -1.16585107      -0.71768999
H       -0.24314702      -2.10075952      -0.04225771
H       -0.21995211       0.90762988      -1.17203354
H       -1.75498459       1.24137287      -0.34104018
H       -0.28183059       2.06234367       0.33190950
H       -1.07514693      -0.17415086       1.79186845
H        2.16694341      -0.97753661      -0.20930311
H        2.08407211       0.79531265      -0.23674837
14
Frame=2 idx=004231 GeodesicLength=0.12456295068434053 rxn_smarts="[C:1]1([H:7])([H:8])[C@@:2]2([H:9])[C:3]([H:10])([H:11])[C@:4]1([H:12])[O:5][C:6]2([H:13])[H:14]>>[C:1]1([H:7])([H:8])[C:2][C:6]([H:13])([H:14])[O:5][C@:4]1([C:3]([H:9])([H:10])[H:11])[H:12]"
C       -0.61780358      -1.10055773      -0.26362306
C        0.38634139      -0.27601229      -1.09585177
C       -0.72390241       1.12925502      -0.01295922
C       -0.49522193      -0.09718961       0.87121620
O        0.88409971      -0.12454927       1.20325658
C        1.50073116      -0.12246747      -0.10370471
H       -1.60499842      -1.16727847      -0.71837077
H       -0.24340360      -2.10175278      -0.04254306
H       -0.21936700       0.91994056      -1.18957613
H       -1.75940058       1.24244702      -0.33275712
H       -0.28924364       2.06406232       0.33973675
H       -1.07568429      -0.17529766       1.79099731
H        2.17334679      -0.98117488      -0.20254690
H        2.08450639       0.79057523      -0.24327411
14
Frame=3 idx=004231 GeodesicLength=0.18570848138530754 rxn_smarts="[C:1]1([H:7])([H:8])[C@@:2]2([H:9])[C:3]([H:10])([H:11])[C@:4]1([H:12])[O:5][C:6]2([H:13])[H:14]>>[C:1]1([H:7])([H:8])[C:2][C:6]([H:13])([H:14])[O:5][C@:4]1([C:3]([H:9])([H:10])[H:11])[H:12]"
C       -0.61730207      -1.10074510      -0.26306547
C        0.38793799      -0.27986255      -1.09244225
C       -0.72496998       1.13096800      -0.01415305
C       -0.49538308      -0.09463333       0.87118389
O        0.88476852      -0.12180028       1.20252973
C        1.50330418      -0.12848300      -0.10244625
H       -1.60391188      -1.16871207      -0.71903351
H       -0.24363067      -2.10277247      -0.04284973
H       -0.21877402       0.93238154      -1.20699397
H       -1.76365873       1.24344995      -0.32476036
H       -0.29680201       2.06569090       0.34751752
H       -1.07615921      -0.17641711       1.79013629
H        2.17974314      -0.98474458      -0.19581503
H        2.08483781       0.78568009      -0.24980780
14
Frame=4 idx=004231 GeodesicLength=0.24604374565872825 rxn_smarts="[C:1]1([H:7])([H:8])[C@@:2]2([H:9])[C:3]([H:10])([H:11])[C@:4]1([H:12])[O:5][C:6]2([H:13])[H:14]>>[C:1]1([H:7])([H:8])[C:2][C:6]([H:13])([H:14])[O:5][C@:4]1([C:3]([H:9])([H:10])[H:11])[H:12]"
C       -0.61679039      -1.10095524      -0.26250278
C        0.38945690      -0.28355989      -1.08903136
C       -0.72607752       1.13268020      -0.01538279
C       -0.49554359      -0.09207449       0.87118571
O        0.88545723      -0.11903026       1.20173972
C        1.50586905      -0.13453236      -0.10114934
H       -1.60278295      -1.17016568      -0.71968651
H       -0.24382479      -2.10379177      -0.04315819
H       -0.21816850       0.94502295      -1.22425417
H       -1.76778979       1.24442388      -0.31684276
H       -0.30442459       2.06722464       0.35527447
H       -1.07664171      -0.17756090       1.78928641
H        2.18615359      -0.98828189      -0.18892191
H        2.08510705       0.78060081      -0.25655650
14
Frame=5 idx=004231 GeodesicLength=0.30530333842138363 rxn_smarts="[C:1]1([H:7])([H:8])[C@@:2]2([H:9])[C:3]([H:10])([H:11])[C@:4]1([H:12])[O:5][C:6]2([H:13])[H:14]>>[C:1]1([H:7])([H:8])[C:2][C:6]([H:13])([H:14])[O:5][C@:4]1([C:3]([H:9])([H:10])[H:11])[H:12]"
C       -0.61627238      -1.10118411      -0.26189466
C        0.39086113      -0.28700682      -1.08560602
C       -0.72719091       1.13443983      -0.01662156
C       -0.49569654      -0.08952399       0.87123828
O        0.88616566      -0.11626486       1.20099218
C        1.50840544      -0.14065182      -0.09988357
H       -1.60161630      -1.17156850      -0.72035908
H       -0.24400246      -2.10482440      -0.04346051
H       -0.21743907       0.95756376      -1.24152748
H       -1.77186485       1.24534548      -0.30896244
H       -0.31212483       2.06867891       0.36301330
H       -1.07713731      -0.17867234       1.78845839
H        2.19257261      -0.99174401      -0.18207067
H        2.08533982       0.77541287      -0.26331616
14
Frame=6 idx=004231 GeodesicLength=0.36372346718725623 rxn_smarts="[C:1]1([H:7])([H:8])[C@@:2]2([H:9])[C:3]([H:10])([H:11])[C@:4]1([H:12])[O:5][C:6]2([H:13])[H:14]>>[C:1]1([H:7])([H:8])[C:2][C:6]([H:13])([H:14])[O:5][C@:4]1([C:3]([H:9])([H:10])[H:11])[H:12]"
C       -0.61578596      -1.10145216      -0.26122374
C        0.39218740      -0.29043014      -1.08217440
C       -0.72831525       1.13619847      -0.01782299
C       -0.49583589      -0.08702453       0.87135106
O        0.88691244      -0.11355911       1.20021464
C        1.51092329      -0.14680802      -0.09854894
H       -1.60047829      -1.17294641      -0.72095091
H       -0.24418195      -2.10586708      -0.04382537
H       -0.21670351       0.97027613      -1.25854797
H       -1.77576604       1.24621306      -0.30134298
H       -0.31982056       2.07004241       0.37052784
H       -1.07758349      -0.17977220       1.78766857
H        2.19897970      -0.99507714      -0.17533662
H        2.08546811       0.77020671      -0.26998818
14
Frame=7 idx=004231 GeodesicLength=0.4213770612891472 rxn_smarts="[C:1]1([H:7])([H:8])[C@@:2]2([H:9])[C:3]([H:10])([H:11])[C@:4]1([H:12])[O:5][C:6]2([H:13])[H:14]>>[C:1]1([H:7])([H:8])[C:2][C:6]([H:13])([H:14])[O:5][C@:4]1([C:3]([H:9])([H:10])[H:11])[H:12]"
C       -0.61525446      -1.10170080      -0.26057653
C        0.39347629      -0.29366681      -1.07879031
C       -0.72945524       1.13799719      -0.01907148
C       -0.49597900      -0.08452710       0.87149546
O        0.88768587      -0.11077520       1.19938968
C        1.51344956      -0.15303158      -0.09722420
H       -1.59927961      -1.17432573      -0.72161047
H       -0.24428432      -2.10690596      -0.04414343
H       -0.21601140       0.98318764      -1.27547551
H       -1.77963040       1.24703937      -0.29367798
H       -0.32762449       2.07129658       0.37803600
H       -1.07804365      -0.18089416       1.78689731
H        2.20536534      -0.99839216      -0.16834148
H        2.08558551       0.76469871      -0.27690703
14
Frame=8 idx=004231 GeodesicLength=0.4783644677320038 rxn_smarts="[C:1]1([H:7])([H:8])[C@@:2]2([H:9])[C:3]([H:10])([H:11])[C@:4]1([H:12])[O:5][C:6]2([H:13])[H:14]>>[C:1]1([H:7])([H:8])[C:2][C:6]([H:13])([H:14])[O:5][C@:4]1([C:3]([H:9])([H:10])[H:11])[H:12]"
C       -0.61471430      -1.10198452      -0.25986857
C        0.39468608      -0.29680726      -1.07537243
C       -0.73061738       1.13980685      -0.02029232
C       -0.49611212      -0.08204106       0.87166530
O        0.88848767      -0.10797919       1.19855620
C        1.51593454      -0.15936888      -0.09585717
H       -1.59806373      -1.17567902      -0.72225015
H       -0.24442133      -2.10798219      -0.04452402
H       -0.21524236       0.99624173      -1.29230746
H       -1.78336566       1.24780051      -0.28610142
H       -0.33547467       2.07250119       0.38547267
H       -1.07849201      -0.18203465       1.78612341
H        2.21177559      -1.00154158      -0.16126615
H        2.08561964       0.75906806      -0.28397790
14
Frame=9 idx=004231 GeodesicLength=0.5343519219380318 rxn_smarts="[C:1]1([H:7])([H:8])[C@@:2]2([H:9])[C:3]([H:10])([H:11])[C@:4]1([H:12])[O:5][C:6]2([H:13])[H:14]>>[C:1]1([H:7])([H:8])[C:2][C:6]([H:13])([H:14])[O:5][C@:4]1([C:3]([H:9])([H:10])[H:11])[H:12]"
C       -0.61415804      -1.10223906      -0.25915885
C        0.39572863      -0.29963395      -1.07194683
C       -0.73179787       1.14163799      -0.02148961
C       -0.49623335      -0.07957992       0.87195309
O        0.88934415      -0.10508125       1.19773043
C        1.51841820      -0.16577692      -0.09452486
H       -1.59681497      -1.17701902      -0.72290408
H       -0.24450418      -2.10903815      -0.04493789
H       -0.21441868       1.00937917      -1.30909666
H       -1.78698107       1.24846723      -0.27871293
H       -0.34345311       2.07359934       0.39286166
H       -1.07890177      -0.18321892       1.78546124
H        2.21816094      -1.00477986      -0.15408432
H        2.08561113       0.75328333      -0.29115041
14
Frame=10 idx=004231 GeodesicLength=0.5897106905333871 rxn_smarts="[C:1]1([H:7])([H:8])[C@@:2]2([H:9])[C:3]([H:10])([H:11])[C@:4]1([H:12])[O:5][C:6]2([H:13])[H:14]>>[C:1]1([H:7])([H:8])[C:2][C:6]([H:13])([H:14])[O:5][C@:4]1([C:3]([H:9])([H:10])[H:11])[H:12]"
C       -0.61358594      -1.10250843      -0.25842212
C        0.39671336      -0.30240733      -1.06851633
C       -0.73300774       1.14349829      -0.02262084
C       -0.49634104      -0.07711714       0.87229436
O        0.89023622      -0.10222685       1.19684218
C        1.52088698      -0.17216000      -0.09313294
H       -1.59554981      -1.17836013      -0.72351662
H       -0.24456247      -2.11009842      -0.04535320
H       -0.21357294       1.02263142      -1.32579381
H       -1.79049218       1.24910221      -0.27146121
H       -0.35147153       2.07461445       0.40017896
H       -1.07932637      -0.18438625       1.78478429
H        2.22453293      -1.00794750      -0.14693321
H        2.08554053       0.74736568      -0.29834950
14
Frame=11 idx=004231 GeodesicLength=0.6442237282882554 rxn_smarts="[C:1]1([H:7])([H:8])[C@@:2]2([H:9])[C:3]([H:10])([H:11])[C@:4]1([H:12])[O:5][C:6]2([H:13])[H:14]>>[C:1]1([H:7])([H:8])[C:2][C:6]([H:13])([H:14])[O:5][C@:4]1([C:3]([H:9])([H:10])[H:11])[H:12]"
C       -0.61302830      -1.10281539      -0.25765059
C        0.39763494      -0.30509875      -1.06512185
C       -0.73426979       1.14533947      -0.02373769
C       -0.49644801      -0.07468318       0.87265313
O        0.89116863      -0.09936540       1.19591684
C        1.52331135      -0.17862439      -0.09172865
H       -1.59430191      -1.17966962      -0.72411810
H       -0.24460118      -2.11116468      -0.04577344
H       -0.21266160       1.03609954      -1.34226690
H       -1.79390879       1.24965744      -0.26433042
H       -0.35948394       2.07556408       0.40733543
H       -1.07971254      -0.18557936       1.78414844
H        2.23090143      -1.01097848      -0.13969420
H        2.08539970       0.74131872      -0.30563200
14
Frame=12 idx=004231 GeodesicLength=0.6980314945881294 rxn_smarts="[C:1]1([H:7])([H:8])[C@@:2]2([H:9])[C:3]([H:10])([H:11])[C@:4]1([H:12])[O:5][C:6]2([H:13])[H:14]>>[C:1]1([H:7])([H:8])[C:2][C:6]([H:13])([H:14])[O:5][C@:4]1([C:3]([H:9])([H:10])[H:11])[H:12]"
C       -0.61247589      -1.10314677      -0.25683748
C        0.39849503      -0.30771910      -1.06174331
C       -0.73555155       1.14720007      -0.02478428
C       -0.49654825      -0.07228750       0.87306690
O        0.89211109      -0.09653734       1.19496910
C        1.52572232      -0.18508741      -0.09030961
H       -1.59303193      -1.18097405      -0.72471761
H       -0.24459888      -2.11223633      -0.04620275
H       -0.21173782       1.04970125      -1.35863683
H       -1.79723392       1.25018255      -0.25732286
H       -0.36752044       2.07641069       0.41434788
H       -1.08008001      -0.18672046       1.78355097
H        2.23725364      -1.01391239      -0.13249665
H        2.08519660       0.73512678      -0.31288348
14
Frame=13 idx=004231 GeodesicLength=0.7511613526378929 rxn_smarts="[C:1]1([H:7])([H:8])[C@@:2]2([H:9])[C:3]([H:10])([H:11])[C@:4]1([H:12])[O:5][C:6]2([H:13])[H:14]>>[C:1]1([H:7])([H:8])[C:2][C:6]([H:13])([H:14])[O:5][C@:4]1([C:3]([H:9])([H:10])[H:11])[H:12]"
C       -0.61191821      -1.10349109      -0.25601316
C        0.39930725      -0.31024608      -1.05839190
C       -0.73687431       1.14909349      -0.02581289
C       -0.49665338      -0.06990041       0.87352486
O        0.89308041      -0.09374226       1.19395316
C        1.52811228      -0.19157105      -0.08886818
H       -1.59175817      -1.18229497      -0.72528008
H       -0.24459460      -2.11334333      -0.04656278
H       -0.21070217       1.06354322      -1.37486783
H       -1.80046476       1.25063928      -0.25045195
H       -0.37561823       2.07714604       0.42127672
H       -1.08042626      -0.18784771       1.78298296
H        2.24362356      -1.01672325      -0.12530225
H        2.08488659       0.72873812      -0.32018668
14
Frame=14 idx=004231 GeodesicLength=0.8038246089229406 rxn_smarts="[C:1]1([H:7])([H:8])[C@@:2]2([H:9])[C:3]([H:10])([H:11])[C@:4]1([H:12])[O:5][C:6]2([H:13])[H:14]>>[C:1]1([H:7])([H:8])[C:2][C:6]([H:13])([H:14])[O:5][C@:4]1([C:3]([H:9])([H:10])[H:11])[H:12]"
C       -0.61134179      -1.10385821      -0.25513389
C        0.40007875      -0.31271928      -1.05503815
C       -0.73820929       1.15102831      -0.02679412
C       -0.49672238      -0.06748255       0.87402649
O        0.89411161      -0.09084341       1.19286787
C        1.53047971      -0.19813387      -0.08738831
H       -1.59045194      -1.18359637      -0.72581035
H       -0.24456458      -2.11445389      -0.04703008
H       -0.20967624       1.07755268      -1.39107238
H       -1.80360998       1.25105914      -0.24369464
H       -0.38386099       2.07781683       0.42822457
H       -1.08073109      -0.18900323       1.78241683
H        2.24997783      -1.01950008      -0.11795743
H        2.08452037       0.72213394      -0.32761642
14
Frame=15 idx=004231 GeodesicLength=0.8557747601781921 rxn_smarts="[C:1]1([H:7])([H:8])[C@@:2]2([H:9])[C:3]([H:10])([H:11])[C@:4]1([H:12])[O:5][C:6]2([H:13])[H:14]>>[C:1]1([H:7])([H:8])[C:2][C:6]([H:13])([H:14])[O:5][C@:4]1([C:3]([H:9])([H:10])[H:11])[H:12]"
C       -0.61078879      -1.10425713      -0.25422359
C        0.40080498      -0.31519054      -1.05169536
C       -0.73954246       1.15295786      -0.02772256
C       -0.49679058      -0.06511579       0.87455590
O        0.89516937      -0.08800040       1.19174552
C        1.53282377      -0.20471804      -0.08588327
H       -1.58914788      -1.18489841      -0.72634968
H       -0.24451046      -2.11559155      -0.04742801
H       -0.20863007       1.09173950      -1.40711147
H       -1.80666862       1.25147053      -0.23713097
H       -0.39209690       2.07840142       0.43508308
H       -1.08102195      -0.19011518       1.78188418
H        2.25631654      -1.02210649      -0.11068235
H        2.08408305       0.71542422      -0.33504144
14
Frame=16 idx=004231 GeodesicLength=0.9070088359797287 rxn_smarts="[C:1]1([H:7])([H:8])[C@@:2]2([H:9])[C:3]([H:10])([H:11])[C@:4]1([H:12])[O:5][C:6]2([H:13])[H:14]>>[C:1]1([H:7])([H:8])[C:2][C:6]([H:13])([H:14])[O:5][C@:4]1([C:3]([H:9])([H:10])[H:11])[H:12]"
C       -0.61020925      -1.10466289      -0.25326957
C        0.40149926      -0.31760108      -1.04835523
C       -0.74089743       1.15489811      -0.02863184
C       -0.49683311      -0.06275685       0.87513832
O        0.89625129      -0.08521594       1.19059292
C        1.53514561      -0.21130608      -0.08434006
H       -1.58782044      -1.18619637      -0.72687828
H       -0.24445354      -2.11673318      -0.04778965
H       -0.20759734       1.10604263      -1.42307384
H       -1.80963075       1.25182814      -0.23070974
H       -0.40036111       2.07893706       0.44187913
H       -1.08130014      -0.19118433       1.78135248
H        2.26264188      -1.02457925      -0.10351476
H        2.08356506       0.70853004      -0.34239987
