11
Frame=0 idx=002706 GeodesicLength=0.0 rxn_smarts="[C@:1]12([H:7])[C@:2]3([H:8])[C@@:3]1([H:9])[N:4]1[C@@:5]2([H:10])[C@:6]31[H:11]>>[C@:1]12([H:7])[C@@:2]([C:3][H:9])([H:8])[C@:6]3([H:11])[N:4]1[C@:5]23[H:10]"
C       -0.22676598       0.90699888       0.52132593
C        1.01139027       0.11743827       0.19528454
C        0.76224010       0.73947676      -1.15159045
N       -0.82504076      -0.25103971      -0.80569711
C       -1.11093535      -0.21793796       0.65921545
C       -0.00619677      -1.05522923       0.15184596
H       -0.38801909       1.97250923       0.58025412
H        1.92766354       0.20734301       0.77411136
H        0.92102995       0.07756595      -2.00311286
H       -2.11407600      -0.36571087       1.02372767
H        0.04871013      -2.13141436       0.05463538
11
Frame=1 idx=002706 GeodesicLength=0.03352584658501514 rxn_smarts="[C@:1]12([H:7])[C@:2]3([H:8])[C@@:3]1([H:9])[N:4]1[C@@:5]2([H:10])[C@:6]31[H:11]>>[C@:1]12([H:7])[C@@:2]([C:3][H:9])([H:8])[C@:6]3([H:11])[N:4]1[C@:5]23[H:10]"
C       -0.22730988       0.91033399       0.50800072
C        1.01280391       0.11269049       0.19658189
C        0.76662638       0.73522587      -1.14703399
N       -0.82842739      -0.25427200      -0.80506164
C       -1.11068619      -0.21819323       0.65815829
C       -0.00682582      -1.05663957       0.15225282
H       -0.38813308       1.97515534       0.57824066
H        1.92392504       0.20332709       0.78254199
H        0.91954087       0.09214234      -2.01353284
H       -2.11081289      -0.36669233       1.03080917
H        0.04929905      -2.13307797       0.05904294
11
Frame=2 idx=002706 GeodesicLength=0.06699131402264136 rxn_smarts="[C@:1]12([H:7])[C@:2]3([H:8])[C@@:3]1([H:9])[N:4]1[C@@:5]2([H:10])[C@:6]31[H:11]>>[C@:1]12([H:7])[C@@:2]([C:3][H:9])([H:8])[C@:6]3([H:11])[N:4]1[C@:5]23[H:10]"
C       -0.22782379       0.91360149       0.49458777
C        1.01418539       0.10791660       0.19793060
C        0.77107687       0.73076669      -1.14262943
N       -0.83180478      -0.25761238      -0.80449401
C       -1.11043428      -0.21842674       0.65709213
C       -0.00744807      -1.05814738       0.15271124
H       -0.38816363       1.97768302       0.57620688
H        1.92005728       0.19936328       0.79108205
H        0.91795154       0.10724802      -2.02402753
H       -2.10748530      -0.36750499       1.03790678
H        0.04988877      -2.13488761       0.06363353
11
Frame=3 idx=002706 GeodesicLength=0.10061532581091316 rxn_smarts="[C@:1]12([H:7])[C@:2]3([H:8])[C@@:3]1([H:9])[N:4]1[C@@:5]2([H:10])[C@:6]31[H:11]>>[C@:1]12([H:7])[C@@:2]([C:3][H:9])([H:8])[C@:6]3([H:11])[N:4]1[C@:5]23[H:10]"
C       -0.22827870       0.91664708       0.48099591
C        1.01551872       0.10314368       0.19924364
C        0.77560059       0.72603363      -1.13824247
N       -0.83517607      -0.26104587      -0.80382145
C       -1.11017389      -0.21866095       0.65597228
C       -0.00810717      -1.05959137       0.15320005
H       -0.38805153       1.97979769       0.57404280
H        1.91602698       0.19551539       0.79951398
H        0.91631480       0.12287398      -2.03426383
H       -2.10406962      -0.36819379       1.04499651
H        0.05039589      -2.13651949       0.06836259
11
Frame=4 idx=002706 GeodesicLength=0.13415117229343154 rxn_smarts="[C@:1]12([H:7])[C@:2]3([H:8])[C@@:3]1([H:9])[N:4]1[C@@:5]2([H:10])[C@:6]31[H:11]>>[C@:1]12([H:7])[C@@:2]([C:3][H:9])([H:8])[C@:6]3([H:11])[N:4]1[C@:5]23[H:10]"
C       -0.22869605       0.91961726       0.46731652
C        1.01682305       0.09833660       0.20061033
C        0.78018368       0.72106989      -1.13401185
N       -0.83853969      -0.26459852      -0.80320785
C       -1.10991037      -0.21887422       0.65485119
C       -0.00876041      -1.06113944       0.15375452
H       -0.38785852       1.98177999       0.57181905
H        1.91188422       0.19172013       0.80803017
H        0.91457452       0.13908957      -2.04452639
H       -2.10059816      -0.36870015       1.05208932
H        0.05089775      -2.13830112       0.07327500
11
Frame=5 idx=002706 GeodesicLength=0.16767662995824956 rxn_smarts="[C@:1]12([H:7])[C@:2]3([H:8])[C@@:3]1([H:9])[N:4]1[C@@:5]2([H:10])[C@:6]31[H:11]>>[C@:1]12([H:7])[C@@:2]([C:3][H:9])([H:8])[C@:6]3([H:11])[N:4]1[C@:5]23[H:10]"
C       -0.22906536       0.92245636       0.45351490
C        1.01809223       0.09350316       0.20199980
C        0.78482248       0.71584861      -1.12989690
N       -0.84189977      -0.26826915      -0.80259233
C       -1.10964191      -0.21907466       0.65371681
C       -0.00942398      -1.06273963       0.15437142
H       -0.38756336       1.98353367       0.56950265
H        1.90762386       0.18800515       0.81654285
H        0.91275863       0.15589845      -2.05468561
H       -2.09706693      -0.36903658       1.05917094
H        0.05136412      -2.14012538       0.07835548
11
Frame=6 idx=002706 GeodesicLength=0.20118484710946588 rxn_smarts="[C@:1]12([H:7])[C@:2]3([H:8])[C@@:3]1([H:9])[N:4]1[C@@:5]2([H:10])[C@:6]31[H:11]>>[C@:1]12([H:7])[C@@:2]([C:3][H:9])([H:8])[C@:6]3([H:11])[N:4]1[C@:5]23[H:10]"
C       -0.22938297       0.92516061       0.43958568
C        1.01932665       0.08863866       0.20341055
C        0.78951409       0.71035573      -1.12590493
N       -0.84525821      -0.27206614      -0.80197135
C       -1.10936886      -0.21926281       0.65257274
C       -0.01009898      -1.06439606       0.15505767
H       -0.38716117       1.98505254       0.56707638
H        1.90325293       0.18437262       0.82503833
H        0.91086599       0.17333809      -2.06470904
H       -2.09348279      -0.36919727       1.06623551
H        0.05179333      -2.14199597       0.08360845
11
Frame=7 idx=002706 GeodesicLength=0.2346514125125645 rxn_smarts="[C@:1]12([H:7])[C@:2]3([H:8])[C@@:3]1([H:9])[N:4]1[C@@:5]2([H:10])[C@:6]31[H:11]>>[C@:1]12([H:7])[C@@:2]([C:3][H:9])([H:8])[C@:6]3([H:11])[N:4]1[C@:5]23[H:10]"
C       -0.22965286       0.92773415       0.42551957
C        1.02052844       0.08373263       0.20484182
C        0.79423525       0.70458666      -1.12206112
N       -0.84862936      -0.27599318      -0.80135462
C       -1.10908897      -0.21943684       0.65142744
C       -0.01078723      -1.06612562       0.15581309
H       -0.38666516       1.98636969       0.56453101
H        1.89878929       0.18081841       0.83351535
H        0.90892513       0.19143107      -2.07455433
H       -2.08983948      -0.36917400       1.07329601
H        0.05218496      -2.14394298       0.08902577
11
Frame=8 idx=002706 GeodesicLength=0.2681130338419814 rxn_smarts="[C@:1]12([H:7])[C@:2]3([H:8])[C@@:3]1([H:9])[N:4]1[C@@:5]2([H:10])[C@:6]31[H:11]>>[C@:1]12([H:7])[C@@:2]([C:3][H:9])([H:8])[C@:6]3([H:11])[N:4]1[C@:5]23[H:10]"
C       -0.22986318       0.93015149       0.41134382
C        1.02169225       0.07882034       0.20628531
C        0.79902355       0.69854453      -1.11829134
N       -0.85197938      -0.28003932      -0.80069825
C       -1.10880767      -0.21959521       0.65026281
C       -0.01148729      -1.06787033       0.15665537
H       -0.38603553       1.98735528       0.56189374
H        1.89421373       0.17737419       0.84191305
H        0.90687099       0.21009619      -2.08425059
H       -2.08616592      -0.36898068       1.08027249
H        0.05253845      -2.14585649       0.09461359
11
Frame=9 idx=002706 GeodesicLength=0.30151870948911835 rxn_smarts="[C@:1]12([H:7])[C@:2]3([H:8])[C@@:3]1([H:9])[N:4]1[C@@:5]2([H:10])[C@:6]31[H:11]>>[C@:1]12([H:7])[C@@:2]([C:3][H:9])([H:8])[C@:6]3([H:11])[N:4]1[C@:5]23[H:10]"
C       -0.23001940       0.93242781       0.39702104
C        1.02282503       0.07385805       0.20774137
C        0.80383162       0.69221351      -1.11468181
N       -0.85534621      -0.28422405      -0.80004253
C       -1.10851886      -0.21974205       0.64909985
C       -0.01220373      -1.06969535       0.15757067
H       -0.38531510       1.98813887       0.55909732
H        1.88955654       0.17400402       0.85026972
H        0.90477700       0.22946815      -2.09369819
H       -2.08243557      -0.36859567       1.08725018
H        0.05284868      -2.14785327       0.10037240
11
Frame=10 idx=002706 GeodesicLength=0.3349136993739238 rxn_smarts="[C@:1]12([H:7])[C@:2]3([H:8])[C@@:3]1([H:9])[N:4]1[C@@:5]2([H:10])[C@:6]31[H:11]>>[C@:1]12([H:7])[C@@:2]([C:3][H:9])([H:8])[C@:6]3([H:11])[N:4]1[C@:5]23[H:10]"
C       -0.23011036       0.93454397       0.38254362
C        1.02392482       0.06884106       0.20920651
C        0.80867729       0.68555869      -1.11121425
N       -0.85871802      -0.28856288      -0.79937156
C       -1.10822304      -0.21987662       0.64792897
C       -0.01293910      -1.07159193       0.15857409
H       -0.38448661       1.98866476       0.55610827
H        1.88480314       0.17070253       0.85857060
H        0.90261417       0.24964006      -2.10290768
H       -2.07864987      -0.36801242       1.09420906
H        0.05310758      -2.14990722       0.10635238
11
Frame=11 idx=002706 GeodesicLength=0.3682430467702137 rxn_smarts="[C@:1]12([H:7])[C@:2]3([H:8])[C@@:3]1([H:9])[N:4]1[C@@:5]2([H:10])[C@:6]31[H:11]>>[C@:1]12([H:7])[C@@:2]([C:3][H:9])([H:8])[C@:6]3([H:11])[N:4]1[C@:5]23[H:10]"
C       -0.23013547       0.93653025       0.36790687
C        1.02499776       0.06375169       0.21069097
C        0.81357436       0.67857250      -1.10793795
N       -0.86208488      -0.29307965      -0.79872632
C       -1.10792429      -0.21999935       0.64675928
C       -0.01369100      -1.07360658       0.15967703
H       -0.38354215       1.98897999       0.55291054
H        1.87995284       0.16745759       0.86686746
H        0.90035416       0.27071529      -2.11191649
H       -2.07481944      -0.36721919       1.10116893
H        0.05331811      -2.15210254       0.11259968
11
Frame=12 idx=002706 GeodesicLength=0.4016256889085081 rxn_smarts="[C@:1]12([H:7])[C@:2]3([H:8])[C@@:3]1([H:9])[N:4]1[C@@:5]2([H:10])[C@:6]31[H:11]>>[C@:1]12([H:7])[C@@:2]([C:3][H:9])([H:8])[C@:6]3([H:11])[N:4]1[C@:5]23[H:10]"
C       -0.23008548       0.93827637       0.35307820
C        1.02603299       0.05861487       0.21213312
C        0.81847218       0.67123772      -1.10477244
N       -0.86548757      -0.29774124      -0.79800799
C       -1.10761301      -0.22011777       0.64556061
C       -0.01447744      -1.07563963       0.16084379
H       -0.38248257       1.98897531       0.54945831
H        1.87500848       0.16431159       0.87500130
H        0.89808265       0.29255554      -2.12042712
H       -2.07090825      -0.36623398       1.10812386
H        0.05345801      -2.15423880       0.11900838
11
Frame=13 idx=002706 GeodesicLength=0.43498941332425506 rxn_smarts="[C@:1]12([H:7])[C@:2]3([H:8])[C@@:3]1([H:9])[N:4]1[C@@:5]2([H:10])[C@:6]31[H:11]>>[C@:1]12([H:7])[C@@:2]([C:3][H:9])([H:8])[C@:6]3([H:11])[N:4]1[C@:5]23[H:10]"
C       -0.22995648       0.93985417       0.33808750
C        1.02704799       0.05339649       0.21358718
C        0.82341213       0.66350623      -1.10176664
N       -0.86888763      -0.30259170      -0.79727526
C       -1.10729102      -0.22021304       0.64436130
C       -0.01528025      -1.07776297       0.16213498
H       -0.38131927       1.98866841       0.54570970
H        1.86999512       0.16120230       0.88307063
H        0.89568957       0.31541330      -2.12864982
H       -2.06694936      -0.36501735       1.11502689
H        0.05353920      -2.15645583       0.12571354
11
Frame=14 idx=002706 GeodesicLength=0.46830021611939654 rxn_smarts="[C@:1]12([H:7])[C@:2]3([H:8])[C@@:3]1([H:9])[N:4]1[C@@:5]2([H:10])[C@:6]31[H:11]>>[C@:1]12([H:7])[C@@:2]([C:3][H:9])([H:8])[C@:6]3([H:11])[N:4]1[C@:5]23[H:10]"
C       -0.22974866       0.94124957       0.32291407
C        1.02803101       0.04810146       0.21501675
C        0.82835264       0.65541706      -1.09896488
N       -0.87231622      -0.30761942      -0.79652257
C       -1.10695764      -0.22030331       0.64317212
C       -0.01611494      -1.07998860       0.16352094
H       -0.38006491       1.98814190       0.54165137
H        1.86490820       0.15816142       0.89103017
H        0.89329424       0.33919942      -2.13640786
H       -2.06292522      -0.36359322       1.12196023
H        0.05354150      -2.15876629       0.13262968
11
Frame=15 idx=002706 GeodesicLength=0.5015913016752008 rxn_smarts="[C@:1]12([H:7])[C@:2]3([H:8])[C@@:3]1([H:9])[N:4]1[C@@:5]2([H:10])[C@:6]31[H:11]>>[C@:1]12([H:7])[C@@:2]([C:3][H:9])([H:8])[C@:6]3([H:11])[N:4]1[C@:5]23[H:10]"
C       -0.22945902       0.94244262       0.30754123
C        1.02898411       0.04271722       0.21640992
C        0.83328833       0.64692002      -1.09636891
N       -0.87577767      -0.31284356      -0.79574135
C       -1.10661260      -0.22038188       0.64198599
C       -0.01698416      -1.08231161       0.16501374
H       -0.37871102       1.98734852       0.53723582
H        1.85974991       0.15517940       0.89885953
H        0.89088959       0.36402880      -2.14365187
H       -2.05882806      -0.36194510       1.12891272
H        0.05346058      -2.16115442       0.13980319
11
Frame=16 idx=002706 GeodesicLength=0.5348746772854349 rxn_smarts="[C@:1]12([H:7])[C@:2]3([H:8])[C@@:3]1([H:9])[N:4]1[C@@:5]2([H:10])[C@:6]31[H:11]>>[C@:1]12([H:7])[C@@:2]([C:3][H:9])([H:8])[C@:6]3([H:11])[N:4]1[C@:5]23[H:10]"
C       -0.22908508       0.94341642       0.29195473
C        1.02990704       0.03723390       0.21774816
C        0.83820409       0.63799413      -1.09399592
N       -0.87928005      -0.31827641      -0.79492689
C       -1.10625509      -0.22045160       0.64080156
C       -0.01789219      -1.08473718       0.16661457
H       -0.37725485       1.98628128       0.53242874
H        1.85452279       0.15225762       0.90653284
H        0.88849803       0.38996697      -2.15030763
H       -2.05465172      -0.36006435       1.13589150
H        0.05328703      -2.16362079       0.14725833
