11
Frame=0 idx=006982 GeodesicLength=0.0 rxn_smarts="[N:1]([c:2]1[c:3]([H:10])[n:4][c:5]([H:11])[n:6][n:7]1)([H:8])[H:9]>>[N:1]([C:2]1=[N:7][N:6]2[C@@:3]1([H:10])[N:4]=[C:5]2[H:11])([H:8])[H:9]"
N        2.02107146      -0.43221962      -0.19331852
C        0.69746715      -0.17524983      -0.34607769
C       -0.17161034       0.84112545       0.24518889
N       -0.81063059       0.51321475       1.37350490
C       -1.77717262      -0.05565744       0.65849466
N       -1.52741552      -0.39285976      -0.63098805
N       -0.18547284      -0.88169979      -0.94331050
H        2.35533896      -1.24890866      -0.67880078
H        2.65275409       0.34843087      -0.17725776
H       -0.47392553       1.70294920      -0.35588805
H       -2.78040422      -0.21912519       1.04845289
11
Frame=1 idx=006982 GeodesicLength=0.04149222527005565 rxn_smarts="[N:1]([c:2]1[c:3]([H:10])[n:4][c:5]([H:11])[n:6][n:7]1)([H:8])[H:9]>>[N:1]([C:2]1=[N:7][N:6]2[C@@:3]1([H:10])[N:4]=[C:5]2[H:11])([H:8])[H:9]"
N        2.01683939      -0.43485066      -0.20686213
C        0.69163948      -0.18297386      -0.34527142
C       -0.17221326       0.84204440       0.23588249
N       -0.82012124       0.52970916       1.36687608
C       -1.78023883      -0.06149141       0.66394390
N       -1.52480016      -0.39745095      -0.62534040
N       -0.19154624      -0.90552900      -0.92629054
H        2.36842096      -1.22880035      -0.71678169
H        2.64778990       0.34331770      -0.13723768
H       -0.45053726       1.71480650      -0.35987592
H       -2.78523275      -0.21878154       1.05095731
11
Frame=2 idx=006982 GeodesicLength=0.08299260936282798 rxn_smarts="[N:1]([c:2]1[c:3]([H:10])[n:4][c:5]([H:11])[n:6][n:7]1)([H:8])[H:9]>>[N:1]([C:2]1=[N:7][N:6]2[C@@:3]1([H:10])[N:4]=[C:5]2[H:11])([H:8])[H:9]"
N        2.01258487      -0.43733526      -0.22085106
C        0.68575065      -0.19103092      -0.34391911
C       -0.17307486       0.84315096       0.22556922
N       -0.83006461       0.54772633       1.35922519
C       -1.78332041      -0.06691739       0.66968615
N       -1.52206278      -0.40334540      -0.61894272
N       -0.19744305      -0.93014274      -0.90763468
H        2.38141034      -1.20424606      -0.75921308
H        2.64228810       0.33440353      -0.09270347
H       -0.42618084       1.72618608      -0.36520111
H       -2.78988740      -0.21844913       1.05398468
11
Frame=3 idx=006982 GeodesicLength=0.12449146571311555 rxn_smarts="[N:1]([c:2]1[c:3]([H:10])[n:4][c:5]([H:11])[n:6][n:7]1)([H:8])[H:9]>>[N:1]([C:2]1=[N:7][N:6]2[C@@:3]1([H:10])[N:4]=[C:5]2[H:11])([H:8])[H:9]"
N        2.00843367      -0.43955141      -0.23538993
C        0.67983801      -0.19971199      -0.34149610
C       -0.17415997       0.84434071       0.21428543
N       -0.84072041       0.56744685       1.35042468
C       -1.78659801      -0.07165675       0.67560245
N       -1.51910496      -0.41063681      -0.61175337
N       -0.20304182      -0.95585086      -0.88676682
H        2.39420089      -1.17351894      -0.80641813
H        2.63615406       0.32038039      -0.04392581
H       -0.40048397       1.73690407      -0.37196128
H       -2.79451748      -0.21814527       1.05739888
11
Frame=4 idx=006982 GeodesicLength=0.16609866106971716 rxn_smarts="[N:1]([c:2]1[c:3]([H:10])[n:4][c:5]([H:11])[n:6][n:7]1)([H:8])[H:9]>>[N:1]([C:2]1=[N:7][N:6]2[C@@:3]1([H:10])[N:4]=[C:5]2[H:11])([H:8])[H:9]"
N        2.00446120      -0.44159782      -0.25064367
C        0.67393674      -0.20947036      -0.33745051
C       -0.17546697       0.84550193       0.20165943
N       -0.85225045       0.58951984       1.34008946
C       -1.79018349      -0.07533814       0.68173497
N       -1.51584680      -0.41989929      -0.60341290
N       -0.20823412      -0.98339478      -0.86266041
H        2.40675929      -1.13377566      -0.86093164
H        2.62928021       0.29937533       0.01132421
H       -0.37322065       1.74648033      -0.38100897
H       -2.79923496      -0.21740137       1.06130003
11
Frame=5 idx=006982 GeodesicLength=0.20785762413180942 rxn_smarts="[N:1]([c:2]1[c:3]([H:10])[n:4][c:5]([H:11])[n:6][n:7]1)([H:8])[H:9]>>[N:1]([C:2]1=[N:7][N:6]2[C@@:3]1([H:10])[N:4]=[C:5]2[H:11])([H:8])[H:9]"
N        2.00082762      -0.44281369      -0.26682476
C        0.66818462      -0.22028877      -0.33121610
C       -0.17696472       0.84650434       0.18805338
N       -0.86498485       0.61363271       1.32818958
C       -1.79424725      -0.07798079       0.68783194
N       -1.51203732      -0.43103642      -0.59406188
N       -0.21270973      -1.01259570      -0.83500115
H        2.41829621      -1.08414673      -0.92055466
H        2.62201233       0.27019350       0.07013205
H       -0.34407114       1.75488999      -0.39170262
H       -2.80430578      -0.21635845       1.06515421
11
Frame=6 idx=006982 GeodesicLength=0.2500414954951895 rxn_smarts="[N:1]([c:2]1[c:3]([H:10])[n:4][c:5]([H:11])[n:6][n:7]1)([H:8])[H:9]>>[N:1]([C:2]1=[N:7][N:6]2[C@@:3]1([H:10])[N:4]=[C:5]2[H:11])([H:8])[H:9]"
N        1.99755248      -0.44295197      -0.28414617
C        0.66270428      -0.23232115      -0.32230666
C       -0.17867758       0.84730349       0.17306119
N       -0.87905945       0.64033581       1.31421290
C       -1.79879985      -0.07938939       0.69389133
N       -1.50747864      -0.44466467      -0.58334331
N       -0.21618397      -1.04389157      -0.80286450
H        2.42813756      -1.02116765      -0.98608893
H        2.61454887       0.22973746       0.13337072
H       -0.31299807       1.76172432      -0.40478100
H       -2.80974563      -0.21471468       1.06899443
11
Frame=7 idx=006982 GeodesicLength=0.29303542637869145 rxn_smarts="[N:1]([c:2]1[c:3]([H:10])[n:4][c:5]([H:11])[n:6][n:7]1)([H:8])[H:9]>>[N:1]([C:2]1=[N:7][N:6]2[C@@:3]1([H:10])[N:4]=[C:5]2[H:11])([H:8])[H:9]"
N        1.99457856      -0.44152298      -0.30241715
C        0.65769136      -0.24522427      -0.31046077
C       -0.18062832       0.84789114       0.15666022
N       -0.89461221       0.66949397       1.29780804
C       -1.80377563      -0.07974279       0.69974610
N       -1.50189982      -0.46092709      -0.57120288
N       -0.21824796      -1.07688055      -0.76604117
H        2.43511933      -0.94314138      -1.05476806
H        2.60741148       0.17571096       0.19816590
H       -0.28009895       1.76690081      -0.42006275
H       -2.81553783      -0.21255782       1.07257252
11
Frame=8 idx=006982 GeodesicLength=0.33737340313945036 rxn_smarts="[N:1]([c:2]1[c:3]([H:10])[n:4][c:5]([H:11])[n:6][n:7]1)([H:8])[H:9]>>[N:1]([C:2]1=[N:7][N:6]2[C@@:3]1([H:10])[N:4]=[C:5]2[H:11])([H:8])[H:9]"
N        1.99171373      -0.43830027      -0.32080447
C        0.65331451      -0.25823825      -0.29583506
C       -0.18281940       0.84831563       0.13934733
N       -0.91182035       0.70023897       1.27898908
C       -1.80912563      -0.07951085       0.70506923
N       -1.49510835      -0.47919104      -0.55806620
N       -0.21863580      -1.11036864      -0.72529424
H        2.43809308      -0.85248030      -1.12082498
H        2.60141810       0.10925986       0.25809858
H       -0.24534808       1.77088875      -0.43604337
H       -2.82168181      -0.21061386       1.07536409
11
Frame=9 idx=006982 GeodesicLength=0.38352286230939064 rxn_smarts="[N:1]([c:2]1[c:3]([H:10])[n:4][c:5]([H:11])[n:6][n:7]1)([H:8])[H:9]>>[N:1]([C:2]1=[N:7][N:6]2[C@@:3]1([H:10])[N:4]=[C:5]2[H:11])([H:8])[H:9]"
N        1.98862583      -0.43360445      -0.33840745
C        0.64956729      -0.27045739      -0.27922461
C       -0.18532084       0.84881865       0.12132373
N       -0.93068227       0.73185436       1.25771726
C       -1.81474111      -0.07904105       0.70961350
N       -1.48719108      -0.49859606      -0.54445521
N       -0.21742508      -1.14304882      -0.68188907
H        2.43664825      -0.75349993      -1.17910920
H        2.59707727       0.03325020       0.30820584
H       -0.20875660       1.77446884      -0.45129283
H       -2.82780165      -0.21014436       1.07751804
11
Frame=10 idx=006982 GeodesicLength=0.43158961052552586 rxn_smarts="[N:1]([c:2]1[c:3]([H:10])[n:4][c:5]([H:11])[n:6][n:7]1)([H:8])[H:9]>>[N:1]([C:2]1=[N:7][N:6]2[C@@:3]1([H:10])[N:4]=[C:5]2[H:11])([H:8])[H:9]"
N        1.98502059      -0.42803884      -0.35464189
C        0.64628931      -0.28118307      -0.26162499
C       -0.18826403       0.84966255       0.10245817
N       -0.95107087       0.76388244       1.23385885
C       -1.82049943      -0.07850695       0.71327270
N       -1.47843936      -0.51839964      -0.53078300
N       -0.21493571      -1.17391549      -0.63708674
H        2.43130429      -0.65065156      -1.22649205
H        2.59429844      -0.04896199       0.34609671
H       -0.17034167       1.77835470      -0.46476572
H       -2.83336158      -0.21224214       1.07970796
11
Frame=11 idx=006982 GeodesicLength=0.48159089450457826 rxn_smarts="[N:1]([c:2]1[c:3]([H:10])[n:4][c:5]([H:11])[n:6][n:7]1)([H:8])[H:9]>>[N:1]([C:2]1=[N:7][N:6]2[C@@:3]1([H:10])[N:4]=[C:5]2[H:11])([H:8])[H:9]"
N        1.98077078      -0.42214682      -0.36946229
C        0.64331232      -0.29020978      -0.24363821
C       -0.19180472       0.85090896       0.08227478
N       -0.97283266       0.79623458       1.20707920
C       -1.82628704      -0.07793503       0.71615147
N       -1.46912366      -0.53850101      -0.51701990
N       -0.21143163      -1.20270855      -0.59136957
H        2.42305813      -0.54552751      -1.26223521
H        2.59254999      -0.13587861       0.37182393
H       -0.13019603       1.78269357      -0.47622795
H       -2.83801550      -0.21692980       1.08262376
11
Frame=12 idx=006982 GeodesicLength=0.5334812765343335 rxn_smarts="[N:1]([c:2]1[c:3]([H:10])[n:4][c:5]([H:11])[n:6][n:7]1)([H:8])[H:9]>>[N:1]([C:2]1=[N:7][N:6]2[C@@:3]1([H:10])[N:4]=[C:5]2[H:11])([H:8])[H:9]"
N        1.97583308      -0.41637429      -0.38304692
C        0.64048275      -0.29753838      -0.22565921
C       -0.19609516       0.85248322       0.06022658
N       -0.99581244       0.82883689       1.17700805
C       -1.83199559      -0.07732334       0.71842725
N       -1.45947960      -0.55901410      -0.50298117
N       -0.20712301      -1.22942753      -0.54492077
H        2.41304135      -0.43864195      -1.28602176
H        2.59113293      -0.22661800       0.38572258
H       -0.08844356       1.78737505      -0.48558493
H       -2.84154075      -0.22375757       1.08683030
11
Frame=13 idx=006982 GeodesicLength=0.5871395577065983 rxn_smarts="[N:1]([c:2]1[c:3]([H:10])[n:4][c:5]([H:11])[n:6][n:7]1)([H:8])[H:9]>>[N:1]([C:2]1=[N:7][N:6]2[C@@:3]1([H:10])[N:4]=[C:5]2[H:11])([H:8])[H:9]"
N        1.97019604      -0.41074405      -0.39570628
C        0.63766244      -0.30306751      -0.20808632
C       -0.20134652       0.85434561       0.03573732
N       -1.01991795       0.86156997       1.14328093
C       -1.83754373      -0.07663809       0.72024502
N       -1.44969959      -0.58003621      -0.48849538
N       -0.20212907      -1.25402352      -0.49786702
H        2.40246721      -0.33089866      -1.29738229
H        2.58930132      -0.32043810       0.38797156
H       -0.04532609       1.79232958      -0.49262357
H       -2.84366405      -0.23239902       1.09292605
11
Frame=14 idx=006982 GeodesicLength=0.6422294005700833 rxn_smarts="[N:1]([c:2]1[c:3]([H:10])[n:4][c:5]([H:11])[n:6][n:7]1)([H:8])[H:9]>>[N:1]([C:2]1=[N:7][N:6]2[C@@:3]1([H:10])[N:4]=[C:5]2[H:11])([H:8])[H:9]"
N        1.96389214      -0.40515367      -0.40772532
C        0.63474897      -0.30672754      -0.19123606
C       -0.20772779       0.85638983       0.00840050
N       -1.04504567       0.89407724       1.10573176
C       -1.84286800      -0.07589060       0.72172798
N       -1.43991101      -0.60159840      -0.47344359
N       -0.19651407      -1.27643322      -0.45033896
H        2.39253595      -0.22393753      -1.29601343
H        2.58635230      -0.41582592       0.37848298
H       -0.00120465       1.79742581      -0.49678780
H       -2.84425818      -0.24232600       1.10120194
11
Frame=15 idx=006982 GeodesicLength=0.6982565268341697 rxn_smarts="[N:1]([c:2]1[c:3]([H:10])[n:4][c:5]([H:11])[n:6][n:7]1)([H:8])[H:9]>>[N:1]([C:2]1=[N:7][N:6]2[C@@:3]1([H:10])[N:4]=[C:5]2[H:11])([H:8])[H:9]"
N        1.95698719      -0.39954325      -0.41937360
C        0.63168446      -0.30854238      -0.17538507
C       -0.21529241       0.85842881      -0.02204056
N       -1.07098126       0.92583457       1.06440524
C       -1.84786397      -0.07510582       0.72302369
N       -1.43018315      -0.62366810      -0.45771793
N       -0.19031894      -1.29661683      -0.40249404
H        2.38434271      -0.11950610      -1.28198260
H        2.58162401      -0.51086566       0.35737029
H        0.04330787       1.80234273      -0.49748677
H       -2.84330651      -0.25275795       1.11168135
11
Frame=16 idx=006982 GeodesicLength=0.7547578674058169 rxn_smarts="[N:1]([c:2]1[c:3]([H:10])[n:4][c:5]([H:11])[n:6][n:7]1)([H:8])[H:9]>>[N:1]([C:2]1=[N:7][N:6]2[C@@:3]1([H:10])[N:4]=[C:5]2[H:11])([H:8])[H:9]"
N        1.94959055      -0.39385880      -0.43100321
C        0.62852895      -0.30866153      -0.16050595
C       -0.22388065       0.86019945      -0.05553544
N       -1.09747415       0.95628308       1.01956297
C       -1.85244075      -0.07424282       0.72424156
N       -1.42042726      -0.64615338      -0.44119010
N       -0.18349886      -1.31459853      -0.35425369
H        2.37861169      -0.01886118      -1.25570111
H        2.57473439      -0.60389140       0.32482872
H        0.08726824       1.80648339      -0.49440057
H       -2.84101214      -0.26269829       1.12395682
