17
Frame=0 idx=011918 GeodesicLength=0.0 rxn_smarts="[C:1]([C@@:2]1([H:11])[C@@:3]2([H:12])[C:4]([H:13])([H:14])[C:5]([H:15])=[C:6]([H:16])[C@@:7]12[H:17])([H:8])([H:9])[H:10]>>[C:1]([C@@:2]1([H:11])[C@@:3]2([H:12])[C-:4]=[C:5]([H:15])[C+:6]([H:16])[C@@:7]12[H:17])([H:8])([H:9])[H:10].[H:13][H:14]"
C       -1.97385963       0.46902152       0.14663107
C       -1.09485091      -0.72528403      -0.10982543
C        0.24966891      -0.69028993      -0.79032072
C        0.84607051       0.66752034      -0.89396476
C        1.31588068       0.97700357       0.43735008
C        0.83487250       0.08180376       1.33122727
C        0.17097782      -1.05595422       0.67848386
H       -2.53142481       0.72193563      -0.75712459
H       -2.69442031       0.24436279       0.93548247
H       -1.40712085       1.35188516       0.43891336
H       -1.66248517      -1.61396343      -0.37319042
H        0.41723953      -1.42040812      -1.56958154
H        1.97214831       0.69978150      -1.90033476
H        2.61950973       0.23087725      -1.76716969
H        1.81687793       1.90094253       0.69847438
H        0.84989504       0.21556292       2.40779361
H        0.27102078      -2.05479724       1.08715582
17
Frame=1 idx=011918 GeodesicLength=0.057071561158403165 rxn_smarts="[C:1]([C@@:2]1([H:11])[C@@:3]2([H:12])[C:4]([H:13])([H:14])[C:5]([H:15])=[C:6]([H:16])[C@@:7]12[H:17])([H:8])([H:9])[H:10]>>[C:1]([C@@:2]1([H:11])[C@@:3]2([H:12])[C-:4]=[C:5]([H:15])[C+:6]([H:16])[C@@:7]12[H:17])([H:8])([H:9])[H:10].[H:13][H:14]"
C       -1.96621854       0.47259567       0.13663198
C       -1.09058834      -0.72648621      -0.10908289
C        0.25881479      -0.70033833      -0.78011088
C        0.86167638       0.65477261      -0.88260525
C        1.32345069       0.96764531       0.45154798
C        0.83282076       0.07683400       1.34397559
C        0.16819919      -1.05969114       0.68927928
H       -2.51405272       0.72584297      -0.77299602
H       -2.69460897       0.25374164       0.91987397
H       -1.39726505       1.35339386       0.43101174
H       -1.66043015      -1.61389211      -0.37196456
H        0.42871080      -1.43518221      -1.55448749
H        1.93992444       0.73664622      -1.93312258
H        2.58593862       0.24633667      -1.80374419
H        1.82072746       1.89312029       0.71451105
H        0.84148571       0.21259225       2.42037074
H        0.26141494      -2.05793150       1.10091155
17
Frame=2 idx=011918 GeodesicLength=0.1142489335442092 rxn_smarts="[C:1]([C@@:2]1([H:11])[C@@:3]2([H:12])[C:4]([H:13])([H:14])[C:5]([H:15])=[C:6]([H:16])[C@@:7]12[H:17])([H:8])([H:9])[H:10]>>[C:1]([C@@:2]1([H:11])[C@@:3]2([H:12])[C-:4]=[C:5]([H:15])[C+:6]([H:16])[C@@:7]12[H:17])([H:8])([H:9])[H:10].[H:13][H:14]"
C       -1.95786415       0.47633881       0.12590307
C       -1.08594355      -0.72775832      -0.10844480
C        0.26848962      -0.71090984      -0.76943183
C        0.87818034       0.64132243      -0.87090126
C        1.33157260       0.95770181       0.46614629
C        0.83069999       0.07173877       1.35710814
C        0.16533615      -1.06354939       0.70047429
H       -2.49540477       0.72983995      -0.78980883
H       -2.69443718       0.26364559       0.90313711
H       -1.38663335       1.35495891       0.42254897
H       -1.65811135      -1.61378382      -0.37091535
H        0.44089469      -1.45065846      -1.53864399
H        1.90362043       0.77411341      -1.96442490
H        2.54993698       0.26384566      -1.84209264
H        1.82573415       1.88441131       0.73080517
H        0.83262348       0.20981843       2.43325033
H        0.25130592      -2.06107525       1.11529024
17
Frame=3 idx=011918 GeodesicLength=0.17158766819512597 rxn_smarts="[C:1]([C@@:2]1([H:11])[C@@:3]2([H:12])[C:4]([H:13])([H:14])[C:5]([H:15])=[C:6]([H:16])[C@@:7]12[H:17])([H:8])([H:9])[H:10]>>[C:1]([C@@:2]1([H:11])[C@@:3]2([H:12])[C-:4]=[C:5]([H:15])[C+:6]([H:16])[C@@:7]12[H:17])([H:8])([H:9])[H:10].[H:13][H:14]"
C       -1.94870923       0.48025357       0.11431403
C       -1.08085527      -0.72911876      -0.10792629
C        0.27877922      -0.72206017      -0.75821813
C        0.89567542       0.62711088      -0.85881419
C        1.34033307       0.94711240       0.48118185
C        0.82850238       0.06654114       1.37066487
C        0.16238996      -1.06752021       0.71212488
H       -2.47524435       0.73394116      -0.80775209
H       -2.69391851       0.27409934       0.88502525
H       -1.37515562       1.35656553       0.41347860
H       -1.65546296      -1.61365544      -0.37007123
H        0.45391927      -1.46691893      -1.52193882
H        1.86261794       0.81239099      -1.99399051
H        2.51093359       0.28353657      -1.88230359
H        1.83231845       1.87458644       0.74738427
H        0.82322998       0.20733242       2.44645152
H        0.24064664      -2.06419693       1.13038956
17
Frame=4 idx=011918 GeodesicLength=0.22924983733870324 rxn_smarts="[C:1]([C@@:2]1([H:11])[C@@:3]2([H:12])[C:4]([H:13])([H:14])[C:5]([H:15])=[C:6]([H:16])[C@@:7]12[H:17])([H:8])([H:9])[H:10]>>[C:1]([C@@:2]1([H:11])[C@@:3]2([H:12])[C-:4]=[C:5]([H:15])[C+:6]([H:16])[C@@:7]12[H:17])([H:8])([H:9])[H:10].[H:13][H:14]"
C       -1.93861936       0.48433744       0.10168800
C       -1.07524275      -0.73059587      -0.10754787
C        0.28978133      -0.73387697      -0.74636910
C        0.91427134       0.61203004      -0.84625395
C        1.34982987       0.93578836       0.49672577
C        0.82620192       0.06126892       1.38471483
C        0.15934969      -1.07159374       0.72431155
H       -2.45326231       0.73814811      -0.82707030
H       -2.69302973       0.28515370       0.86521785
H       -1.36271109       1.35817940       0.40371628
H       -1.65240240      -1.61352539      -0.36947403
H        0.46793285      -1.48408699      -1.50420874
H        1.81615259       0.85177562      -2.02151384
H        2.46820882       0.30564529      -1.92460954
H        1.84103102       1.86333424       0.76430090
H        0.81316038       0.20526516       2.46002263
H        0.22934782      -2.06724733       1.14634958
17
Frame=5 idx=011918 GeodesicLength=0.2870824424085159 rxn_smarts="[C:1]([C@@:2]1([H:11])[C@@:3]2([H:12])[C:4]([H:13])([H:14])[C:5]([H:15])=[C:6]([H:16])[C@@:7]12[H:17])([H:8])([H:9])[H:10]>>[C:1]([C@@:2]1([H:11])[C@@:3]2([H:12])[C-:4]=[C:5]([H:15])[C+:6]([H:16])[C@@:7]12[H:17])([H:8])([H:9])[H:10].[H:13][H:14]"
C       -1.92745595       0.48864890       0.08801776
C       -1.06905370      -0.73212979      -0.10740129
C        0.30149349      -0.74633643      -0.73401740
C        0.93419750       0.59599072      -0.83341171
C        1.35999000       0.92380971       0.51265656
C        0.82389708       0.05591705       1.39908792
C        0.15627577      -1.07574876       0.73686826
H       -2.42953146       0.74238718      -0.84764090
H       -2.69143806       0.29693527       0.84386666
H       -1.34913345       1.35990407       0.39307256
H       -1.64892147      -1.61331048      -0.36919470
H        0.48281341      -1.50210986      -1.48561877
H        1.76411931       0.89186993      -2.04618799
H        2.42143802       0.32980064      -1.96830287
H        1.85105726       1.85110182       0.78149336
H        0.80275393       0.20347935       2.47378157
H        0.21749832      -2.07020932       1.16293098
17
Frame=6 idx=011918 GeodesicLength=0.3454801372213511 rxn_smarts="[C:1]([C@@:2]1([H:11])[C@@:3]2([H:12])[C:4]([H:13])([H:14])[C:5]([H:15])=[C:6]([H:16])[C@@:7]12[H:17])([H:8])([H:9])[H:10]>>[C:1]([C@@:2]1([H:11])[C@@:3]2([H:12])[C-:4]=[C:5]([H:15])[C+:6]([H:16])[C@@:7]12[H:17])([H:8])([H:9])[H:10].[H:13][H:14]"
C       -1.91507742       0.49323026       0.07306806
C       -1.06218678      -0.73377247      -0.10749316
C        0.31408652      -0.75960217      -0.72103619
C        0.95565693       0.57881568      -0.82021072
C        1.37094860       0.91105107       0.52904874
C        0.82155087       0.05047879       1.41391441
C        0.15315943      -1.08003136       0.74995058
H       -2.40365962       0.74674895      -0.86982704
H       -2.68919987       0.30956288       0.82056173
H       -1.33430373       1.36174012       0.38144098
H       -1.64491544      -1.61305940      -0.36925224
H        0.49883126      -1.52122419      -1.46596866
H        1.70560321       0.93312625      -2.06759685
H        2.36968327       0.35642254      -2.01387365
H        1.86310782       1.83749658       0.79898851
H        0.79174560       0.20212472       2.48786869
H        0.20496937      -2.07310825       1.18041681
17
Frame=7 idx=011918 GeodesicLength=0.40438530700315 rxn_smarts="[C:1]([C@@:2]1([H:11])[C@@:3]2([H:12])[C:4]([H:13])([H:14])[C:5]([H:15])=[C:6]([H:16])[C@@:7]12[H:17])([H:8])([H:9])[H:10]>>[C:1]([C@@:2]1([H:11])[C@@:3]2([H:12])[C-:4]=[C:5]([H:15])[C+:6]([H:16])[C@@:7]12[H:17])([H:8])([H:9])[H:10].[H:13][H:14]"
C       -1.90120480       0.49805609       0.05658639
C       -1.05452553      -0.73551499      -0.10791664
C        0.32761572      -0.77372188      -0.70739590
C        0.97888537       0.56033139      -0.80670658
C        1.38274593       0.89749701       0.54584693
C        0.81923975       0.04504929       1.42907270
C        0.15002844      -1.08433701       0.76348730
H       -2.37522796       0.75110507      -0.89387439
H       -2.68605670       0.32309329       0.79489592
H       -1.31794898       1.36364855       0.36862320
H       -1.64030284      -1.61273227      -0.36973961
H        0.51597686      -1.54149353      -1.44514137
H        1.63966538       0.97543676      -2.08449931
H        2.31157670       0.38566984      -2.06081716
H        1.87753578       1.82228246       0.81677958
H        0.78026430       0.20137474       2.50206912
H        0.19173260      -2.07574482       1.19872982
17
Frame=8 idx=011918 GeodesicLength=0.4642139497182166 rxn_smarts="[C:1]([C@@:2]1([H:11])[C@@:3]2([H:12])[C:4]([H:13])([H:14])[C:5]([H:15])=[C:6]([H:16])[C@@:7]12[H:17])([H:8])([H:9])[H:10]>>[C:1]([C@@:2]1([H:11])[C@@:3]2([H:12])[C-:4]=[C:5]([H:15])[C+:6]([H:16])[C@@:7]12[H:17])([H:8])([H:9])[H:10].[H:13][H:14]"
C       -1.88562680       0.50323127       0.03839920
C       -1.04595477      -0.73736789      -0.10873019
C        0.34219434      -0.78882674      -0.69313936
C        1.00418746       0.54033082      -0.79307117
C        1.39538661       0.88314844       0.56292144
C        0.81701731       0.03961295       1.44449623
C        0.14693353      -1.08871859       0.77745997
H       -2.34395755       0.75554657      -0.91996902
H       -2.68182573       0.33773674       0.76666892
H       -1.29987654       1.36573496       0.35443950
H       -1.63498987      -1.61233553      -0.37068920
H        0.53433830      -1.56311345      -1.42315900
H        1.56578309       1.01879831      -2.09573457
H        2.24608725       0.41758217      -2.10887267
H        1.89416965       1.80557208       0.83472921
H        0.76835283       0.20125488       2.51633806
H        0.17778089      -2.07818701       1.21791265
17
Frame=9 idx=011918 GeodesicLength=0.5250779535551651 rxn_smarts="[C:1]([C@@:2]1([H:11])[C@@:3]2([H:12])[C:4]([H:13])([H:14])[C:5]([H:15])=[C:6]([H:16])[C@@:7]12[H:17])([H:8])([H:9])[H:10]>>[C:1]([C@@:2]1([H:11])[C@@:3]2([H:12])[C-:4]=[C:5]([H:15])[C+:6]([H:16])[C@@:7]12[H:17])([H:8])([H:9])[H:10].[H:13][H:14]"
C       -1.86821690       0.50888338       0.01834040
C       -1.03641687      -0.73929529      -0.11001820
C        0.35785118      -0.80496695      -0.67849013
C        1.03177320       0.51870332      -0.77984244
C        1.40883751       0.86812063       0.57989756
C        0.81506334       0.03425084       1.45991913
C        0.14398681      -1.09314152       0.79172468
H       -2.30957471       0.76021825      -0.94832375
H       -2.67645170       0.35365811       0.73563436
H       -1.28001513       1.36815408       0.33879635
H       -1.62894725      -1.61184623      -0.37211677
H        0.55383026      -1.58619304      -1.40024763
H        1.48366915       1.06245238      -2.09955448
H        2.17215261       0.45208921      -2.15657853
H        1.91235190       1.78777107       0.85254245
H        0.75684841       0.20155075       2.53045541
H        0.16325817      -2.08040900       1.23786158
17
Frame=10 idx=011918 GeodesicLength=0.5881091430023311 rxn_smarts="[C:1]([C@@:2]1([H:11])[C@@:3]2([H:12])[C:4]([H:13])([H:14])[C:5]([H:15])=[C:6]([H:16])[C@@:7]12[H:17])([H:8])([H:9])[H:10]>>[C:1]([C@@:2]1([H:11])[C@@:3]2([H:12])[C-:4]=[C:5]([H:15])[C+:6]([H:16])[C@@:7]12[H:17])([H:8])([H:9])[H:10].[H:13][H:14]"
C       -1.84875961       0.51459697      -0.00385073
C       -1.02595188      -0.74130849      -0.11191338
C        0.37445801      -0.82197675      -0.66335089
C        1.06183794       0.49527408      -0.76687037
C        1.42324252       0.85243653       0.59663111
C        0.81359524       0.02915396       1.47509471
C        0.14119670      -1.09728434       0.80608117
H       -2.27203248       0.76444622      -0.97901646
H       -2.66959560       0.37049502       0.70138631
H       -1.25801932       1.37036403       0.32144232
H       -1.62236057      -1.61114295      -0.37418643
H        0.57416510      -1.61044632      -1.37615724
H        1.39310446       1.10681125      -2.09403793
H        2.08828556       0.48911792      -2.20357363
H        1.93383491       1.76798073       0.87004276
H        0.74492657       0.20326657       2.54392522
H        0.14807244      -2.08178443       1.25835344
17
Frame=11 idx=011918 GeodesicLength=0.6537264228369555 rxn_smarts="[C:1]([C@@:2]1([H:11])[C@@:3]2([H:12])[C:4]([H:13])([H:14])[C:5]([H:15])=[C:6]([H:16])[C@@:7]12[H:17])([H:8])([H:9])[H:10]>>[C:1]([C@@:2]1([H:11])[C@@:3]2([H:12])[C-:4]=[C:5]([H:15])[C+:6]([H:16])[C@@:7]12[H:17])([H:8])([H:9])[H:10].[H:13][H:14]"
C       -1.82718042       0.52083540      -0.02766120
C       -1.01436716      -0.74345417      -0.11434960
C        0.39187366      -0.83983943      -0.64829969
C        1.09377790       0.47061554      -0.75512926
C        1.43767817       0.83672286       0.61214846
C        0.81237995       0.02443831       1.48928454
C        0.13869344      -1.10141699       0.82002297
H       -2.23094002       0.76904347      -1.01142273
H       -2.66112370       0.38847599       0.66445944
H       -1.23429677       1.37313120       0.30306124
H       -1.61465891      -1.61060429      -0.37673127
H        0.59519568      -1.63611114      -1.35161530
H        1.29548372       1.15000282      -2.07777035
H        1.99496055       0.52771748      -2.24704525
H        1.95685861       1.74727362       0.88628637
H        0.73288873       0.20623348       2.55606411
H        0.13277658      -2.08306414       1.27869750
17
Frame=12 idx=011918 GeodesicLength=0.7225576387472019 rxn_smarts="[C:1]([C@@:2]1([H:11])[C@@:3]2([H:12])[C:4]([H:13])([H:14])[C:5]([H:15])=[C:6]([H:16])[C@@:7]12[H:17])([H:8])([H:9])[H:10]>>[C:1]([C@@:2]1([H:11])[C@@:3]2([H:12])[C-:4]=[C:5]([H:15])[C+:6]([H:16])[C@@:7]12[H:17])([H:8])([H:9])[H:10].[H:13][H:14]"
C       -1.80489028       0.52648057      -0.05291724
C       -1.00259104      -0.74549379      -0.11752457
C        0.40901292      -0.85731253      -0.63397824
C        1.12600483       0.44559093      -0.74546210
C        1.45213763       0.82148718       0.62566399
C        0.81212266       0.02079918       1.50195054
C        0.13676051      -1.10447359       0.83303600
H       -2.18878271       0.77260715      -1.04519131
H       -2.65189250       0.40594480       0.62522914
H       -1.21015410       1.37511888       0.28380479
H       -1.60686729      -1.60978721      -0.37984381
H        0.61552458      -1.66139251      -1.32733040
H        1.19454331       1.19107799      -2.04969659
H        1.89466596       0.56645998      -2.28321183
H        1.98426557       1.72426454       0.90069453
H        0.72193746       0.21119861       2.56635279
H        0.11820248      -2.08257020       1.29842431
17
Frame=13 idx=011918 GeodesicLength=0.7935316843580349 rxn_smarts="[C:1]([C@@:2]1([H:11])[C@@:3]2([H:12])[C:4]([H:13])([H:14])[C:5]([H:15])=[C:6]([H:16])[C@@:7]12[H:17])([H:8])([H:9])[H:10]>>[C:1]([C@@:2]1([H:11])[C@@:3]2([H:12])[C-:4]=[C:5]([H:15])[C+:6]([H:16])[C@@:7]12[H:17])([H:8])([H:9])[H:10].[H:13][H:14]"
C       -1.78310003       0.53189939      -0.07750676
C       -0.99099822      -0.74735416      -0.12108065
C        0.42517962      -0.87356331      -0.62138800
C        1.15636377       0.42234317      -0.73878145
C        1.46509584       0.80797914       0.63606389
C        0.81228781       0.01836655       1.51203670
C        0.13543253      -1.10673827       0.84411190
H       -2.14714132       0.77613128      -1.07763604
H       -2.64262119       0.42239937       0.58648246
H       -1.18739322       1.37719240       0.26571597
H       -1.59872021      -1.60916329      -0.38314411
H        0.63460501      -1.68544340      -1.30487573
H        1.09660629       1.22689986      -2.01270345
H        1.79446835       0.60167836      -2.30927270
H        2.01221067       1.70136484       0.91229618
H        0.71231570       0.21745084       2.57390310
H        0.10540860      -2.08144278       1.31577869
17
Frame=14 idx=011918 GeodesicLength=0.8660172982810257 rxn_smarts="[C:1]([C@@:2]1([H:11])[C@@:3]2([H:12])[C:4]([H:13])([H:14])[C:5]([H:15])=[C:6]([H:16])[C@@:7]12[H:17])([H:8])([H:9])[H:10]>>[C:1]([C@@:2]1([H:11])[C@@:3]2([H:12])[C-:4]=[C:5]([H:15])[C+:6]([H:16])[C@@:7]12[H:17])([H:8])([H:9])[H:10].[H:13][H:14]"
C       -1.76310174       0.53645763      -0.10078009
C       -0.98039133      -0.74901659      -0.12490189
C        0.43971001      -0.88780632      -0.61079126
C        1.18369809       0.40193211      -0.73513624
C        1.47680461       0.79647660       0.64342740
C        0.81309747       0.01727837       1.51971573
C        0.13465285      -1.10793320       0.85323745
H       -2.10811053       0.77902915      -1.10802997
H       -2.63433232       0.43662053       0.54928551
H       -1.16709359       1.37873820       0.24931165
H       -1.59113218      -1.60875947      -0.38649291
H        0.65177500      -1.70713781      -1.28466183
H        1.00520855       1.25764641      -1.96978792
H        1.69885201       0.63239261      -2.32537685
H        2.04178695       1.67820241       0.92129204
H        0.70399862       0.22521703       2.57895151
H        0.09457756      -2.07933768       1.33073766
17
Frame=15 idx=011918 GeodesicLength=0.9392650340664617 rxn_smarts="[C:1]([C@@:2]1([H:11])[C@@:3]2([H:12])[C:4]([H:13])([H:14])[C:5]([H:15])=[C:6]([H:16])[C@@:7]12[H:17])([H:8])([H:9])[H:10]>>[C:1]([C@@:2]1([H:11])[C@@:3]2([H:12])[C-:4]=[C:5]([H:15])[C+:6]([H:16])[C@@:7]12[H:17])([H:8])([H:9])[H:10].[H:13][H:14]"
C       -1.74529395       0.54022648      -0.12227874
C       -0.97086532      -0.75045211      -0.12881525
C        0.45253182      -0.89993584      -0.60208626
C        1.20744844       0.38471675      -0.73413791
C        1.48700090       0.78702781       0.64816337
C        0.81424864       0.01743851       1.52527364
C        0.13433254      -1.10815791       0.86055881
H       -2.07217388       0.78152118      -1.13588999
H       -2.62735584       0.44851986       0.51422549
H       -1.14976332       1.37986619       0.23501249
H       -1.58403015      -1.60861006      -0.38976297
H        0.66714930      -1.72630695      -1.26670294
H        0.92136490       1.28342484      -1.92381840
H        1.61040278       0.65835119      -2.33301574
H        2.07248631       1.65469516       0.92809256
H        0.69673648       0.23417150       2.58183755
H        0.08578034      -2.07649659       1.34334428
17
Frame=16 idx=011918 GeodesicLength=1.0126767113153163 rxn_smarts="[C:1]([C@@:2]1([H:11])[C@@:3]2([H:12])[C:4]([H:13])([H:14])[C:5]([H:15])=[C:6]([H:16])[C@@:7]12[H:17])([H:8])([H:9])[H:10]>>[C:1]([C@@:2]1([H:11])[C@@:3]2([H:12])[C-:4]=[C:5]([H:15])[C+:6]([H:16])[C@@:7]12[H:17])([H:8])([H:9])[H:10].[H:13][H:14]"
C       -1.72963977       0.54334597      -0.14182867
C       -0.96240295      -0.75158438      -0.13271250
C        0.46375860      -0.91008178      -0.59503108
C        1.22783730       0.37042619      -0.73524213
C        1.49586521       0.77926955       0.65077357
C        0.81567598       0.01849207       1.52902447
C        0.13437940      -1.10758164       0.86626850
H       -2.03949266       0.78375472      -1.16098534
H       -2.62158871       0.45836279       0.48167854
H       -1.13519467       1.38062102       0.22276902
H       -1.57748597      -1.60851182      -0.39286678
H        0.68088024      -1.74301508      -1.25076552
H        0.84518873       1.30470469      -1.87670117
H        1.53034107       0.67965414      -2.33404270
H        2.10264897       1.63147034       0.93304803
H        0.69045274       0.24376363       2.58287635
H        0.07877649      -2.07309040       1.35373741
