12
Frame=0 idx=001667 GeodesicLength=0.0 rxn_smarts="[C:1]1([H:7])([H:8])[O:2][C@@:3]2([H:9])[C:4]([H:10])([H:11])[O:5][C@@:6]12[H:12]>>[C:1]1([H:7])([H:8])[O:2][C:3]([H:9])=[C:6]([H:12])[O:5][C:4]1([H:10])[H:11]"
C       -1.05995640       0.88300640      -0.04615646
O       -0.81319006       0.36956585      -1.33840699
C       -0.06233806      -0.65616159      -0.97430091
C        1.21514494       0.45487253       0.46961339
O        0.78565851      -0.63935635       1.25261262
C       -0.13655455      -1.09155752       0.42077068
H       -2.05533115       0.60939229       0.29767869
H       -0.88736208       1.95357589       0.01011841
H        0.05794472      -1.38330500      -1.78955302
H        2.15523140       0.23317034      -0.03055731
H        1.26169753       1.37495359       1.04407568
H       -0.46094481      -2.10815639       0.68410519
12
Frame=1 idx=001667 GeodesicLength=0.05907506042454121 rxn_smarts="[C:1]1([H:7])([H:8])[O:2][C@@:3]2([H:9])[C:4]([H:10])([H:11])[O:5][C@@:6]12[H:12]>>[C:1]1([H:7])([H:8])[O:2][C:3]([H:9])=[C:6]([H:12])[O:5][C:4]1([H:10])[H:11]"
C       -1.05060273       0.87651892      -0.03675963
O       -0.80427393       0.37100124      -1.33342034
C       -0.04997652      -0.65952919      -0.97336899
C        1.20521769       0.45716972       0.45897792
O        0.77736493      -0.63331990       1.25002869
C       -0.14934262      -1.09102690       0.41885325
H       -2.04960948       0.60803929       0.30200867
H       -0.89118177       1.94945519       0.02005370
H        0.06996661      -1.38434919      -1.78929141
H        2.14938169       0.23559023      -0.03456647
H        1.26572184       1.37679589       1.03353873
H       -0.47266572      -2.10634530       0.68394587
12
Frame=2 idx=001667 GeodesicLength=0.1181584682345147 rxn_smarts="[C:1]1([H:7])([H:8])[O:2][C@@:3]2([H:9])[C:4]([H:10])([H:11])[O:5][C@@:6]12[H:12]>>[C:1]1([H:7])([H:8])[O:2][C:3]([H:9])=[C:6]([H:12])[O:5][C:4]1([H:10])[H:11]"
C       -1.04143719       0.87012691      -0.02750544
O       -0.79561023       0.37229122      -1.32844094
C       -0.03778158      -0.66293384      -0.97224329
C        1.19548152       0.45942275       0.44850067
O        0.76929101      -0.62745862       1.24734773
C       -0.16195968      -1.09045691       0.41674257
H       -2.04392650       0.60678998       0.30646720
H       -0.89482817       1.94521818       0.02984444
H        0.08221512      -1.38530267      -1.78889476
H        2.14360694       0.23815557      -0.03861097
H        1.26953270       1.37848871       1.02304828
H       -0.48458393      -2.10434128       0.68374451
12
Frame=3 idx=001667 GeodesicLength=0.17725145557923527 rxn_smarts="[C:1]1([H:7])([H:8])[O:2][C@@:3]2([H:9])[C:4]([H:10])([H:11])[O:5][C@@:6]12[H:12]>>[C:1]1([H:7])([H:8])[O:2][C:3]([H:9])=[C:6]([H:12])[O:5][C:4]1([H:10])[H:11]"
C       -1.03245241       0.86382456      -0.01838901
O       -0.78718721       0.37344743      -1.32347162
C       -0.02574526      -0.66637307      -0.97093144
C        1.18592898       0.46163467       0.43817156
O        0.76142759      -0.62176567       1.24458099
C       -0.17441028      -1.08985219       0.41444464
H       -2.03828257       0.60563495       0.31104838
H       -0.89831064       1.94087231       0.03950870
H        0.09468350      -1.38617589      -1.78836423
H        2.13790686       0.24085421      -0.04269603
H        1.27313947       1.38004899       1.01259966
H       -0.49669802      -2.10215031       0.68349840
12
Frame=4 idx=001667 GeodesicLength=0.23636357134039312 rxn_smarts="[C:1]1([H:7])([H:8])[O:2][C@@:3]2([H:9])[C:4]([H:10])([H:11])[O:5][C@@:6]12[H:12]>>[C:1]1([H:7])([H:8])[O:2][C:3]([H:9])=[C:6]([H:12])[O:5][C:4]1([H:10])[H:11]"
C       -1.02364318       0.85760760      -0.00940018
O       -0.77900004       0.37446901      -1.31851513
C       -0.01386196      -0.66985064      -0.96943723
C        1.17655272       0.46380191       0.42798282
O        0.75376657      -0.61623336       1.24173038
C       -0.18670392      -1.08920805       0.41196442
H       -2.03267268       0.60456174       0.31576065
H       -0.90163287       1.93642998       0.04904932
H        0.10737885      -1.38696495      -1.78769437
H        2.13227518       0.24367709      -0.04682089
H        1.27654986       1.38148519       1.00218322
H       -0.50900851      -2.09977552       0.68319699
12
Frame=5 idx=001667 GeodesicLength=0.2954905467783206 rxn_smarts="[C:1]1([H:7])([H:8])[O:2][C@@:3]2([H:9])[C:4]([H:10])([H:11])[O:5][C@@:6]12[H:12]>>[C:1]1([H:7])([H:8])[O:2][C:3]([H:9])=[C:6]([H:12])[O:5][C:4]1([H:10])[H:11]"
C       -1.01499550       0.85147672      -0.00054014
O       -0.77104264       0.37536742      -1.31357410
C       -0.00213070      -0.67336136      -0.96776338
C        1.16734170       0.46593175       0.41793223
O        0.74629939      -0.61085795       1.23880848
C       -0.19884734      -1.08852929       0.40930748
H       -2.02709511       0.60357832       0.32059494
H       -0.90479214       1.93190157       0.05846103
H        0.12026076      -1.38769600      -1.78687699
H        2.12670893       0.24662080      -0.05098698
H        1.27976347       1.38280743       0.99181911
H       -0.52147083      -2.09723943       0.68281833
12
Frame=6 idx=001667 GeodesicLength=0.3546365720869091 rxn_smarts="[C:1]1([H:7])([H:8])[O:2][C@@:3]2([H:9])[C:4]([H:10])([H:11])[O:5][C@@:6]12[H:12]>>[C:1]1([H:7])([H:8])[O:2][C:3]([H:9])=[C:6]([H:12])[O:5][C:4]1([H:10])[H:11]"
C       -1.00650613       0.84542680       0.00820175
O       -0.76330437       0.37614827      -1.30865329
C        0.00945614      -0.67690752      -0.96591576
C        1.15829036       0.46802483       0.40801046
O        0.73902096      -0.60563574       1.23582072
C       -0.21084605      -1.08781689       0.40647813
H       -2.02155100       0.60267052       0.32555264
H       -0.90779608       1.92729910       0.06775683
H        0.13333962      -1.38837119      -1.78591414
H        2.12120435       0.24967826      -0.05520380
H        1.28279125       1.38402829       0.98150135
H       -0.53409904      -2.09454472       0.68236510
12
Frame=7 idx=001667 GeodesicLength=0.41379267948996856 rxn_smarts="[C:1]1([H:7])([H:8])[O:2][C@@:3]2([H:9])[C:4]([H:10])([H:11])[O:5][C@@:6]12[H:12]>>[C:1]1([H:7])([H:8])[O:2][C:3]([H:9])=[C:6]([H:12])[O:5][C:4]1([H:10])[H:11]"
C       -0.99816932       0.83945065       0.01682626
O       -0.75578429       0.37681120      -1.30375775
C        0.02090417      -0.68048769      -0.96390339
C        1.14939177       0.47007584       0.39821598
O        0.73193512      -0.60056660       1.23276700
C       -0.22270440      -1.08706748       0.40348643
H       -2.01603816       0.60182998       0.33063400
H       -0.91064517       1.92262196       0.07694714
H        0.14662062      -1.38898495      -1.78480016
H        2.11575465       0.25285047      -0.05947346
H        1.28563604       1.38514754       0.97122104
H       -0.54690104      -2.09168091       0.68183690
12
Frame=8 idx=001667 GeodesicLength=0.4729775219094897 rxn_smarts="[C:1]1([H:7])([H:8])[O:2][C@@:3]2([H:9])[C:4]([H:10])([H:11])[O:5][C@@:6]12[H:12]>>[C:1]1([H:7])([H:8])[O:2][C:3]([H:9])=[C:6]([H:12])[O:5][C:4]1([H:10])[H:11]"
C       -0.98997390       0.83354971       0.02534284
O       -0.74847104       0.37737083      -1.29888166
C        0.03221462      -0.68410175      -0.96171977
C        1.14063798       0.47209290       0.38853834
O        0.72502616      -0.59564466       1.22965813
C       -0.23442553      -1.08628822       0.40032649
H       -2.01055179       0.60105748       0.33583148
H       -0.91334529       1.91788413       0.08602353
H        0.16007599      -1.38955971      -1.78352938
H        2.11035887       0.25612802      -0.06380238
H        1.28830164       1.38618169       0.96099622
H       -0.55984771      -2.08867041       0.68121617
12
Frame=9 idx=001667 GeodesicLength=0.5321830830404153 rxn_smarts="[C:1]1([H:7])([H:8])[O:2][C@@:3]2([H:9])[C:4]([H:10])([H:11])[O:5][C@@:6]12[H:12]>>[C:1]1([H:7])([H:8])[O:2][C:3]([H:9])=[C:6]([H:12])[O:5][C:4]1([H:10])[H:11]"
C       -0.98191672       0.82771661       0.03375457
O       -0.74135682       0.37782788      -1.29403593
C        0.04339471      -0.68775108      -0.95937619
C        1.13202439       0.47407376       0.37897621
O        0.71829363      -0.59086219       1.22649769
C       -0.24601489      -1.08547302       0.39700636
H       -2.00509472       0.60033846       0.34114567
H       -0.91589868       1.91309097       0.09500215
H        0.17369922      -1.39009589      -1.78210050
H        2.10501623       0.25950869      -0.06818547
H        1.29079704       1.38713521       0.95081548
H       -0.57294340      -2.08550938       0.68049995
12
Frame=10 idx=001667 GeodesicLength=0.5914109395772225 rxn_smarts="[C:1]1([H:7])([H:8])[O:2][C@@:3]2([H:9])[C:4]([H:10])([H:11])[O:5][C@@:6]12[H:12]>>[C:1]1([H:7])([H:8])[O:2][C:3]([H:9])=[C:6]([H:12])[O:5][C:4]1([H:10])[H:11]"
C       -0.97399621       0.82194608       0.04206361
O       -0.73444557       0.37818081      -1.28921322
C        0.05445396      -0.69142943      -0.95687327
C        1.12354847       0.47601697       0.36952035
O        0.71173697      -0.58622297       1.22328366
C       -0.25748350      -1.08462450       0.39353156
H       -1.99966105       0.59967516       0.34657724
H       -0.91831207       1.90823699       0.10388722
H        0.18751019      -1.39058717      -1.78051251
H        2.09971887       0.26298871      -0.07263243
H        1.29312797       1.38801094       0.94067534
H       -0.58619804      -2.08219159       0.67969244
12
Frame=11 idx=001667 GeodesicLength=0.6506548891215962 rxn_smarts="[C:1]1([H:7])([H:8])[O:2][C@@:3]2([H:9])[C:4]([H:10])([H:11])[O:5][C@@:6]12[H:12]>>[C:1]1([H:7])([H:8])[O:2][C:3]([H:9])=[C:6]([H:12])[O:5][C:4]1([H:10])[H:11]"
C       -0.96619829       0.81623882       0.05027158
O       -0.72772248       0.37844375      -1.28442586
C        0.06538738      -0.69513897      -0.95421598
C        1.11519734       0.47792535       0.36017328
O        0.70534576      -0.58171809       1.22003229
C       -0.26882433      -1.08374324       0.38990351
H       -1.99425143       0.59905932       0.35211818
H       -0.92058376       1.90333679       0.11268134
H        0.20146216      -1.39105241      -1.77875583
H        2.09446856       0.26656124      -0.07713584
H        1.29529446       1.38882064       0.93058067
H       -0.59957539      -2.07873320       0.67877265
12
Frame=12 idx=001667 GeodesicLength=0.709924213103051 rxn_smarts="[C:1]1([H:7])([H:8])[O:2][C@@:3]2([H:9])[C:4]([H:10])([H:11])[O:5][C@@:6]12[H:12]>>[C:1]1([H:7])([H:8])[O:2][C:3]([H:9])=[C:6]([H:12])[O:5][C:4]1([H:10])[H:11]"
C       -0.95851916       0.81059338       0.05838583
O       -0.72118057       0.37862324      -1.27967280
C        0.07620032      -0.69888128      -0.95140244
C        1.10696791       0.47980355       0.35092738
O        0.69911451      -0.57734005       1.21674613
C       -0.28004362      -1.08282845       0.38611924
H       -1.98886481       0.59848934       0.35776541
H       -0.92272094       1.89840168       0.12137619
H        0.21553440      -1.39150136      -1.77682974
H        2.08926265       0.27021988      -0.08169404
H        1.29730401       1.38956702       0.92054497
H       -0.61305469      -2.07514695       0.67773388
12
Frame=13 idx=001667 GeodesicLength=0.7692058890716413 rxn_smarts="[C:1]1([H:7])([H:8])[O:2][C@@:3]2([H:9])[C:4]([H:10])([H:11])[O:5][C@@:6]12[H:12]>>[C:1]1([H:7])([H:8])[O:2][C:3]([H:9])=[C:6]([H:12])[O:5][C:4]1([H:10])[H:11]"
C       -0.95095699       0.80500408       0.06640538
O       -0.71482028       0.37871751      -1.27495552
C        0.08690088      -0.70265059      -0.94843937
C        1.09885683       0.48164674       0.34178088
O        0.69304448      -0.57309166       1.21342653
C       -0.29114856      -1.08187746       0.38218966
H       -1.98349876       0.59796072       0.36351685
H       -0.92472452       1.89342641       0.12998096
H        0.22973096      -1.39192708      -1.77473144
H        2.08409776       0.27396443      -0.08630975
H        1.29915904       1.39025132       0.91055855
H       -0.62664083      -2.07142443       0.67657726
12
Frame=14 idx=001667 GeodesicLength=0.8285055918684904 rxn_smarts="[C:1]1([H:7])([H:8])[O:2][C@@:3]2([H:9])[C:4]([H:10])([H:11])[O:5][C@@:6]12[H:12]>>[C:1]1([H:7])([H:8])[O:2][C:3]([H:9])=[C:6]([H:12])[O:5][C:4]1([H:10])[H:11]"
C       -0.94350387       0.79946999       0.07433494
O       -0.70863062       0.37873741      -1.27027674
C        0.09748840      -0.70644899      -0.94532566
C        1.09085710       0.48345851       0.33272986
O        0.68712721      -0.56896431       1.21008208
C       -0.30213873      -1.08089167       0.37811217
H       -1.97815306       0.59746901       0.36936470
H       -0.92659791       1.88842029       0.13849600
H        0.24402377      -1.39234100      -1.77245797
H        2.07897245       0.27778736      -0.09097939
H        1.30086458       1.39088138       0.90062721
H       -0.64030932      -2.06757799       0.67529280
12
Frame=15 idx=001667 GeodesicLength=0.8878163515139375 rxn_smarts="[C:1]1([H:7])([H:8])[O:2][C@@:3]2([H:9])[C:4]([H:10])([H:11])[O:5][C@@:6]12[H:12]>>[C:1]1([H:7])([H:8])[O:2][C:3]([H:9])=[C:6]([H:12])[O:5][C:4]1([H:10])[H:11]"
C       -0.93615541       0.79398960       0.08217621
O       -0.70260698       0.37868837      -1.26563889
C        0.10796636      -0.71027394      -0.94206324
C        1.08296441       0.48523950       0.32377239
O        0.68135941      -0.56495405       1.20671805
C       -0.31301706      -1.07986901       0.37388999
H       -1.97282758       0.59701236       0.37530073
H       -0.92834335       1.88338822       0.14691775
H        0.25838568      -1.39274755      -1.77000732
H        2.07388583       0.28168298      -0.09569722
H        1.30242362       1.39145880       0.89075694
H       -0.65403494      -2.06361530       0.67387463
12
Frame=16 idx=001667 GeodesicLength=0.9471318822994826 rxn_smarts="[C:1]1([H:7])([H:8])[O:2][C@@:3]2([H:9])[C:4]([H:10])([H:11])[O:5][C@@:6]12[H:12]>>[C:1]1([H:7])([H:8])[O:2][C:3]([H:9])=[C:6]([H:12])[O:5][C:4]1([H:10])[H:11]"
C       -0.92890737       0.78856130       0.08993102
O       -0.69674420       0.37857640      -1.26104425
C        0.11833768      -0.71412307      -0.93865365
C        1.07517460       0.48699030       0.31490635
O        0.67573738      -0.56105639       1.20334000
C       -0.32378601      -1.07880758       0.36952593
H       -1.96752245       0.59658830       0.38131609
H       -0.92996367       1.87833459       0.15524403
H        0.27279080      -1.39315030      -1.76737869
H        2.06883711       0.28564458      -0.10045750
H        1.30383968       1.39198562       0.88095229
H       -0.66779356      -2.05954375       0.67231839
