12
Frame=0 idx=001585 GeodesicLength=0.0 rxn_smarts="[O:1]([C@:2]1([H:8])[C@:3]2([H:9])[C:4]([H:10])([H:11])[C@@:5]1([H:12])[O:6]2)[H:7]>>[O:1]([C:2]([C@:5]1([H:12])[C:4]([H:10])([H:11])[C-:3]=[O+:6]1)([H:8])[H:9])[H:7]"
O        1.65727516      -0.44827375      -0.74541698
C        0.91098940       0.15650845       0.20907560
C       -0.92755905       1.10649931      -0.00141571
C       -1.18753262      -0.31224519      -0.56393945
C       -0.34095145      -0.57457778       0.66248334
O       -0.91898154       0.57316698       1.32689209
H        2.47437061       0.03384747      -0.89082708
H        1.45758877       0.67351437       1.00327246
H        0.17359059       1.45857623      -0.24358725
H       -2.23816793      -0.57936445      -0.46502067
H       -0.78245339      -0.58229752      -1.53715851
H       -0.27816855      -1.50535413       1.24564217
12
Frame=1 idx=001585 GeodesicLength=0.0646503103083134 rxn_smarts="[O:1]([C@:2]1([H:8])[C@:3]2([H:9])[C:4]([H:10])([H:11])[C@@:5]1([H:12])[O:6]2)[H:7]>>[O:1]([C:2]([C@:5]1([H:12])[C:4]([H:10])([H:11])[C-:3]=[O+:6]1)([H:8])[H:9])[H:7]"
O        1.65483671      -0.44190008      -0.75278039
C        0.90940187       0.16683151       0.20392791
C       -0.93492557       1.10387155       0.00050766
C       -1.19389864      -0.31400359      -0.56189108
C       -0.33741408      -0.57343973       0.65978153
O       -0.92277686       0.57086002       1.32656424
H        2.48890286       0.01703775      -0.87349110
H        1.45969299       0.67018398       1.00441511
H        0.18104816       1.46989606      -0.24913340
H       -2.24209896      -0.58961577      -0.46097460
H       -0.79255164      -0.57628380      -1.53881924
H       -0.27021685      -1.50343790       1.24189335
12
Frame=2 idx=001585 GeodesicLength=0.12926969744274494 rxn_smarts="[O:1]([C@:2]1([H:8])[C@:3]2([H:9])[C:4]([H:10])([H:11])[C@@:5]1([H:12])[O:6]2)[H:7]>>[O:1]([C:2]([C@:5]1([H:12])[C:4]([H:10])([H:11])[C-:3]=[O+:6]1)([H:8])[H:9])[H:7]"
O        1.65247738      -0.43512923      -0.76011138
C        0.90779243       0.17738543       0.19886534
C       -0.94242633       1.10119436       0.00251990
C       -1.20012339      -0.31580749      -0.55986430
C       -0.33378400      -0.57222943       0.65701476
O       -0.92658622       0.56844211       1.32628399
H        2.50247086      -0.00060867      -0.85601510
H        1.46175444       0.66694730       1.00546251
H        0.18880683       1.48154781      -0.25465291
H       -2.24576551      -0.60011306      -0.45704312
H       -0.80253310      -0.57015702      -1.54046263
H       -0.26208340      -1.50147210       1.23800294
12
Frame=3 idx=001585 GeodesicLength=0.19387789106923248 rxn_smarts="[O:1]([C@:2]1([H:8])[C@:3]2([H:9])[C:4]([H:10])([H:11])[C@@:5]1([H:12])[O:6]2)[H:7]>>[O:1]([C:2]([C@:5]1([H:12])[C:4]([H:10])([H:11])[C-:3]=[O+:6]1)([H:8])[H:9])[H:7]"
O        1.65019496      -0.42793018      -0.76743142
C        0.90615610       0.18818970       0.19387858
C       -0.95007726       1.09846263       0.00462984
C       -1.20621194      -0.31766248      -0.55785994
C       -0.33005577      -0.57094296       0.65417769
O       -0.93040987       0.56590490       1.32605891
H        2.51507313      -0.01916445      -0.83835481
H        1.46377319       0.66382782       1.00640053
H        0.19687569       1.49355573      -0.26014349
H       -2.24916396      -0.61088147      -0.45322261
H       -0.81241009      -0.56390685      -1.54209574
H       -0.25374418      -1.49945237       1.23396246
12
Frame=4 idx=001585 GeodesicLength=0.2584588487362019 rxn_smarts="[O:1]([C@:2]1([H:8])[C@:3]2([H:9])[C:4]([H:10])([H:11])[C@@:5]1([H:12])[O:6]2)[H:7]>>[O:1]([C:2]([C@:5]1([H:12])[C:4]([H:10])([H:11])[C-:3]=[O+:6]1)([H:8])[H:9])[H:7]"
O        1.64800652      -0.42034511      -0.77467162
C        0.90449646       0.19921989       0.18900901
C       -0.95785630       1.09566880       0.00682195
C       -1.21214242      -0.31957574      -0.55588440
C       -0.32623795      -0.56958381       0.65128922
O       -0.93425329       0.56325418       1.32587783
H        2.52657616      -0.03852749      -0.82064803
H        1.46575010       0.66082023       1.00725692
H        0.20531437       1.50591260      -0.26559555
H       -2.25227410      -0.62190406      -0.44954793
H       -0.82214708      -0.55755933      -1.54370601
H       -0.24523248      -1.49738017       1.22979861
12
Frame=5 idx=001585 GeodesicLength=0.3230053819056234 rxn_smarts="[O:1]([C@:2]1([H:8])[C@:3]2([H:9])[C:4]([H:10])([H:11])[C@@:5]1([H:12])[O:6]2)[H:7]>>[O:1]([C:2]([C@:5]1([H:12])[C:4]([H:10])([H:11])[C-:3]=[O+:6]1)([H:8])[H:9])[H:7]"
O        1.64594650      -0.41246310      -0.78174123
C        0.90281479       0.21043485       0.18430178
C       -0.96572725       1.09280036       0.00908045
C       -1.21788595      -0.32155554      -0.55394235
C       -0.32235517      -0.56814929       0.64837234
O       -0.93813584       0.56051064       1.32573105
H        2.53682769      -0.05850570      -0.80309833
H        1.46767543       0.65788595       1.00807527
H        0.21420840       1.51858701      -0.27099743
H       -2.25506784      -0.63316528      -0.44604779
H       -0.83168879      -0.55114445      -1.54528287
H       -0.23661196      -1.49523544       1.22554910
12
Frame=6 idx=001585 GeodesicLength=0.38756512885240696 rxn_smarts="[O:1]([C@:2]1([H:8])[C@:3]2([H:9])[C:4]([H:10])([H:11])[C@@:5]1([H:12])[O:6]2)[H:7]>>[O:1]([C:2]([C@:5]1([H:12])[C:4]([H:10])([H:11])[C-:3]=[O+:6]1)([H:8])[H:9])[H:7]"
O        1.64399634      -0.40420805      -0.78871183
C        0.90110735       0.22187260       0.17972707
C       -0.97372958       1.08985704       0.01141904
C       -1.22347459      -0.32360877      -0.55203511
C       -0.31839385      -0.56664076       0.64541626
O       -0.94204824       0.55765436       1.32563605
H        2.54592465      -0.07924763      -0.78555916
H        1.46956367       0.65507732       1.00882083
H        0.22355139       1.53162567      -0.27635919
H       -2.25757205      -0.64470167      -0.44270547
H       -0.84109249      -0.54464795      -1.54684396
H       -0.22783260      -1.49303214       1.22119546
12
Frame=7 idx=001585 GeodesicLength=0.4521024859437911 rxn_smarts="[O:1]([C@:2]1([H:8])[C@:3]2([H:9])[C:4]([H:10])([H:11])[C@@:5]1([H:12])[O:6]2)[H:7]>>[O:1]([C:2]([C@:5]1([H:12])[C:4]([H:10])([H:11])[C-:3]=[O+:6]1)([H:8])[H:9])[H:7]"
O        1.64215199      -0.39553828      -0.79560477
C        0.89936014       0.23354684       0.17527183
C       -0.98187926       1.08683163       0.01385031
C       -1.22889867      -0.32573737      -0.55015679
C       -0.31433599      -0.56505310       0.64240589
O       -0.94598009       0.55467676       1.32558642
H        2.55380520      -0.10084176      -0.76795568
H        1.47139499       0.65241816       1.00946540
H        0.23334758       1.54504338      -0.28168204
H       -2.25975775      -0.65651967      -0.43951222
H       -0.85035882      -0.53806337      -1.54837616
H       -0.21884933      -1.49076323       1.21670781
12
Frame=8 idx=001585 GeodesicLength=0.5166158077649715 rxn_smarts="[O:1]([C@:2]1([H:8])[C@:3]2([H:9])[C:4]([H:10])([H:11])[C@@:5]1([H:12])[O:6]2)[H:7]>>[O:1]([C:2]([C@:5]1([H:12])[C:4]([H:10])([H:11])[C-:3]=[O+:6]1)([H:8])[H:9])[H:7]"
O        1.64040654      -0.38648567      -0.80235568
C        0.89756627       0.24544826       0.17096848
C       -0.99015020       1.08370654       0.01635305
C       -1.23413502      -0.32794843      -0.54831210
C       -0.31020235      -0.56338447       0.63936578
O       -0.94994730       0.55157085       1.32557394
H        2.56038062      -0.12320054      -0.75044262
H        1.47316047       0.64989768       1.01003620
H        0.24367505       1.55884037      -0.28695244
H       -2.26159293      -0.66863267      -0.43649053
H       -0.85945266      -0.53139485      -1.54987486
H       -0.20970849      -1.48841706       1.21213078
12
Frame=9 idx=001585 GeodesicLength=0.5811267153214196 rxn_smarts="[O:1]([C@:2]1([H:8])[C@:3]2([H:9])[C:4]([H:10])([H:11])[C@@:5]1([H:12])[O:6]2)[H:7]>>[O:1]([C:2]([C@:5]1([H:12])[C:4]([H:10])([H:11])[C-:3]=[O+:6]1)([H:8])[H:9])[H:7]"
O        1.63881368      -0.37720260      -0.80885970
C        0.89574053       0.25750063       0.16687167
C       -0.99851209       1.08048209       0.01890271
C       -1.23918340      -0.33025666      -0.54651066
C       -0.30602605      -0.56164617       0.63632982
O       -0.95396632       0.54838108       1.32559103
H        2.56555048      -0.14598221      -0.73325540
H        1.47487621       0.64745606       1.01059358
H        0.25464967       1.57296843      -0.29217317
H       -2.26310241      -0.68099407      -0.43368155
H       -0.86834476      -0.52471253      -1.55133191
H       -0.20049554      -1.48599404       1.20752358
12
Frame=10 idx=001585 GeodesicLength=0.6456340136342581 rxn_smarts="[O:1]([C@:2]1([H:8])[C@:3]2([H:9])[C:4]([H:10])([H:11])[C@@:5]1([H:12])[O:6]2)[H:7]>>[O:1]([C:2]([C@:5]1([H:12])[C:4]([H:10])([H:11])[C-:3]=[O+:6]1)([H:8])[H:9])[H:7]"
O        1.63736703      -0.36774205      -0.81507467
C        0.89387801       0.26967629       0.16300559
C       -1.00695052       1.07714800       0.02148273
C       -1.24403828      -0.33267116      -0.54475412
C       -0.30182943      -0.55984139       0.63331873
O       -0.95805117       0.54511671       1.32563034
H        2.56929453      -0.16904125      -0.71651938
H        1.47653717       0.64507395       1.01115618
H        0.26635493       1.58741441      -0.29733217
H       -2.26428237      -0.69359592      -0.43109975
H       -0.87701717      -0.51804842      -1.55273801
H       -0.19126273      -1.48348918       1.20292454
12
Frame=11 idx=001585 GeodesicLength=0.710130247818355 rxn_smarts="[O:1]([C@:2]1([H:8])[C@:3]2([H:9])[C:4]([H:10])([H:11])[C@@:5]1([H:12])[O:6]2)[H:7]>>[O:1]([C:2]([C@:5]1([H:12])[C:4]([H:10])([H:11])[C-:3]=[O+:6]1)([H:8])[H:9])[H:7]"
O        1.63606556      -0.35819125      -0.82094979
C        0.89197380       0.28192933       0.15939191
C       -1.01544773       1.07369645       0.02407414
C       -1.24870195      -0.33520043      -0.54304142
C       -0.29763861      -0.55797876       0.63035435
O       -0.96220983       0.54179383       1.32568240
H        2.57160899      -0.19215309      -0.70035913
H        1.47813670       0.64271175       1.01174308
H        0.27888642       1.60214617      -0.30243553
H       -2.26514265      -0.70641164      -0.42875622
H       -0.88546107      -0.51144002      -1.55408047
H       -0.18206963      -1.48090234       1.19837668
12
Frame=12 idx=001585 GeodesicLength=0.7746112516570345 rxn_smarts="[O:1]([C@:2]1([H:8])[C@:3]2([H:9])[C:4]([H:10])([H:11])[C@@:5]1([H:12])[O:6]2)[H:7]>>[O:1]([C:2]([C@:5]1([H:12])[C:4]([H:10])([H:11])[C-:3]=[O+:6]1)([H:8])[H:9])[H:7]"
O        1.63490005      -0.34862722      -0.82645104
C        0.89002049       0.29422079       0.15604372
C       -1.02399548       1.07012009       0.02666276
C       -1.25318311      -0.33785259      -0.54137020
C       -0.29347843      -0.55606583       0.62745450
O       -0.96645202       0.53842646       1.32574121
H        2.57253034      -0.21511947      -0.68487121
H        1.47966642       0.64033743       1.01236524
H        0.29233603       1.61713529      -0.30748619
H       -2.26569888      -0.71941945      -0.42665520
H       -0.89367727      -0.50492200      -1.55534922
H       -0.17296813      -1.47823348       1.19391563
12
Frame=13 idx=001585 GeodesicLength=0.8390832047765617 rxn_smarts="[O:1]([C@:2]1([H:8])[C@:3]2([H:9])[C:4]([H:10])([H:11])[C@@:5]1([H:12])[O:6]2)[H:7]>>[O:1]([C:2]([C@:5]1([H:12])[C:4]([H:10])([H:11])[C-:3]=[O+:6]1)([H:8])[H:9])[H:7]"
O        1.63384589      -0.33906092      -0.83158938
C        0.88800373       0.30655421       0.15294761
C       -1.03261268       1.06641246       0.02924805
C       -1.25749741      -0.34063357      -0.53973731
C       -0.28935642      -0.55410231       0.62462009
O       -0.97078391       0.53501128       1.32580719
H        2.57212308      -0.23791881      -0.67003532
H        1.48111717       0.63795953       1.01300466
H        0.30676298       1.63238942      -0.31247956
H       -2.26595700      -0.73263845      -0.42478395
H       -0.90169212      -0.49849148      -1.55654597
H       -0.16395330      -1.47548135       1.18954388
12
Frame=14 idx=001585 GeodesicLength=0.9035475580809292 rxn_smarts="[O:1]([C@:2]1([H:8])[C@:3]2([H:9])[C:4]([H:10])([H:11])[C@@:5]1([H:12])[O:6]2)[H:7]>>[O:1]([C:2]([C@:5]1([H:12])[C:4]([H:10])([H:11])[C-:3]=[O+:6]1)([H:8])[H:9])[H:7]"
O        1.63289325      -0.32958318      -0.83633314
C        0.88591565       0.31888608       0.15011142
C       -1.04129404       1.06256689       0.03181544
C       -1.26166381      -0.34355154      -0.53813940
C       -0.28530191      -0.55209852       0.62186872
O       -0.97521636       0.53156332       1.32587670
H        2.57046088      -0.26031557      -0.65594336
H        1.48247930       0.63553922       1.01367202
H        0.32227723       1.64787171      -0.31742387
H       -2.26594712      -0.74604253      -0.42314079
H       -0.90951837      -0.49218635      -1.55766272
H       -0.15508471      -1.47264955       1.18529899
12
Frame=15 idx=001585 GeodesicLength=0.9680087871838134 rxn_smarts="[O:1]([C@:2]1([H:8])[C@:3]2([H:9])[C:4]([H:10])([H:11])[C@@:5]1([H:12])[O:6]2)[H:7]>>[O:1]([C:2]([C@:5]1([H:12])[C:4]([H:10])([H:11])[C-:3]=[O+:6]1)([H:8])[H:9])[H:7]"
O        1.63201523      -0.32018519      -0.84071070
C        0.88373812       0.33122924       0.14751165
C       -1.05006702       1.05857550       0.03436892
C       -1.26570120      -0.34661272      -0.53657177
C       -0.28131840      -0.55005222       0.61919469
O       -0.97975449       0.52807547       1.32595204
H        2.56761482      -0.28232111      -0.64253900
H        1.48373818       0.63308907       1.01434206
H        0.33894316       1.66359175      -0.32231290
H       -2.26567553      -0.75965479      -0.42170645
H       -0.91718952      -0.48600049      -1.55870182
H       -0.14634335      -1.46973450       1.18117327
12
Frame=16 idx=001585 GeodesicLength=1.0324629280151019 rxn_smarts="[O:1]([C@:2]1([H:8])[C@:3]2([H:9])[C:4]([H:10])([H:11])[C@@:5]1([H:12])[O:6]2)[H:7]>>[O:1]([C:2]([C@:5]1([H:12])[C:4]([H:10])([H:11])[C-:3]=[O+:6]1)([H:8])[H:9])[H:7]"
O        1.63119075      -0.31095328      -0.84469695
C        0.88145783       0.34354696       0.14514880
C       -1.05893457       1.05443169       0.03689692
C       -1.26963225      -0.34982537      -0.53502942
C       -0.27743505      -0.54797353       0.61661218
O       -0.98440971       0.52455958       1.32602988
H        2.56368365      -0.30371618      -0.62989456
H        1.48488044       0.63058123       1.01501441
H        0.35688104       1.67951324      -0.32714770
H       -2.26517358      -0.77345436      -0.42047478
H       -0.92472470      -0.47996722      -1.55965437
H       -0.13778384      -1.46674277       1.17719558
