12
Frame=0 idx=007886 GeodesicLength=0.0 rxn_smarts="[O:1]=[C:2]1[C@@:3]2([H:8])[N:4]([H:9])[C@:5]1([H:10])[C:6]([H:11])=[C:7]2[H:12]>>[O:1]([C@@:2]12[C@@:3]3([H:8])[N:4]1[C@:5]2([H:10])[C:6]([H:11])=[C:7]3[H:12])[H:9]"
O       -1.07169011      -1.92679773       0.89426229
C       -0.31739927      -0.89421592       0.61470002
C        0.55970546      -0.67994221      -0.59844915
N       -0.90424949      -0.29203869      -0.69596815
C       -0.72092768       0.56101922       0.54582496
C        0.48267623       1.38567090       0.27169289
C        1.28904051       0.60431410      -0.44842204
H        0.87978247      -1.51382851      -1.20745495
H       -1.50260833      -1.35726880      -0.20888733
H       -1.62264106       0.91139534       1.02798258
H        0.64960549       2.38980724       0.62912873
H        2.27870580       0.81188510      -0.82440985
12
Frame=1 idx=007886 GeodesicLength=0.08168589390860985 rxn_smarts="[O:1]=[C:2]1[C@@:3]2([H:8])[N:4]([H:9])[C@:5]1([H:10])[C:6]([H:11])=[C:7]2[H:12]>>[O:1]([C@@:2]12[C@@:3]3([H:8])[N:4]1[C@:5]2([H:10])[C:6]([H:11])=[C:7]3[H:12])[H:9]"
O       -1.06161711      -1.92596554       0.90448042
C       -0.31186483      -0.89350243       0.62016955
C        0.55795649      -0.67903340      -0.60050077
N       -0.90444288      -0.29261016      -0.69555603
C       -0.72212915       0.56140420       0.54322553
C        0.48377463       1.38493020       0.27364556
C        1.29008739       0.60361258      -0.44639101
H        0.88024506      -1.51101046      -1.21120182
H       -1.51952721      -1.36390805      -0.22065806
H       -1.62300383       0.91506473       1.02488975
H        0.65082883       2.38938207       0.63069674
H        2.27969259       0.81163628      -0.82279987
12
Frame=2 idx=007886 GeodesicLength=0.16326408600232267 rxn_smarts="[O:1]=[C:2]1[C@@:3]2([H:8])[N:4]([H:9])[C@:5]1([H:10])[C:6]([H:11])=[C:7]2[H:12]>>[O:1]([C@@:2]12[C@@:3]3([H:8])[N:4]1[C@:5]2([H:10])[C:6]([H:11])=[C:7]3[H:12])[H:9]"
O       -1.05159683      -1.92502135       0.91451719
C       -0.30606357      -0.89276086       0.62590950
C        0.55628757      -0.67817935      -0.60236340
N       -0.90457460      -0.29330340      -0.69494347
C       -0.72322505       0.56171001       0.54079052
C        0.48485388       1.38421505       0.27555295
C        1.29111767       0.60293396      -0.44440697
H        0.88078009      -1.50823382      -1.21476613
H       -1.53692542      -1.37049637      -0.23302165
H       -1.62325820       0.91865911       1.02194269
H        0.65198956       2.38902213       0.63212652
H        2.28061491       0.81145488      -0.82133773
12
Frame=3 idx=007886 GeodesicLength=0.24477572190566815 rxn_smarts="[O:1]=[C:2]1[C@@:3]2([H:8])[N:4]([H:9])[C@:5]1([H:10])[C:6]([H:11])=[C:7]2[H:12]>>[O:1]([C@@:2]12[C@@:3]3([H:8])[N:4]1[C@:5]2([H:10])[C:6]([H:11])=[C:7]3[H:12])[H:9]"
O       -1.04161513      -1.92396839       0.92438991
C       -0.29998048      -0.89199131       0.63193419
C        0.55470145      -0.67738503      -0.60402844
N       -0.90464308      -0.29412815      -0.69411528
C       -0.72421077       0.56193022       0.53853189
C        0.48591414       1.38352614       0.27741424
C        1.29213040       0.60227983      -0.44247291
H        0.88138752      -1.50550301      -1.21814096
H       -1.55483610      -1.37700771      -0.24604299
H       -1.62339963       0.92217032       1.01915424
H        0.65307948       2.38873589       0.63340065
H        2.28147220       0.81134122      -0.82002454
12
Frame=4 idx=007886 GeodesicLength=0.3262421222031415 rxn_smarts="[O:1]=[C:2]1[C@@:3]2([H:8])[N:4]([H:9])[C@:5]1([H:10])[C:6]([H:11])=[C:7]2[H:12]>>[O:1]([C@@:2]12[C@@:3]3([H:8])[N:4]1[C@:5]2([H:10])[C:6]([H:11])=[C:7]3[H:12])[H:9]"
O       -1.03165871      -1.92281107       0.93411819
C       -0.29360118      -0.89119285       0.63825898
C        0.55320146      -0.67665623      -0.60548532
N       -0.90464697      -0.29509682      -0.69305581
C       -0.72508254       0.56205907       0.53646021
C        0.48695375       1.38286527       0.27922548
C        1.29312421       0.60165174      -0.44059205
H        0.88206932      -1.50282451      -1.22131545
H       -1.57328857      -1.38341132      -0.25978993
H       -1.62342500       0.92559102       1.01653478
H        0.65409421       2.38852683       0.63450992
H        2.28226002       0.81129887      -0.81886898
12
Frame=5 idx=007886 GeodesicLength=0.407692360758971 rxn_smarts="[O:1]=[C:2]1[C@@:3]2([H:8])[N:4]([H:9])[C@:5]1([H:10])[C:6]([H:11])=[C:7]2[H:12]>>[O:1]([C@@:2]12[C@@:3]3([H:8])[N:4]1[C@:5]2([H:10])[C:6]([H:11])=[C:7]3[H:12])[H:9]"
O       -1.02171633      -1.92155203       0.94372039
C       -0.28690826      -0.89036398       0.64490343
C        0.55179307      -0.67600027      -0.60671972
N       -0.90458268      -0.29622408      -0.69174724
C       -0.72583614       0.56208983       0.53458732
C        0.48797173       1.38223382       0.28098445
C        1.29409843       0.60105077      -0.43876585
H        0.88283011      -1.50020744      -1.22427382
H       -1.59231862      -1.38967461      -0.27433965
H       -1.62333129       0.92891336       1.01409451
H        0.65502995       2.38839863       0.63544724
H        2.28297003       0.81133599      -0.81789106
12
Frame=6 idx=007886 GeodesicLength=0.48918963101326857 rxn_smarts="[O:1]=[C:2]1[C@@:3]2([H:8])[N:4]([H:9])[C@:5]1([H:10])[C:6]([H:11])=[C:7]2[H:12]>>[O:1]([C@@:2]12[C@@:3]3([H:8])[N:4]1[C@:5]2([H:10])[C:6]([H:11])=[C:7]3[H:12])[H:9]"
O       -1.01175358      -1.92019607       0.95323827
C       -0.27988536      -0.88950369       0.65188367
C        0.55047856      -0.67542468      -0.60772119
N       -0.90444991      -0.29752542      -0.69017172
C       -0.72646869       0.56201455       0.53292459
C        0.48896365       1.38163312       0.28268424
C        1.29504896       0.60047821      -0.43700082
H        0.88367006      -1.49766070      -1.22700457
H       -1.61196484      -1.39574661      -0.28978784
H       -1.62311668       0.93212613       1.01184680
H        0.65588031       2.38835268       0.63620236
H        2.28359751       0.81145248      -0.81709381
12
Frame=7 idx=007886 GeodesicLength=0.570726999964251 rxn_smarts="[O:1]=[C:2]1[C@@:3]2([H:8])[N:4]([H:9])[C@:5]1([H:10])[C:6]([H:11])=[C:7]2[H:12]>>[O:1]([C@@:2]12[C@@:3]3([H:8])[N:4]1[C@:5]2([H:10])[C:6]([H:11])=[C:7]3[H:12])[H:9]"
O       -1.00175463      -1.91874861       0.96269864
C       -0.27251420      -0.88861049       0.65921890
C        0.54926219      -0.67493737      -0.60847612
N       -0.90424678      -0.29901821      -0.68830970
C       -0.72697651       0.56182518       0.53148451
C        0.48992717       1.38106402       0.28432172
C        1.29597318       0.59993521      -0.43530062
H        0.88459252      -1.49519372      -1.22949252
H       -1.63225824      -1.40158225      -0.30621931
H       -1.62277783       0.93521978       1.00980277
H        0.65663915       2.38839249       0.63676582
H        2.28413398       0.81165397      -0.81649409
12
Frame=8 idx=007886 GeodesicLength=0.652350800351054 rxn_smarts="[O:1]=[C:2]1[C@@:3]2([H:8])[N:4]([H:9])[C@:5]1([H:10])[C:6]([H:11])=[C:7]2[H:12]>>[O:1]([C@@:2]12[C@@:3]3([H:8])[N:4]1[C@:5]2([H:10])[C:6]([H:11])=[C:7]3[H:12])[H:9]"
O       -0.99168148      -1.91721438       0.97214762
C       -0.26477697      -0.88768402       0.66692897
C        0.54814683      -0.67454846      -0.60896982
N       -0.90397241      -0.30072102      -0.68613933
C       -0.72735637       0.56151160       0.53028193
C        0.49085896       1.38052518       0.28589441
C        1.29686775       0.59942039      -0.43366748
H        0.88559876      -1.49281881      -1.23172154
H       -1.65323979      -1.40711843      -0.32374880
H       -1.62231192       0.93818131       1.00797854
H        0.65729586       2.38852315       0.63712208
H        2.28457079       0.81194349      -0.81610657
12
Frame=9 idx=007886 GeodesicLength=0.7341653846887469 rxn_smarts="[O:1]=[C:2]1[C@@:3]2([H:8])[N:4]([H:9])[C@:5]1([H:10])[C:6]([H:11])=[C:7]2[H:12]>>[O:1]([C@@:2]12[C@@:3]3([H:8])[N:4]1[C@:5]2([H:10])[C:6]([H:11])=[C:7]3[H:12])[H:9]"
O       -0.98144013      -1.91559102       0.98168770
C       -0.25666942      -0.88672573       0.67501967
C        0.54712876      -0.67426896      -0.60919549
N       -0.90363094      -0.30264924      -0.68364849
C       -0.72761231       0.56106300       0.52932424
C        0.49175034       1.38001281       0.28739662
C        1.29772359       0.59893038      -0.43210810
H        0.88668222      -1.49054924      -1.23368162
H       -1.67495283      -1.41226786      -0.34251903
H       -1.62172410       0.94099524       1.00638355
H        0.65784348       2.38873753       0.63727035
H        2.28490135       0.81231310      -0.81592940
12
Frame=10 idx=007886 GeodesicLength=0.8160744220827673 rxn_smarts="[O:1]=[C:2]1[C@@:3]2([H:8])[N:4]([H:9])[C@:5]1([H:10])[C:6]([H:11])=[C:7]2[H:12]>>[O:1]([C@@:2]12[C@@:3]3([H:8])[N:4]1[C@:5]2([H:10])[C:6]([H:11])=[C:7]3[H:12])[H:9]"
O       -0.97104472      -1.91389398       0.99132094
C       -0.24815156      -0.88573115       0.68352999
C        0.54621705      -0.67410998      -0.60912986
N       -0.90321937      -0.30483577      -0.68079743
C       -0.72773412       0.56046716       0.52863514
C        0.49259566       1.37953128       0.28881705
C        1.29853559       0.59846915      -0.43063259
H        0.88785154      -1.48839947      -1.23534694
H       -1.69742420      -1.41696090      -0.36263593
H       -1.62100463       0.94364558       1.00504531
H        0.65826680       2.38904609       0.63718203
H        2.28511197       0.81277199      -0.81598771
12
Frame=11 idx=007886 GeodesicLength=0.8980503141099648 rxn_smarts="[O:1]=[C:2]1[C@@:3]2([H:8])[N:4]([H:9])[C@:5]1([H:10])[C:6]([H:11])=[C:7]2[H:12]>>[O:1]([C@@:2]12[C@@:3]3([H:8])[N:4]1[C@:5]2([H:10])[C:6]([H:11])=[C:7]3[H:12])[H:9]"
O       -0.96045516      -1.91213027       1.00109927
C       -0.23919943      -0.88469826       0.69248638
C        0.54541480      -0.67408487      -0.60875369
N       -0.90273843      -0.30730888      -0.67755588
C       -0.72771862       0.55971113       0.52823279
C        0.49338743       1.37907955       0.29014879
C        1.29929589       0.59803541      -0.42924782
H        0.88910890      -1.48638660      -1.23669446
H       -1.72068523      -1.42110767      -0.38423555
H       -1.62015003       0.94611584       1.00398365
H        0.65855217       2.38945085       0.63684005
H        2.28518771       0.81332378      -0.81630352
12
Frame=12 idx=007886 GeodesicLength=0.9800661294034704 rxn_smarts="[O:1]=[C:2]1[C@@:3]2([H:8])[N:4]([H:9])[C@:5]1([H:10])[C:6]([H:11])=[C:7]2[H:12]>>[O:1]([C@@:2]12[C@@:3]3([H:8])[N:4]1[C@:5]2([H:10])[C:6]([H:11])=[C:7]3[H:12])[H:9]"
O       -0.94962195      -1.91030779       1.01108676
C       -0.22978790      -0.88362603       0.70191474
C        0.54472477      -0.67420819      -0.60804800
N       -0.90218884      -0.31009880      -0.67389164
C       -0.72756232       0.55877962       0.52813664
C        0.49411750       1.37865422       0.29138597
C        1.29999588       0.59762664      -0.42796097
H        0.89045558      -1.48452856      -1.23770126
H       -1.74476874      -1.42460289      -0.40746848
H       -1.61915793       0.94838582       1.00322259
H        0.65868152       2.38995647       0.63622046
H        2.28511242       0.81396949      -0.81689681
12
Frame=13 idx=007886 GeodesicLength=1.0621009364478737 rxn_smarts="[O:1]=[C:2]1[C@@:3]2([H:8])[N:4]([H:9])[C@:5]1([H:10])[C:6]([H:11])=[C:7]2[H:12]>>[O:1]([C@@:2]12[C@@:3]3([H:8])[N:4]1[C@:5]2([H:10])[C:6]([H:11])=[C:7]3[H:12])[H:9]"
O       -0.93847331      -1.90843256       1.02136957
C       -0.21989381      -0.88251460       0.71184147
C        0.54414739      -0.67449799      -0.60699191
N       -0.90157391      -0.31323994      -0.66976993
C       -0.72726430       0.55765460       0.52836799
C        0.49477360       1.37825023       0.29252059
C        1.30062306       0.59723731      -0.42677963
H        0.89189112      -1.48284890      -1.23834116
H       -1.76970237      -1.42731172      -0.43251371
H       -1.61802709       0.95043170       1.00278791
H        0.65863338       2.39056305       0.63529956
H        2.28486624       0.81470880      -0.81779075
12
Frame=14 idx=007886 GeodesicLength=1.1441054231850891 rxn_smarts="[O:1]=[C:2]1[C@@:3]2([H:8])[N:4]([H:9])[C@:5]1([H:10])[C:6]([H:11])=[C:7]2[H:12]>>[O:1]([C@@:2]12[C@@:3]3([H:8])[N:4]1[C@:5]2([H:10])[C:6]([H:11])=[C:7]3[H:12])[H:9]"
O       -0.92695869      -1.90651956       1.03202088
C       -0.20947853      -0.88136181       0.72230622
C        0.54368786      -0.67497439      -0.60555763
N       -0.90089464      -0.31677799      -0.66514206
C       -0.72681891       0.55631494       0.52895505
C        0.49534251       1.37786422       0.29354116
C        1.30116407       0.59686515      -0.42571650
H        0.89341913      -1.48137345      -1.23858000
H       -1.79551336      -1.42908217      -0.45956627
H       -1.61675219       0.95222518       1.00271503
H        0.65838037       2.39127596       0.63404068
H        2.28442238       0.81554394      -0.81901655
12
Frame=15 idx=007886 GeodesicLength=1.2260300709335663 rxn_smarts="[O:1]=[C:2]1[C@@:3]2([H:8])[N:4]([H:9])[C@:5]1([H:10])[C:6]([H:11])=[C:7]2[H:12]>>[O:1]([C@@:2]12[C@@:3]3([H:8])[N:4]1[C@:5]2([H:10])[C:6]([H:11])=[C:7]3[H:12])[H:9]"
O       -0.91500046      -1.90457957       1.04313959
C       -0.19850955      -0.88016728       0.73334580
C        0.54334802      -0.67566151      -0.60371622
N       -0.90015423      -0.32076126      -0.65995965
C       -0.72622426       0.55473673       0.52992576
C        0.49580745       1.37748856       0.29443719
C        1.30160239       0.59650170      -0.42478069
H        0.89504154      -1.48013350      -1.23838060
H       -1.82222094      -1.42973245      -0.48884519
H       -1.61533135       0.95373504       1.00303830
H        0.65789180       2.39209593       0.63240977
H        2.28374959       0.81647762      -0.82061406
12
Frame=16 idx=007886 GeodesicLength=1.3078256319731314 rxn_smarts="[O:1]=[C:2]1[C@@:3]2([H:8])[N:4]([H:9])[C@:5]1([H:10])[C:6]([H:11])=[C:7]2[H:12]>>[O:1]([C@@:2]12[C@@:3]3([H:8])[N:4]1[C@:5]2([H:10])[C:6]([H:11])=[C:7]3[H:12])[H:9]"
O       -0.90251142      -1.90262836       1.05484260
C       -0.18694792      -0.87893142       0.74500536
C        0.54313086      -0.67658870      -0.60143208
N       -0.89935591      -0.32524911      -0.65416305
C       -0.72547779       0.55289075       0.53131406
C        0.49614829       1.37711348       0.29519670
C        1.30191820       0.59613664      -0.42398302
H        0.89676089      -1.47916806      -1.23769703
H       -1.84983589      -1.42903476      -0.52061050
H       -1.61376270       0.95492277       1.00380026
H        0.65712804       2.39302289       0.63036217
H        2.28280535       0.81751388      -0.82263547
