16
Frame=0 idx=010975 GeodesicLength=0.0 rxn_smarts="[C:1]([C@@:2]1([H:11])[N:3]2[C:4]([H:12])([H:13])[C:5]1([O:6][H:14])[C:7]2([H:15])[H:16])([H:8])([H:9])[H:10]>>[C:1]([C@@:2]1([H:11])[N:3]([H:12])[C:7]([H:15])([H:16])[C@:5]1([C:4][H:13])[O:6][H:14])([H:8])([H:9])[H:10]"
C        1.82510390       0.13947623       0.70831517
C        0.75324753      -0.08779327      -0.32485014
N       -0.10093687      -1.32929014      -0.19133500
C       -1.04967162      -0.09833424       1.08042044
C       -0.65166011       0.54463388      -0.26011609
O       -1.00787242       1.85336591      -0.52428036
C       -1.09989937      -0.63480073      -1.10512432
H        2.59369585      -0.63132653       0.62520290
H        2.30256726       1.10534761       0.53107741
H        1.41934933       0.13118172       1.71810399
H        1.17045167      -0.08395746      -1.33536129
H       -0.36269803      -1.21879298       0.96997678
H       -2.10778962      -0.39946390       1.01272106
H       -0.80253005       2.38616751       0.24873556
H       -0.75242489      -0.70237473      -2.14195067
H       -2.12893258      -0.97403888      -1.01153547
16
Frame=1 idx=010975 GeodesicLength=0.07827326506488941 rxn_smarts="[C:1]([C@@:2]1([H:11])[N:3]2[C:4]([H:12])([H:13])[C:5]1([O:6][H:14])[C:7]2([H:15])[H:16])([H:8])([H:9])[H:10]>>[C:1]([C@@:2]1([H:11])[N:3]([H:12])[C:7]([H:15])([H:16])[C@:5]1([C:4][H:13])[O:6][H:14])([H:8])([H:9])[H:10]"
C        1.82288043       0.13900734       0.70889258
C        0.75407253      -0.08781415      -0.32778601
N       -0.09755441      -1.33052913      -0.19422262
C       -1.05582461      -0.08570549       1.07493217
C       -0.65154687       0.54033665      -0.26723373
O       -1.02401478       1.84838973      -0.51401815
C       -1.09906991      -0.64223882      -1.10774711
H        2.59821847      -0.62429670       0.61884918
H        2.29087819       1.11155917       0.54363753
H        1.42059953       0.11465828       1.71996098
H        1.17628730      -0.07237703      -1.33617728
H       -0.35635909      -1.22717288       0.97956628
H       -2.11659487      -0.37736529       1.01618762
H       -0.77441361       2.38474668       0.24337388
H       -0.76242529      -0.70111139      -2.14821759
H       -2.12513301      -0.99008699      -1.00999771
16
Frame=2 idx=010975 GeodesicLength=0.15649038021370912 rxn_smarts="[C:1]([C@@:2]1([H:11])[N:3]2[C:4]([H:12])([H:13])[C:5]1([O:6][H:14])[C:7]2([H:15])[H:16])([H:8])([H:9])[H:10]>>[C:1]([C@@:2]1([H:11])[N:3]([H:12])[C:7]([H:15])([H:16])[C@:5]1([C:4][H:13])[O:6][H:14])([H:8])([H:9])[H:10]"
C        1.82075992       0.13829440       0.70958071
C        0.75499503      -0.08778941      -0.33067139
N       -0.09406287      -1.33174502      -0.19735044
C       -1.06180317      -0.07313235       1.06948122
C       -0.65131603       0.53615061      -0.27407562
O       -1.03925913       1.84340832      -0.50360071
C       -1.09823735      -0.64941190      -1.11024585
H        2.60269988      -0.61746575       0.61265045
H        2.27931218       1.11726011       0.55647386
H        1.42200583       0.09793040       1.72168720
H        1.18216120      -0.06047092      -1.33680341
H       -0.34950803      -1.23608421       0.98914433
H       -2.12516423      -0.35494649       1.01969116
H       -0.74844052       2.38319440       0.23648079
H       -0.77288019      -0.69945322      -2.15431757
H       -2.12126253      -1.00573897      -1.00812474
16
Frame=3 idx=010975 GeodesicLength=0.23463126634890918 rxn_smarts="[C:1]([C@@:2]1([H:11])[N:3]2[C:4]([H:12])([H:13])[C:5]1([O:6][H:14])[C:7]2([H:15])[H:16])([H:8])([H:9])[H:10]>>[C:1]([C@@:2]1([H:11])[N:3]([H:12])[C:7]([H:15])([H:16])[C@:5]1([C:4][H:13])[O:6][H:14])([H:8])([H:9])[H:10]"
C        1.81872276       0.13736657       0.71037291
C        0.75600206      -0.08771547      -0.33351206
N       -0.09046107      -1.33294392      -0.20072532
C       -1.06763069      -0.06062280       1.06406028
C       -0.65098922       0.53206304      -0.28065490
O       -1.05361093       1.83843291      -0.49312597
C       -1.09740483      -0.65634050      -1.11263693
H        2.60709747      -0.61084210       0.60666662
H        2.26789491       1.12244962       0.56951336
H        1.42352647       0.08111317       1.72327485
H        1.18806721      -0.04825489      -1.33723349
H       -0.34212438      -1.24555878       0.99870161
H       -2.13350326      -0.33224598       1.02322293
H       -0.72447236       2.38155301       0.22827214
H       -0.78378842      -0.69743646      -2.16024917
H       -2.11732571      -1.02101741      -1.00594686
16
Frame=4 idx=010975 GeodesicLength=0.3126644337543576 rxn_smarts="[C:1]([C@@:2]1([H:11])[N:3]2[C:4]([H:12])([H:13])[C:5]1([O:6][H:14])[C:7]2([H:15])[H:16])([H:8])([H:9])[H:10]>>[C:1]([C@@:2]1([H:11])[N:3]([H:12])[C:7]([H:15])([H:16])[C@:5]1([C:4][H:13])[O:6][H:14])([H:8])([H:9])[H:10]"
C        1.81675447       0.13625134       0.71126541
C        0.75708259      -0.08758916      -0.33631464
N       -0.08674965      -1.33413460      -0.20435277
C       -1.07332596      -0.04818345       1.05866834
C       -0.65058382       0.52806268      -0.28698617
O       -1.06707353       1.83348861      -0.48268441
C       -1.09657610      -0.66304779      -1.11494199
H        2.61137386      -0.60444105       0.60095281
H        2.25665619       1.12713531       0.58268507
H        1.42512914       0.06431461       1.72473092
H        1.19399860      -0.03574647      -1.33746604
H       -0.33420042      -1.25563104       1.00822921
H       -2.14161278      -0.30929897       1.02678514
H       -0.70239171       2.37987183       0.21895146
H       -0.79515135      -0.69510014      -2.16602379
H       -2.11332953      -1.03595172      -1.00349855
16
Frame=5 idx=010975 GeodesicLength=0.39070574615129383 rxn_smarts="[C:1]([C@@:2]1([H:11])[N:3]2[C:4]([H:12])([H:13])[C:5]1([O:6][H:14])[C:7]2([H:15])[H:16])([H:8])([H:9])[H:10]>>[C:1]([C@@:2]1([H:11])[N:3]([H:12])[C:7]([H:15])([H:16])[C@:5]1([C:4][H:13])[O:6][H:14])([H:8])([H:9])[H:10]"
C        1.81482859       0.13497292       0.71224496
C        0.75821704      -0.08740560      -0.33907095
N       -0.08293580      -1.33529878      -0.20822928
C       -1.07892875      -0.03578649       1.05326758
C       -0.65012376       0.52415092      -0.29307627
O       -1.07968745       1.82852731      -0.47235559
C       -1.09575757      -0.66951779      -1.11714201
H        2.61548991      -0.59826071       0.59555552
H        2.24561011       1.13130403       0.59592183
H        1.42675512       0.04762778       1.72601660
H        1.19994712      -0.02295762      -1.33747079
H       -0.32562748      -1.26636309       1.01771221
H       -2.14950872      -0.28612431       1.03030446
H       -0.68205037       2.37807369       0.20866203
H       -0.80695998      -0.69243976      -2.17156103
H       -2.10926801      -1.05050251      -1.00077927
16
Frame=6 idx=010975 GeodesicLength=0.46870430358528825 rxn_smarts="[C:1]([C@@:2]1([H:11])[N:3]2[C:4]([H:12])([H:13])[C:5]1([O:6][H:14])[C:7]2([H:15])[H:16])([H:8])([H:9])[H:10]>>[C:1]([C@@:2]1([H:11])[N:3]([H:12])[C:7]([H:15])([H:16])[C@:5]1([C:4][H:13])[O:6][H:14])([H:8])([H:9])[H:10]"
C        1.81293837       0.13355206       0.71332043
C        0.75940239      -0.08716233      -0.34179221
N       -0.07901954      -1.33645747      -0.21236385
C       -1.08445236      -0.02343793       1.04788373
C       -0.64961682       0.52031433      -0.29894306
O       -1.09144482       1.82362605      -0.46221345
C       -1.09495534      -0.67579610      -1.11927641
H        2.61943612      -0.59230889       0.59048659
H        2.23476238       1.13500356       0.60920303
H        1.42839541       0.03109089       1.72718556
H        1.20590875      -0.00990293      -1.33726307
H       -0.31642174      -1.27779649       1.02713402
H       -2.15720204      -0.26273473       1.03383915
H       -0.66334449       2.37628215       0.19755583
H       -0.81922558      -0.68952397      -2.17692866
H       -2.10516069      -1.06474820      -0.99782762
16
Frame=7 idx=010975 GeodesicLength=0.5466521634114304 rxn_smarts="[C:1]([C@@:2]1([H:11])[N:3]2[C:4]([H:12])([H:13])[C:5]1([O:6][H:14])[C:7]2([H:15])[H:16])([H:8])([H:9])[H:10]>>[C:1]([C@@:2]1([H:11])[N:3]([H:12])[C:7]([H:15])([H:16])[C@:5]1([C:4][H:13])[O:6][H:14])([H:8])([H:9])[H:10]"
C        1.81106616       0.13200309       0.71448617
C        0.76062832      -0.08685930      -0.34447706
N       -0.07500018      -1.33760461      -0.21675329
C       -1.08991978      -0.01112339       1.04249828
C       -0.64907700       0.51654443      -0.30459894
O       -1.10237947       1.81878730      -0.45232208
C       -1.09417175      -0.68189113      -1.12134477
H        2.62320846      -0.58656794       0.58574653
H        2.22408963       1.13825265       0.62251447
H        1.43002329       0.01472058       1.72823289
H        1.21187535       0.00340724      -1.33682628
H       -0.30653927      -1.28995779       1.03648474
H       -2.16470636      -0.23912057       1.03736371
H       -0.64614420       2.37448591       0.18574430
H       -0.83194861      -0.68637809      -2.18209940
H       -2.10100460      -1.07869837      -0.99464928
16
Frame=8 idx=010975 GeodesicLength=0.6246091130515782 rxn_smarts="[C:1]([C@@:2]1([H:11])[N:3]2[C:4]([H:12])([H:13])[C:5]1([O:6][H:14])[C:7]2([H:15])[H:16])([H:8])([H:9])[H:10]>>[C:1]([C@@:2]1([H:11])[N:3]([H:12])[C:7]([H:15])([H:16])[C@:5]1([C:4][H:13])[O:6][H:14])([H:8])([H:9])[H:10]"
C        1.80921699       0.13035043       0.71575155
C        0.76189479      -0.08649239      -0.34713160
N       -0.07088563      -1.33874277      -0.22140071
C       -1.09536430       0.00116817       1.03711490
C       -0.64852128       0.51283329      -0.31006365
O       -1.11251121       1.81402298      -0.44273556
C       -1.09342975      -0.68782277      -1.12337307
H        2.62682712      -0.58101067       0.58134312
H        2.21360026       1.14109157       0.63585833
H        1.43163510      -0.00146290       1.72919126
H        1.21785273       0.01697027      -1.33617095
H       -0.29595421      -1.30289752       1.04578324
H       -2.17205922      -0.21528341       1.04088505
H       -0.63030988       2.37269845       0.17332393
H       -0.84515325      -0.68303722      -2.18710621
H       -2.09683826      -1.09238551      -0.99126962
16
Frame=9 idx=010975 GeodesicLength=0.7024733428084006 rxn_smarts="[C:1]([C@@:2]1([H:11])[N:3]2[C:4]([H:12])([H:13])[C:5]1([O:6][H:14])[C:7]2([H:15])[H:16])([H:8])([H:9])[H:10]>>[C:1]([C@@:2]1([H:11])[N:3]([H:12])[C:7]([H:15])([H:16])[C@:5]1([C:4][H:13])[O:6][H:14])([H:8])([H:9])[H:10]"
C        1.80732000       0.12858425       0.71708634
C        0.76316279      -0.08607053      -0.34973874
N       -0.06668766      -1.33986485      -0.22628766
C       -1.10077036       0.01349235       1.03168609
C       -0.64793483       0.50919597      -0.31532962
O       -1.12190918       1.80932791      -0.43356928
C       -1.09268955      -0.69357161      -1.12528824
H        2.63021432      -0.57566845       0.57727529
H        2.20321453       1.14350210       0.64917901
H        1.43314775      -0.01744674       1.72999607
H        1.22380579       0.03075352      -1.33523512
H       -0.28454818      -1.31669705       1.05488069
H       -2.17919119      -0.19116441       1.04431623
H       -0.61580512       2.37088787       0.16041490
H       -0.85878120      -0.67948986      -2.19175925
H       -2.09254792      -1.10577047      -0.98762670
16
Frame=10 idx=010975 GeodesicLength=0.7803231244862885 rxn_smarts="[C:1]([C@@:2]1([H:11])[N:3]2[C:4]([H:12])([H:13])[C:5]1([O:6][H:14])[C:7]2([H:15])[H:16])([H:8])([H:9])[H:10]>>[C:1]([C@@:2]1([H:11])[N:3]([H:12])[C:7]([H:15])([H:16])[C@:5]1([C:4][H:13])[O:6][H:14])([H:8])([H:9])[H:10]"
C        1.80541679       0.12673967       0.71852248
C        0.76445805      -0.08558459      -0.35231819
N       -0.06239606      -1.34097842      -0.23143121
C       -1.10618894       0.02582320       1.02624348
C       -0.64735025       0.50560201      -0.32043095
O       -1.13056550       1.80474533      -0.42478922
C       -1.09200043      -0.69918809      -1.12717603
H        2.63345664      -0.57045788       0.57351857
H        2.19294104       1.14556572       0.66255170
H        1.43461590      -0.03325959       1.73073383
H        1.22975545       0.04477794      -1.33406574
H       -0.27237873      -1.33135688       1.06390302
H       -2.18619362      -0.16677932       1.04773074
H       -0.60241207       2.36911019       0.14703831
H       -0.87290649      -0.67581301      -2.19623836
H       -2.08825178      -1.11894628      -0.98379243
16
Frame=11 idx=010975 GeodesicLength=0.8581098365367891 rxn_smarts="[C:1]([C@@:2]1([H:11])[N:3]2[C:4]([H:12])([H:13])[C:5]1([O:6][H:14])[C:7]2([H:15])[H:16])([H:8])([H:9])[H:10]>>[C:1]([C@@:2]1([H:11])[N:3]([H:12])[C:7]([H:15])([H:16])[C@:5]1([C:4][H:13])[O:6][H:14])([H:8])([H:9])[H:10]"
C        1.80347548       0.12481127       0.72005575
C        0.76576446      -0.08503844      -0.35486322
N       -0.05801320      -1.34207724      -0.23682495
C       -1.11162051       0.03819238       1.02076250
C       -0.64676742       0.50205236      -0.32537308
O       -1.13853857       1.80027713      -0.41645854
C       -1.09135506      -0.70467179      -1.12900846
H        2.63655009      -0.56535704       0.57004987
H        2.18270178       1.14729391       0.67600458
H        1.43601169      -0.04895182       1.73138703
H        1.23568596       0.05904252      -1.33263094
H       -0.25936641      -1.34692514       1.07278355
H       -2.19305149      -0.14207098       1.05108988
H       -0.59003896       2.36735154       0.13322177
H       -0.88752963      -0.67201476      -2.20046230
H       -2.08390821      -1.13191389      -0.97973343
16
Frame=12 idx=010975 GeodesicLength=0.9358748656143415 rxn_smarts="[C:1]([C@@:2]1([H:11])[N:3]2[C:4]([H:12])([H:13])[C:5]1([O:6][H:14])[C:7]2([H:15])[H:16])([H:8])([H:9])[H:10]>>[C:1]([C@@:2]1([H:11])[N:3]([H:12])[C:7]([H:15])([H:16])[C@:5]1([C:4][H:13])[O:6][H:14])([H:8])([H:9])[H:10]"
C        1.80147437       0.12280848       0.72169082
C        0.76707354      -0.08443300      -0.35737442
N       -0.05354614      -1.34316544      -0.24246786
C       -1.11707664       0.05062847       1.01523409
C       -0.64619012       0.49854626      -0.33017133
O       -1.14584830       1.79593875      -0.40861677
C       -1.09076121      -0.71003588      -1.13078267
H        2.63950804      -0.56030921       0.56683860
H        2.17241676       1.14872695       0.68959648
H        1.43732602      -0.06458652       1.73195915
H        1.24158872       0.07355096      -1.33092310
H       -0.24545829      -1.36348097       1.08150547
H       -2.19976666      -0.11699329       1.05438534
H       -0.57855408       2.36562119       0.11897169
H       -0.90267325      -0.66811534      -2.20441308
H       -2.07951276      -1.14470139      -0.97543241
16
Frame=13 idx=010975 GeodesicLength=1.0136260002590762 rxn_smarts="[C:1]([C@@:2]1([H:11])[N:3]2[C:4]([H:12])([H:13])[C:5]1([O:6][H:14])[C:7]2([H:15])[H:16])([H:8])([H:9])[H:10]>>[C:1]([C@@:2]1([H:11])[N:3]([H:12])[C:7]([H:15])([H:16])[C@:5]1([C:4][H:13])[O:6][H:14])([H:8])([H:9])[H:10]"
C        1.79940307       0.12074674       0.72343359
C        0.76837548      -0.08376216      -0.35984473
N       -0.04900618      -1.34423291      -0.24836116
C       -1.12258513       0.06315802       1.00965596
C       -0.64562887       0.49508761      -0.33482464
O       -1.15254197       1.79174426      -0.40128099
C       -1.09022960      -0.71527819      -1.13249772
H        2.64229709      -0.55534621       0.56393549
H        2.16212981       1.14986037       0.70327085
H        1.43852125      -0.08007954       1.73246675
H        1.24745965       0.08828469      -1.32892712
H       -0.23054785      -1.38111304       1.08999997
H       -2.20635239      -0.09155834       1.05760671
H       -0.56788615       2.36392111       0.10433325
H       -0.91833250      -0.66412981      -2.20806934
H       -2.07507573      -1.15730260      -0.97089687
16
Frame=14 idx=010975 GeodesicLength=1.0913641625271375 rxn_smarts="[C:1]([C@@:2]1([H:11])[N:3]2[C:4]([H:12])([H:13])[C:5]1([O:6][H:14])[C:7]2([H:15])[H:16])([H:8])([H:9])[H:10]>>[C:1]([C@@:2]1([H:11])[N:3]([H:12])[C:7]([H:15])([H:16])[C@:5]1([C:4][H:13])[O:6][H:14])([H:8])([H:9])[H:10]"
C        1.79724636       0.11863033       0.72529285
C        0.76966625      -0.08302739      -0.36227439
N       -0.04439529      -1.34527822      -0.25450466
C       -1.12815556       0.07580523       1.00401872
C       -0.64508860       0.49167238      -0.33934806
O       -1.15864285       1.78770997      -0.39448235
C       -1.08977063      -0.72041020      -1.13415415
H        2.64493818      -0.55041514       0.56131353
H        2.15177078       1.15072299       0.71708846
H        1.43959550      -0.09549506       1.73291746
H        1.25329244       0.10324890      -1.32663374
H       -0.21457444      -1.39988500       1.09824525
H       -2.21281530      -0.06570962       1.06074996
H       -0.55793389       2.36225602       0.08930413
H       -0.93453049      -0.66008880      -2.21141970
H       -2.07060245      -1.16973639      -0.96611332
16
Frame=15 idx=010975 GeodesicLength=1.1691066390182874 rxn_smarts="[C:1]([C@@:2]1([H:11])[N:3]2[C:4]([H:12])([H:13])[C:5]1([O:6][H:14])[C:7]2([H:15])[H:16])([H:8])([H:9])[H:10]>>[C:1]([C@@:2]1([H:11])[N:3]([H:12])[C:7]([H:15])([H:16])[C@:5]1([C:4][H:13])[O:6][H:14])([H:8])([H:9])[H:10]"
C        1.79498715       0.11646139       0.72728149
C        0.77094046      -0.08222523      -0.36466058
N       -0.03971801      -1.34629654      -0.26090089
C       -1.13379829       0.08860498       0.99831597
C       -0.64457364       0.48830234      -0.34375121
O       -1.16418305       1.78385002      -0.38825312
C       -1.08939704      -0.72543914      -1.13574454
H        2.64744079      -0.54547824       0.55896364
H        2.14127791       1.15133428       0.73110955
H        1.44053808      -0.11088711       1.73332011
H        1.25908330       0.11845074      -1.32402890
H       -0.19744054      -1.41989169       1.10618172
H       -2.21915839      -0.03939043       1.06381011
H       -0.54860724       2.36063999       0.07385278
H       -0.95129665      -0.65601650      -2.21444120
H       -2.06609483      -1.18201886      -0.96105492
16
Frame=16 idx=010975 GeodesicLength=1.2468538351832883 rxn_smarts="[C:1]([C@@:2]1([H:11])[N:3]2[C:4]([H:12])([H:13])[C:5]1([O:6][H:14])[C:7]2([H:15])[H:16])([H:8])([H:9])[H:10]>>[C:1]([C@@:2]1([H:11])[N:3]([H:12])[C:7]([H:15])([H:16])[C@:5]1([C:4][H:13])[O:6][H:14])([H:8])([H:9])[H:10]"
C        1.79259857       0.11423989       0.72940712
C        0.77218844      -0.08135678      -0.36699577
N       -0.03497391      -1.34727736      -0.26754683
C       -1.13952158       0.10159534       0.99253020
C       -0.64408937       0.48497893      -0.34804041
O       -1.16919352       1.78017459      -0.38262025
C       -1.08911434      -0.73036498      -1.13725084
H        2.64980069      -0.54050387       0.55688264
H        2.13057904       1.15169877       0.74537473
H        1.44132730      -0.12629369       1.73366739
H        1.26482248       0.13388471      -1.32108509
H       -0.17902872      -1.44122487       1.11373761
H       -2.22537608      -0.01253786       1.06676768
H       -0.53982804       2.35905988       0.05795035
H       -0.96865106      -0.65191726      -2.21708792
H       -2.06153989      -1.19415546      -0.95569058
