19
Frame=0 idx=009169 GeodesicLength=0.0 rxn_smarts="[C:1]([C:2]([O:3][C:4]([C:5]([O:6][C:7]([H:17])([H:18])[H:19])([H:15])[H:16])([H:13])[H:14])([H:11])[H:12])([H:8])([H:9])[H:10]>>[C:1]1([H:9])([H:10])[C:2]([H:11])([H:12])[O:3][C:4]([H:13])([H:14])[C:5]1([H:15])[H:16].[O:6]([C:7]([H:17])([H:18])[H:19])[H:8]"
C        1.12111125       0.86826810      -0.15234753
C        2.13780042      -0.19880651       0.09674010
O        1.74855790      -1.45013177      -0.48584231
C        0.48010564      -1.81971710      -0.07568547
C       -0.61149211      -0.91735657      -0.50932349
O       -1.27110774       0.49564179       0.87855212
C       -2.22293020       1.37224477       0.32353033
H       -0.29031591       0.74213137       0.53378859
H        1.10760381       1.20392226      -1.19102396
H        1.29837546       1.72814694       0.50074969
H        2.28332226      -0.34635022       1.17730483
H        3.11806860       0.00029360      -0.34475887
H        0.27011421      -2.79040044      -0.54895634
H        0.41404795      -1.97667853       1.01248003
H       -0.52176041      -0.45088733      -1.48019134
H       -1.60287493      -1.27998745      -0.26671269
H       -3.14829291       0.82658069       0.11999952
H       -1.85732955       1.81369958      -0.61235123
H       -2.45300375       2.17938676       1.02404801
19
Frame=1 idx=009169 GeodesicLength=0.11744704130828029 rxn_smarts="[C:1]([C:2]([O:3][C:4]([C:5]([O:6][C:7]([H:17])([H:18])[H:19])([H:15])[H:16])([H:13])[H:14])([H:11])[H:12])([H:8])([H:9])[H:10]>>[C:1]1([H:9])([H:10])[C:2]([H:11])([H:12])[O:3][C:4]([H:13])([H:14])[C:5]1([H:15])[H:16].[O:6]([C:7]([H:17])([H:18])[H:19])[H:8]"
C        1.14180999       0.86603467      -0.14370660
C        2.15417498      -0.21183233       0.08564742
O        1.74029357      -1.45513429      -0.49179066
C        0.47455830      -1.81571244      -0.06302802
C       -0.60433969      -0.89730646      -0.50149380
O       -1.28603412       0.50764395       0.87571730
C       -2.25385182       1.36527249       0.31888550
H       -0.27419616       0.76246888       0.53745231
H        1.13409195       1.22162225      -1.17582402
H        1.33829876       1.71325791       0.52049062
H        2.32443884      -0.35759305       1.16252121
H        3.12754183      -0.02666294      -0.37750433
H        0.25835052      -2.78974222      -0.52567264
H        0.41343042      -1.96597181       1.02597650
H       -0.52168242      -0.43149215      -1.47426882
H       -1.59849527      -1.27103281      -0.28487498
H       -3.17014641       0.80678997       0.10876625
H       -1.89346008       1.81283016      -0.61626549
H       -2.50478318       2.16656020       1.01897225
19
Frame=2 idx=009169 GeodesicLength=0.23430697306941262 rxn_smarts="[C:1]([C:2]([O:3][C:4]([C:5]([O:6][C:7]([H:17])([H:18])[H:19])([H:15])[H:16])([H:13])[H:14])([H:11])[H:12])([H:8])([H:9])[H:10]>>[C:1]1([H:9])([H:10])[C:2]([H:11])([H:12])[O:3][C:4]([H:13])([H:14])[C:5]1([H:15])[H:16].[O:6]([C:7]([H:17])([H:18])[H:19])[H:8]"
C        1.16312258       0.86369334      -0.13491171
C        2.17050154      -0.22519394       0.07430623
O        1.73164631      -1.46005222      -0.49745611
C        0.46879671      -1.81106025      -0.05006661
C       -0.59709759      -0.87665016      -0.49345607
O       -1.30123684       0.52011224       0.87273436
C       -2.28532887       1.35776579       0.31413282
H       -0.25733480       0.78368148       0.54076497
H        1.16167426       1.23925174      -1.15999740
H        1.37875759       1.69744435       0.54045914
H        2.36581416      -0.36966708       1.14678835
H        3.13616084      -0.05399875      -0.41067129
H        0.24624067      -2.78835320      -0.50185621
H        0.41275100      -1.95455039       1.03973780
H       -0.52124331      -0.41131907      -1.46801383
H       -1.59344394      -1.26131518      -0.30346814
H       -3.19214471       0.78615352       0.09788067
H       -1.93061485       1.81124105      -0.62049265
H       -2.55702076       2.15281674       1.01358570
19
Frame=3 idx=009169 GeodesicLength=0.35068820221684477 rxn_smarts="[C:1]([C:2]([O:3][C:4]([C:5]([O:6][C:7]([H:17])([H:18])[H:19])([H:15])[H:16])([H:13])[H:14])([H:11])[H:12])([H:8])([H:9])[H:10]>>[C:1]1([H:9])([H:10])[C:2]([H:11])([H:12])[O:3][C:4]([H:13])([H:14])[C:5]1([H:15])[H:16].[O:6]([C:7]([H:17])([H:18])[H:19])[H:8]"
C        1.18507219       0.86123521      -0.12597327
C        2.18676049      -0.23890272       0.06270290
O        1.72259364      -1.46486940      -0.50284075
C        0.46281003      -1.80572176      -0.03679515
C       -0.58976669      -0.85534468      -0.48518427
O       -1.31678200       0.53303832       0.86961290
C       -2.31736861       1.34968249       0.30926997
H       -0.23964003       0.80580727       0.54372430
H        1.19039924       1.25678063      -1.14354388
H        1.41974205       1.68066110       0.56064629
H        2.40740875      -0.38259648       1.13006148
H        3.14388274      -0.08172194      -0.44424927
H        0.23375390      -2.78618219      -0.47749662
H        0.41201878      -1.94238023       1.05376673
H       -0.52041478      -0.39031453      -1.46140266
H       -1.58767421      -1.25079145      -0.32246804
H       -3.21427297       0.76462859       0.08730729
H       -1.96877858       1.80888636      -0.62502792
H       -2.60974396       2.13810543       1.00788998
19
Frame=4 idx=009169 GeodesicLength=0.46672774011891915 rxn_smarts="[C:1]([C:2]([O:3][C:4]([C:5]([O:6][C:7]([H:17])([H:18])[H:19])([H:15])[H:16])([H:13])[H:14])([H:11])[H:12])([H:8])([H:9])[H:10]>>[C:1]1([H:9])([H:10])[C:2]([H:11])([H:12])[O:3][C:4]([H:13])([H:14])[C:5]1([H:15])[H:16].[O:6]([C:7]([H:17])([H:18])[H:19])[H:8]"
C        1.20768261       0.85865344      -0.11689700
C        2.20293043      -0.25296923       0.05081071
O        1.71310664      -1.46956890      -0.50794556
C        0.45658767      -1.79965067      -0.02319675
C       -0.58234888      -0.83333903      -0.47664461
O       -1.33275575       0.54639712       0.86636765
C       -2.34998347       1.34097692       0.30428515
H       -0.22100901       0.82888350       0.54634193
H        1.22031691       1.27418935      -1.12644948
H        1.46125251       1.66285725       0.58105863
H        2.44920107      -0.39642206       1.11227960
H        3.15065371      -0.10984688      -0.47826631
H        0.22085515      -2.78316972      -0.45256563
H        0.41125094      -1.92941553       1.06807727
H       -0.51916860      -0.36841746      -1.45440221
H       -1.58114301      -1.23941400      -0.34184336
H       -3.23650847       0.74217189       0.07696550
H       -2.00791517       1.80572705      -0.62985581
H       -2.66300528       2.12235697       1.00188029
19
Frame=5 idx=009169 GeodesicLength=0.582396641133981 rxn_smarts="[C:1]([C:2]([O:3][C:4]([C:5]([O:6][C:7]([H:17])([H:18])[H:19])([H:15])[H:16])([H:13])[H:14])([H:11])[H:12])([H:8])([H:9])[H:10]>>[C:1]1([H:9])([H:10])[C:2]([H:11])([H:12])[O:3][C:4]([H:13])([H:14])[C:5]1([H:15])[H:16].[O:6]([C:7]([H:17])([H:18])[H:19])[H:8]"
C        1.23096721       0.85593642      -0.10769691
C        2.21897757      -0.26740142       0.03861907
O        1.70316099      -1.47412234      -0.51276732
C        0.45011627      -1.79280501      -0.00926789
C       -0.57484306      -0.81059512      -0.46781651
O       -1.34922412       0.56017334       0.86301412
C       -2.38316782       1.33160385       0.29917349
H       -0.20135590       0.85293458       0.54863326
H        1.25147489       1.29144222      -1.10871478
H        1.50326603       1.64399292       0.60166824
H        2.49113426      -0.41115991       1.09339262
H        3.15641914      -0.13836859      -0.51269250
H        0.20751862      -2.77926366      -0.42705863
H        0.41045273      -1.91562263       1.08266871
H       -0.51747206      -0.34557651      -1.44699270
H       -1.57380583      -1.22714076      -0.36157134
H       -3.25883246       0.71874806       0.06682935
H       -2.04799193       1.80170577      -0.63497790
H       -2.71679453       2.10551882       0.99555763
19
Frame=6 idx=009169 GeodesicLength=0.6979112295493988 rxn_smarts="[C:1]([C:2]([O:3][C:4]([C:5]([O:6][C:7]([H:17])([H:18])[H:19])([H:15])[H:16])([H:13])[H:14])([H:11])[H:12])([H:8])([H:9])[H:10]>>[C:1]1([H:9])([H:10])[C:2]([H:11])([H:12])[O:3][C:4]([H:13])([H:14])[C:5]1([H:15])[H:16].[O:6]([C:7]([H:17])([H:18])[H:19])[H:8]"
C        1.25496385       0.85308022      -0.09838416
C        2.23487872      -0.28221454       0.02609118
O        1.69271804      -1.47851077      -0.51730165
C        0.44338805      -1.78512101       0.00502247
C       -0.56725105      -0.78704021      -0.45864782
O       -1.36631116       0.57430834       0.85957832
C       -2.41694781       1.32150402       0.29391338
H       -0.18054364       0.87801010       0.55061609
H        1.28394505       1.30850821      -1.09033365
H        1.54581352       1.62400732       0.62247781
H        2.53318342      -0.42687636       1.07332839
H        3.16109526      -0.16730187      -0.54758357
H        0.19370132      -2.77438081      -0.40093012
H        0.40965148      -1.90094170       1.09756875
H       -0.51529846      -0.32170629      -1.43912039
H       -1.56560991      -1.21390987      -0.38162052
H       -3.28121558       0.69431381       0.05677161
H       -2.08895949       1.79679079      -0.64035752
H       -2.77120162       2.08748064       0.98891139
19
Frame=7 idx=009169 GeodesicLength=0.8133390659785367 rxn_smarts="[C:1]([C:2]([O:3][C:4]([C:5]([O:6][C:7]([H:17])([H:18])[H:19])([H:15])[H:16])([H:13])[H:14])([H:11])[H:12])([H:8])([H:9])[H:10]>>[C:1]1([H:9])([H:10])[C:2]([H:11])([H:12])[O:3][C:4]([H:13])([H:14])[C:5]1([H:15])[H:16].[O:6]([C:7]([H:17])([H:18])[H:19])[H:8]"
C        1.27970056       0.85007526      -0.08897824
C        2.25059922      -0.29741984       0.01320963
O        1.68174100      -1.48270510      -0.52153813
C        0.43638976      -1.77654049       0.01969510
C       -0.55957231      -0.76261373      -0.44910225
O       -1.38413654       0.58874039       0.85606709
C       -2.45133100       1.31061365       0.28850223
H       -0.15844855       0.90415062       0.55230404
H        1.31780075       1.32533926      -1.07131521
H        1.58890534       1.60284840       0.64344988
H        2.57528402      -0.44361684       1.05203009
H        3.16460756      -0.19663482      -0.58293727
H        0.17936748      -2.76844889      -0.37414961
H        0.40886108      -1.88531800       1.11279390
H       -0.51261348      -0.29672960      -1.43074857
H       -1.55648873      -1.19966293      -0.40197733
H       -3.30364469       0.66883906       0.04671999
H       -2.13078171       1.79093335      -0.64597528
H       -2.82623975       2.06815024       0.98194994
19
Frame=8 idx=009169 GeodesicLength=0.9287701400179685 rxn_smarts="[C:1]([C:2]([O:3][C:4]([C:5]([O:6][C:7]([H:17])([H:18])[H:19])([H:15])[H:16])([H:13])[H:14])([H:11])[H:12])([H:8])([H:9])[H:10]>>[C:1]1([H:9])([H:10])[C:2]([H:11])([H:12])[O:3][C:4]([H:13])([H:14])[C:5]1([H:15])[H:16].[O:6]([C:7]([H:17])([H:18])[H:19])[H:8]"
C        1.30521611       0.84690992      -0.07949151
C        2.26609790      -0.31303731      -0.00006210
O        1.67018021      -1.48667223      -0.52546879
C        0.42911331      -1.76699078       0.03478311
C       -0.55180662      -0.73723647      -0.43912420
O       -1.40283708       0.60339268       0.85253320
C       -2.48633894       1.29886424       0.28291149
H       -0.13492493       0.93139374       0.55373758
H        1.35312630       1.34188596      -1.05165731
H        1.63258157       1.58045182       0.66455228
H        2.61739423      -0.46145712       1.02941221
H        3.16684534      -0.22635763      -0.61879691
H        0.16447239      -2.76137115      -0.34666856
H        0.40811585      -1.86868499       1.12837023
H       -0.50938676      -0.27054128      -1.42181334
H       -1.54638331      -1.18433175      -0.42259750
H       -3.32608205       0.64227811       0.03652787
H       -2.17338754       1.78410854      -0.65179300
H       -2.88199600       2.04739570       0.97464525
19
Frame=9 idx=009169 GeodesicLength=1.0454651066802745 rxn_smarts="[C:1]([C:2]([O:3][C:4]([C:5]([O:6][C:7]([H:17])([H:18])[H:19])([H:15])[H:16])([H:13])[H:14])([H:11])[H:12])([H:8])([H:9])[H:10]>>[C:1]1([H:9])([H:10])[C:2]([H:11])([H:12])[O:3][C:4]([H:13])([H:14])[C:5]1([H:15])[H:16].[O:6]([C:7]([H:17])([H:18])[H:19])[H:8]"
C        1.33160072       0.84356390      -0.07000598
C        2.28135218      -0.32907935      -0.01380560
O        1.65796427      -1.49035489      -0.52913630
C        0.42157527      -1.75639853       0.05040670
C       -0.54397721      -0.71076108      -0.42849112
O       -1.42293988       0.61774905       0.84935961
C       -2.52205565       1.28614496       0.27711389
H       -0.10970621       0.95987625       0.55490612
H        1.38996359       1.35798394      -1.03149296
H        1.67713613       1.55684014       0.68550813
H        2.65944935      -0.48049077       1.00538457
H        3.16775272      -0.25640378      -0.65530357
H        0.14897044      -2.75308800      -0.31831441
H        0.40753402      -1.85096008       1.14441534
H       -0.50568888      -0.24293095      -1.41204995
H       -1.53530200      -1.16789096      -0.44347662
H       -3.34851810       0.61476986       0.02539181
H       -2.21625944       1.77663001      -0.65745313
H       -2.93885135       2.02480028       0.96704346
19
Frame=10 idx=009169 GeodesicLength=1.1621281756821267 rxn_smarts="[C:1]([C:2]([O:3][C:4]([C:5]([O:6][C:7]([H:17])([H:18])[H:19])([H:15])[H:16])([H:13])[H:14])([H:11])[H:12])([H:8])([H:9])[H:10]>>[C:1]1([H:9])([H:10])[C:2]([H:11])([H:12])[O:3][C:4]([H:13])([H:14])[C:5]1([H:15])[H:16].[O:6]([C:7]([H:17])([H:18])[H:19])[H:8]"
C        1.35884369       0.84003155      -0.06048849
C        2.29628350      -0.34556747      -0.02803062
O        1.64503681      -1.49372694      -0.53249870
C        0.41373819      -1.74467847       0.06653794
C       -0.53606207      -0.68315039      -0.41725503
O       -1.44423490       0.63206009       0.84631390
C       -2.55843336       1.27239845       0.27106880
H       -0.08270473       0.98953666       0.55591881
H        1.42843813       1.37366856      -1.01073279
H        1.72234295       1.53185216       0.70649405
H        2.70136925      -0.50075534       0.97984199
H        3.16716939      -0.28682874      -0.69240439
H        0.13280228      -2.74345603      -0.28913565
H        0.40709397      -1.83209686       1.16088669
H       -0.50140976      -0.21385328      -1.40152445
H       -1.52307620      -1.15017196      -0.46451268
H       -3.37086534       0.58609991       0.01369276
H       -2.25971163       1.76820775      -0.66320023
H       -2.99662015       2.00043034       0.95902810
19
Frame=11 idx=009169 GeodesicLength=1.2786737184512125 rxn_smarts="[C:1]([C:2]([O:3][C:4]([C:5]([O:6][C:7]([H:17])([H:18])[H:19])([H:15])[H:16])([H:13])[H:14])([H:11])[H:12])([H:8])([H:9])[H:10]>>[C:1]1([H:9])([H:10])[C:2]([H:11])([H:12])[O:3][C:4]([H:13])([H:14])[C:5]1([H:15])[H:16].[O:6]([C:7]([H:17])([H:18])[H:19])[H:8]"
C        1.38699236       0.83629450      -0.05098332
C        2.31084455      -0.36252384      -0.04277026
O        1.63132943      -1.49675024      -0.53555015
C        0.40558586      -1.73174932       0.08321800
C       -0.52805290      -0.65429697      -0.40534627
O       -1.46686199       0.64620286       0.84345645
C       -2.59549642       1.25752916       0.26475827
H       -0.05372694       1.02041911       0.55680027
H        1.46864808       1.38886153      -0.98941719
H        1.76822703       1.50543447       0.72744216
H        2.74306169      -0.52228607       0.95271652
H        3.16501142      -0.31766238      -0.73009605
H        0.11590487      -2.73235916      -0.25908088
H        0.40682465      -1.81203037       1.17781516
H       -0.49651214      -0.18316303      -1.39015477
H       -1.50963604      -1.13105532      -0.48568049
H       -3.39307235       0.55620117       0.00127511
H       -2.30368913       1.75882055      -0.66897301
H       -3.05538205       1.97411336       0.95057046
19
Frame=12 idx=009169 GeodesicLength=1.3950612200816335 rxn_smarts="[C:1]([C:2]([O:3][C:4]([C:5]([O:6][C:7]([H:17])([H:18])[H:19])([H:15])[H:16])([H:13])[H:14])([H:11])[H:12])([H:8])([H:9])[H:10]>>[C:1]1([H:9])([H:10])[C:2]([H:11])([H:12])[O:3][C:4]([H:13])([H:14])[C:5]1([H:15])[H:16].[O:6]([C:7]([H:17])([H:18])[H:19])[H:8]"
C        1.41610077       0.83233745      -0.04153290
C        2.32496851      -0.37997176      -0.05809485
O        1.61675239      -1.49937983      -0.53828571
C        0.39710769      -1.71750468       0.10051745
C       -0.51994185      -0.62407509      -0.39265229
O       -1.49101097       0.65998471       0.84089266
C       -2.63326710       1.24142656       0.25814064
H       -0.02255329       1.05256966       0.55761411
H        1.51069617       1.40348894      -0.96757411
H        1.81483543       1.47749191       0.74830168
H        2.78444205      -0.54515861       0.92387797
H        3.16114015      -0.34892759      -0.76845110
H        0.09820611      -2.71965760      -0.22805202
H        0.40679543      -1.79067013       1.19525637
H       -0.49096977      -0.15068252      -1.37780427
H       -1.49487649      -1.11040232      -0.50690619
H       -3.41506746       0.52503549      -0.01215226
H       -2.34806985       1.74849189      -0.67468891
H       -3.11528792       1.94560352       0.94159374
19
Frame=13 idx=009169 GeodesicLength=1.5111533627075209 rxn_smarts="[C:1]([C:2]([O:3][C:4]([C:5]([O:6][C:7]([H:17])([H:18])[H:19])([H:15])[H:16])([H:13])[H:14])([H:11])[H:12])([H:8])([H:9])[H:10]>>[C:1]1([H:9])([H:10])[C:2]([H:11])([H:12])[O:3][C:4]([H:13])([H:14])[C:5]1([H:15])[H:16].[O:6]([C:7]([H:17])([H:18])[H:19])[H:8]"
C        1.44622351       0.82813592      -0.03217776
C        2.33858382      -0.39793326      -0.07405711
O        1.60121164      -1.50155513      -0.54070252
C        0.38829045      -1.70183947       0.11849839
C       -0.51171754      -0.59235348      -0.37906004
O       -1.51687399       0.67321661       0.83872676
C       -2.67176875       1.22397731       0.25116658
H        0.01105344       1.08600847       0.55844464
H        1.55467103       1.41745777      -0.94525089
H        1.86221129       1.44794482       0.76898351
H        2.82541899      -0.56944015       0.89320758
H        3.15542145      -0.38063345      -0.80749434
H        0.07962826      -2.70521161      -0.19597312
H        0.40706598      -1.76794230       1.21325997
H       -0.48474466      -0.11621875      -1.36433348
H       -1.47869161      -1.08806454      -0.52812113
H       -3.43678956       0.49253892      -0.02683295
H       -2.39275969       1.73723141      -0.68030172
H       -3.17643405       1.91468091       0.93201763
19
Frame=14 idx=009169 GeodesicLength=1.6269758023604326 rxn_smarts="[C:1]([C:2]([O:3][C:4]([C:5]([O:6][C:7]([H:17])([H:18])[H:19])([H:15])[H:16])([H:13])[H:14])([H:11])[H:12])([H:8])([H:9])[H:10]>>[C:1]1([H:9])([H:10])[C:2]([H:11])([H:12])[O:3][C:4]([H:13])([H:14])[C:5]1([H:15])[H:16].[O:6]([C:7]([H:17])([H:18])[H:19])[H:8]"
C        1.47744337       0.82366281      -0.02296702
C        2.35159999      -0.41645060      -0.09076420
O        1.58457414      -1.50321178      -0.54278412
C        0.37912343      -1.68460597       0.13728988
C       -0.50337257      -0.55895167      -0.36437902
O       -1.54472131       0.68560079       0.83716145
C       -2.71104958       1.20502049       0.24374527
H        0.04739554       1.12080314       0.55937496
H        1.60071902       1.43065066      -0.92250023
H        1.91047585       1.41667855       0.78938310
H        2.86589056      -0.59526073       0.86050127
H        3.14763622      -0.41279540      -0.84736944
H        0.06007522      -2.68882728      -0.16266410
H        0.40774787      -1.74371488       1.23193138
H       -0.47782469      -0.07950442      -1.34951129
H       -1.46095431      -1.06384985      -0.54922670
H       -3.45812533       0.45866535      -0.04329548
H       -2.43755754       1.72516670      -0.68564690
H       -3.23907588       1.88092408       0.92172122
19
Frame=15 idx=009169 GeodesicLength=1.74243641120747 rxn_smarts="[C:1]([C:2]([O:3][C:4]([C:5]([O:6][C:7]([H:17])([H:18])[H:19])([H:15])[H:16])([H:13])[H:14])([H:11])[H:12])([H:8])([H:9])[H:10]>>[C:1]1([H:9])([H:10])[C:2]([H:11])([H:12])[O:3][C:4]([H:13])([H:14])[C:5]1([H:15])[H:16].[O:6]([C:7]([H:17])([H:18])[H:19])[H:8]"
C        1.50984018       0.81888181      -0.01395563
C        2.36391620      -0.43556011      -0.10831167
O        1.56669019      -1.50426837      -0.54452248
C        0.36959731      -1.66565301       0.15701496
C       -0.49489313      -0.52368465      -0.34840186
O       -1.57484428       0.69680097       0.83641639
C       -2.75114892       1.18438762       0.23577488
H        0.08679410       1.15698260       0.56053039
H        1.64896757       1.44292453      -0.89940642
H        1.95973715       1.38359000       0.80934521
H        2.90573142      -0.62273139       0.82556606
H        3.13756613      -0.44541245      -0.88817758
H        0.03944418      -2.67030459      -0.12796483
H        0.40896019      -1.71787575       1.25136960
H       -0.47019581      -0.04025109      -1.33307686
H       -1.44151532      -1.03754811      -0.57010205
H       -3.47897177       0.42337513      -0.06204483
H       -2.48226982       1.71242657      -0.69061194
H       -3.30340557       1.84392030       0.91055867
19
Frame=16 idx=009169 GeodesicLength=1.8574808016553788 rxn_smarts="[C:1]([C:2]([O:3][C:4]([C:5]([O:6][C:7]([H:17])([H:18])[H:19])([H:15])[H:16])([H:13])[H:14])([H:11])[H:12])([H:8])([H:9])[H:10]>>[C:1]1([H:9])([H:10])[C:2]([H:11])([H:12])[O:3][C:4]([H:13])([H:14])[C:5]1([H:15])[H:16].[O:6]([C:7]([H:17])([H:18])[H:19])[H:8]"
C        1.54350037       0.81374682      -0.00518621
C        2.37538984      -0.45529696      -0.12687173
O        1.54736857      -1.50462878      -0.54590063
C        0.35971934      -1.64481244       0.17788311
C       -0.48627453      -0.48633665      -0.33081424
O       -1.60760360       0.70638198       0.83679994
C       -2.79210371       1.16188857       0.22708993
H        0.12962944       1.19456676       0.56211302
H        1.69952387       1.45412640      -0.87604234
H        2.01016308       1.34851422       0.82870872
H        2.94483243      -0.65202213       0.78806744
H        3.12486246      -0.47844486      -0.93017681
H        0.01763475      -2.64942952      -0.09158862
H        0.41089846      -1.69027629       1.27175673
H       -0.46186871       0.00189602      -1.31464221
H       -1.42020666      -1.00890965      -0.59055567
H       -3.49914017       0.38666294      -0.08391185
H       -2.52657550       1.69930161      -0.69500662
H       -3.36974974       1.80307198       0.89827805
