14
Frame=0 idx=006252 GeodesicLength=0.0 rxn_smarts="[C:1]([C@@:2]1([H:10])[C:3]([H:11])([H:12])[C@:4]1([C:5](=[O:6])[H:14])[H:13])([H:7])([H:8])[H:9]>>[C:1](/[C:2](=[C:3]([C:4](=[C:5](/[O:6][H:11])[H:14])\[H:13])/[H:12])[H:10])([H:7])([H:8])[H:9]"
C       -1.45930519      -0.86650539      -0.42841865
C       -1.10898539       0.56723042      -0.38286565
C        0.04692980       1.08789508       0.19240136
C        1.22729277       0.28424074      -0.33968322
C        1.84016503      -0.39238973       0.69050319
O        1.34861408      -0.38209908       1.85305745
H       -0.76951847      -1.47047189       0.15824704
H       -2.48724836      -0.99056697      -0.07080120
H       -1.45530564      -1.23265558      -1.45997687
H       -1.83506656       1.24085689      -0.84195282
H        0.23161891       0.61810311       1.27794485
H        0.12930553       2.17257827       0.21761437
H        1.49204299       0.25755655      -1.38474096
H        2.79946044      -0.89377239       0.51867109
14
Frame=1 idx=006252 GeodesicLength=0.07899017274452537 rxn_smarts="[C:1]([C@@:2]1([H:10])[C:3]([H:11])([H:12])[C@:4]1([C:5](=[O:6])[H:14])[H:13])([H:7])([H:8])[H:9]>>[C:1](/[C:2](=[C:3]([C:4](=[C:5](/[O:6][H:11])[H:14])\[H:13])/[H:12])[H:10])([H:7])([H:8])[H:9]"
C       -1.45407782      -0.87398751      -0.41862488
C       -1.09031770       0.55809455      -0.40546416
C        0.03755026       1.10034146       0.20383143
C        1.21400896       0.30130297      -0.33854461
C        1.83121558      -0.39180663       0.67990988
O        1.37325351      -0.36494001       1.85707541
H       -0.76647385      -1.47544290       0.17299479
H       -2.47942046      -0.98487861      -0.04999118
H       -1.45874073      -1.26037658      -1.44269018
H       -1.80564247       1.22373928      -0.89180174
H        0.22497036       0.61341701       1.30014951
H        0.11126336       2.18534641       0.22189729
H        1.52343824       0.34198952      -1.37069140
H        2.73897277      -0.97279895       0.48194984
14
Frame=2 idx=006252 GeodesicLength=0.15791110376269643 rxn_smarts="[C:1]([C@@:2]1([H:10])[C:3]([H:11])([H:12])[C@:4]1([C:5](=[O:6])[H:14])[H:13])([H:7])([H:8])[H:9]>>[C:1](/[C:2](=[C:3]([C:4](=[C:5](/[O:6][H:11])[H:14])\[H:13])/[H:12])[H:10])([H:7])([H:8])[H:9]"
C       -1.44864268      -0.88113734      -0.40969503
C       -1.07101045       0.54843960      -0.42683980
C        0.02851335       1.11185250       0.21395259
C        1.20162959       0.31776706      -0.33839219
C        1.82313937      -0.39121266       0.66863730
O        1.39913623      -0.34772317       1.85928482
H       -0.76269940      -1.48104443       0.18527093
H       -2.47083256      -0.97889293      -0.02933247
H       -1.46350034      -1.28590131      -1.42646304
H       -1.77587345       1.20619075      -0.93808221
H        0.21986207       0.60821264       1.32152690
H        0.09356014       2.19712388       0.22457210
H        1.55320481       0.42229927      -1.35242140
H        2.67351330      -1.04597387       0.44798152
14
Frame=3 idx=006252 GeodesicLength=0.2368423659840634 rxn_smarts="[C:1]([C@@:2]1([H:10])[C:3]([H:11])([H:12])[C@:4]1([C:5](=[O:6])[H:14])[H:13])([H:7])([H:8])[H:9]>>[C:1](/[C:2](=[C:3]([C:4](=[C:5](/[O:6][H:11])[H:14])\[H:13])/[H:12])[H:10])([H:7])([H:8])[H:9]"
C       -1.44305503      -0.88786453      -0.40162367
C       -1.05131360       0.53849006      -0.44684628
C        0.01981505       1.12247482       0.22296494
C        1.19003249       0.33363847      -0.33908436
C        1.81571628      -0.39089826       0.65669666
O        1.42606212      -0.33084760       1.85968553
H       -0.75839667      -1.48720312       0.19528050
H       -2.46159385      -0.97263775      -0.00910393
H       -1.46928538      -1.30911887      -1.41135746
H       -1.74582761       1.18849336      -0.98118144
H        0.21629591       0.60239974       1.34226236
H        0.07627415       2.20792180       0.22596728
H        1.58054424       0.49752045      -1.33088351
H        2.60473188      -1.11236857       0.41722339
14
Frame=4 idx=006252 GeodesicLength=0.315812905471046 rxn_smarts="[C:1]([C@@:2]1([H:10])[C:3]([H:11])([H:12])[C@:4]1([C:5](=[O:6])[H:14])[H:13])([H:7])([H:8])[H:9]>>[C:1](/[C:2](=[C:3]([C:4](=[C:5](/[O:6][H:11])[H:14])\[H:13])/[H:12])[H:10])([H:7])([H:8])[H:9]"
C       -1.43740837      -0.89413232      -0.39439709
C       -1.03144030       0.52841045      -0.46547422
C        0.01143896       1.13227120       0.23100190
C        1.17909832       0.34888117      -0.34046813
C        1.80876957      -0.39098078       0.64419434
O        1.45376954      -0.31457285       1.85834520
H       -0.75376720      -1.49385521       0.20320492
H       -2.45184332      -0.96616135       0.01053114
H       -1.47593445      -1.33004653      -1.39739969
H       -1.71568908       1.17086483      -1.02131004
H        0.21419639       0.59596343       1.36249249
H        0.05947059       2.21778180       0.22628656
H        1.60517599       0.56727819      -1.30696381
H        2.53416338      -1.17170202       0.38995643
14
Frame=5 idx=006252 GeodesicLength=0.3946736549525628 rxn_smarts="[C:1]([C@@:2]1([H:10])[C:3]([H:11])([H:12])[C@:4]1([C:5](=[O:6])[H:14])[H:13])([H:7])([H:8])[H:9]>>[C:1](/[C:2](=[C:3]([C:4](=[C:5](/[O:6][H:11])[H:14])\[H:13])/[H:12])[H:10])([H:7])([H:8])[H:9]"
C       -1.43181315      -0.89995043      -0.38796677
C       -1.01156088       0.51831577      -0.48270304
C        0.00337901       1.14132922       0.23821059
C        1.16875558       0.36352263      -0.34235955
C        1.80221618      -0.39136574       0.63126148
O        1.48189572      -0.29908871       1.85532665
H       -0.74901091      -1.50094219       0.20919968
H       -2.44176208      -0.95957250       0.02948488
H       -1.48333969      -1.34877402      -1.38455330
H       -1.68552391       1.15340729      -1.05872155
H        0.21343635       0.58894241       1.38233280
H        0.04323541       2.22677336       0.22573212
H        1.62705199       0.63148445      -1.28145543
H        2.46304038      -1.22408156       0.36621143
14
Frame=6 idx=006252 GeodesicLength=0.4737161488867888 rxn_smarts="[C:1]([C@@:2]1([H:10])[C:3]([H:11])([H:12])[C@:4]1([C:5](=[O:6])[H:14])[H:13])([H:7])([H:8])[H:9]>>[C:1](/[C:2](=[C:3]([C:4](=[C:5](/[O:6][H:11])[H:14])\[H:13])/[H:12])[H:10])([H:7])([H:8])[H:9]"
C       -1.42631161      -0.90533955      -0.38228616
C       -0.99179346       0.50831683      -0.49872265
C       -0.00441740       1.14974597       0.24458075
C        1.15883787       0.37745813      -0.34473859
C        1.79589204      -0.39214193       0.61803294
O        1.51020741      -0.28454419       1.85085796
H       -0.74422048      -1.50846580       0.21345899
H       -2.43136262      -0.95290324       0.04782263
H       -1.49144140      -1.36544869      -1.37280740
H       -1.65564096       1.13633215      -1.09348714
H        0.21387636       0.58134695       1.40187995
H        0.02754621       2.23503640       0.22429199
H        1.64641442       0.69057375      -1.25494966
H        2.39241363      -1.26996677       0.34606640
14
Frame=7 idx=006252 GeodesicLength=0.552797441692614 rxn_smarts="[C:1]([C@@:2]1([H:10])[C:3]([H:11])([H:12])[C@:4]1([C:5](=[O:6])[H:14])[H:13])([H:7])([H:8])[H:9]>>[C:1](/[C:2](=[C:3]([C:4](=[C:5](/[O:6][H:11])[H:14])\[H:13])/[H:12])[H:10])([H:7])([H:8])[H:9]"
C       -1.42096632      -0.91031496      -0.37727475
C       -0.97224510       0.49846286      -0.51359943
C       -0.01199334       1.15759383       0.25020092
C        1.14928103       0.39073290      -0.34747061
C        1.78977991      -0.39318840       0.60461793
O        1.53849167      -0.27099329       1.84503195
H       -0.73949251      -1.51634931       0.21615029
H       -2.42074399      -0.94620267       0.06556324
H       -1.50018511      -1.38021033      -1.36204559
H       -1.62606203       1.11964293      -1.12594352
H        0.21539754       0.57320253       1.42119435
H        0.01237241       2.24262297       0.22208863
H        1.66343667       0.74490752      -1.22782537
H        2.32292918      -1.30990660       0.32931194
14
Frame=8 idx=006252 GeodesicLength=0.6319590898603835 rxn_smarts="[C:1]([C@@:2]1([H:10])[C:3]([H:11])([H:12])[C@:4]1([C:5](=[O:6])[H:14])[H:13])([H:7])([H:8])[H:9]>>[C:1](/[C:2](=[C:3]([C:4](=[C:5](/[O:6][H:11])[H:14])\[H:13])/[H:12])[H:10])([H:7])([H:8])[H:9]"
C       -1.41580209      -0.91491999      -0.37287582
C       -0.95298854       0.48880593      -0.52744259
C       -0.01938937       1.16497836       0.25511768
C        1.14002142       0.40337956      -0.35049835
C        1.78383018      -0.39446486       0.59109497
O        1.56662246      -0.25839224       1.83800775
H       -0.73489720      -1.52456202       0.21744563
H       -2.40996221      -0.93954746       0.08272706
H       -1.50946815      -1.39323478      -1.35220360
H       -1.59691126       1.10339477      -1.15626063
H        0.21788129       0.56454313       1.44035444
H       -0.00232176       2.24966326       0.21918394
H        1.67838839       0.79492506      -1.20040091
H        2.25499685      -1.34456873       0.31575041
14
Frame=9 idx=006252 GeodesicLength=0.7111278719175058 rxn_smarts="[C:1]([C@@:2]1([H:10])[C:3]([H:11])([H:12])[C@:4]1([C:5](=[O:6])[H:14])[H:13])([H:7])([H:8])[H:9]>>[C:1](/[C:2](=[C:3]([C:4](=[C:5](/[O:6][H:11])[H:14])\[H:13])/[H:12])[H:10])([H:7])([H:8])[H:9]"
C       -1.41081833      -0.91916567      -0.36902364
C       -0.93406318       0.47937502      -0.54031170
C       -0.02663511       1.17195951       0.25939536
C        1.13100492       0.41545762      -0.35372481
C        1.77799517      -0.39589075       0.57753959
O        1.59445063      -0.24672236       1.82989373
H       -0.73047119      -1.53302921       0.21749037
H       -2.39904133      -0.93298506       0.09933500
H       -1.51918721      -1.40462841      -1.34319362
H       -1.56818463       1.08757653      -1.18465566
H        0.22122575       0.55536994       1.45941409
H       -0.01655753       2.25619629       0.21564539
H        1.69140425       0.84094068      -1.17293991
H        2.18887779      -1.37445413       0.30513581
14
Frame=10 idx=006252 GeodesicLength=0.7903571662811936 rxn_smarts="[C:1]([C@@:2]1([H:10])[C:3]([H:11])([H:12])[C@:4]1([C:5](=[O:6])[H:14])[H:13])([H:7])([H:8])[H:9]>>[C:1](/[C:2](=[C:3]([C:4](=[C:5](/[O:6][H:11])[H:14])\[H:13])/[H:12])[H:10])([H:7])([H:8])[H:9]"
C       -1.40604262      -0.92308048      -0.36568272
C       -0.91551687       0.47019296      -0.55234652
C       -0.03376584       1.17861341       0.26304274
C        1.12217459       0.42696646      -0.35712429
C        1.77223204      -0.39747550       0.56401986
O        1.62195666      -0.23591804       1.82084093
H       -0.72624678      -1.54173079       0.21637874
H       -2.38799996      -0.92654083       0.11544838
H       -1.52935091      -1.41452691      -1.33495909
H       -1.54000492       1.07222112      -1.21129090
H        0.22535325       0.54567852       1.47842132
H       -0.03037439       2.26232320       0.21148828
H        1.70272916       0.88338618      -1.14554665
H        2.12485659      -1.40010930       0.29730993
14
Frame=11 idx=006252 GeodesicLength=0.8695989015382752 rxn_smarts="[C:1]([C@@:2]1([H:10])[C:3]([H:11])([H:12])[C@:4]1([C:5](=[O:6])[H:14])[H:13])([H:7])([H:8])[H:9]>>[C:1](/[C:2](=[C:3]([C:4](=[C:5](/[O:6][H:11])[H:14])\[H:13])/[H:12])[H:10])([H:7])([H:8])[H:9]"
C       -1.40147801      -0.92667885      -0.36280412
C       -0.89736826       0.46127066      -0.56362497
C       -0.04081141       1.18499378       0.26609293
C        1.11349693       0.43794786      -0.36063971
C        1.76650229      -0.39918016       0.55058953
O        1.64906891      -0.22591844       1.81094604
H       -0.72224029      -1.55062325       0.21419477
H       -2.37684622      -0.92024025       0.13112110
H       -1.53992767      -1.42302386      -1.32742217
H       -1.51238236       1.05731367      -1.23633828
H        0.23017769       0.53545343       1.49741226
H       -0.04380253       2.26809207       0.20674202
H        1.71253441       0.92256863      -1.11832351
H        2.06307652      -1.42197529       0.29205411
14
Frame=12 idx=006252 GeodesicLength=0.9488377618291587 rxn_smarts="[C:1]([C@@:2]1([H:10])[C:3]([H:11])([H:12])[C@:4]1([C:5](=[O:6])[H:14])[H:13])([H:7])([H:8])[H:9]>>[C:1](/[C:2](=[C:3]([C:4](=[C:5](/[O:6][H:11])[H:14])\[H:13])/[H:12])[H:10])([H:7])([H:8])[H:9]"
C       -1.39712034      -0.92998048      -0.36034973
C       -0.87963269       0.45262011      -0.57422228
C       -0.04779869       1.19116142       0.26857393
C        1.10494473       0.44844387      -0.36422657
C        1.76078033      -0.40097811       0.53729685
O        1.67575728      -0.21665153       1.80030868
H       -0.71845555      -1.55967609       0.21101469
H       -2.36558144      -0.91411396       0.14639432
H       -1.55088041      -1.43021593      -1.32052351
H       -1.48534371       1.04284781      -1.25994528
H        0.23563594       0.52468201       1.51643007
H       -0.05687186       2.27356740       0.20142609
H        1.72097668       0.95876953      -1.09134611
H        2.00358972      -1.44047606       0.28916883
14
Frame=13 idx=006252 GeodesicLength=1.028052305444195 rxn_smarts="[C:1]([C@@:2]1([H:10])[C:3]([H:11])([H:12])[C@:4]1([C:5](=[O:6])[H:14])[H:13])([H:7])([H:8])[H:9]>>[C:1](/[C:2](=[C:3]([C:4](=[C:5](/[O:6][H:11])[H:14])\[H:13])/[H:12])[H:10])([H:7])([H:8])[H:9]"
C       -1.39295137      -0.93299923      -0.35827876
C       -0.86231118       0.44425012      -0.58419093
C       -0.05475183       1.19716904       0.27051730
C        1.09649421       0.45850249      -0.36783473
C        1.75503665      -0.40283597       0.52418564
O        1.70197249      -0.20806615       1.78901532
H       -0.71488829      -1.56885517       0.20691252
H       -2.35419572      -0.90819035       0.16130471
H       -1.56214879      -1.43617900      -1.31420256
H       -1.45887747       1.02880781      -1.28224460
H        0.24166839       0.51334493       1.53551891
H       -0.06960491       2.27879797       0.19555420
H        1.72817056       0.99221285      -1.06470502
H        1.94638726      -1.45595934       0.28844800
14
Frame=14 idx=006252 GeodesicLength=1.1072356901037816 rxn_smarts="[C:1]([C@@:2]1([H:10])[C:3]([H:11])([H:12])[C@:4]1([C:5](=[O:6])[H:14])[H:13])([H:7])([H:8])[H:9]>>[C:1](/[C:2](=[C:3]([C:4](=[C:5](/[O:6][H:11])[H:14])\[H:13])/[H:12])[H:10])([H:7])([H:8])[H:9]"
C       -1.38897229      -0.93575319      -0.35656940
C       -0.84541296       0.43616488      -0.59360909
C       -0.06169144       1.20306911       0.27192854
C        1.08812590       0.46814356      -0.37144247
C        1.74925244      -0.40474451       0.51129750
O        1.72771810      -0.20007559       1.77715475
H       -0.71152631      -1.57815069       0.20190035
H       -2.34267216      -0.90249461       0.17591689
H       -1.57375614      -1.44097994      -1.30841396
H       -1.43302719       1.01518919      -1.30334449
H        0.24822315       0.50141047       1.55470989
H       -0.08201868       2.28384550       0.18912160
H        1.73426628       1.02314115      -1.03841037
H        1.89149131      -1.46876533       0.28976027
14
Frame=15 idx=006252 GeodesicLength=1.1863659535534494 rxn_smarts="[C:1]([C@@:2]1([H:10])[C:3]([H:11])([H:12])[C@:4]1([C:5](=[O:6])[H:14])[H:13])([H:7])([H:8])[H:9]>>[C:1](/[C:2](=[C:3]([C:4](=[C:5](/[O:6][H:11])[H:14])\[H:13])/[H:12])[H:10])([H:7])([H:8])[H:9]"
C       -1.38516876      -0.93825444      -0.35519342
C       -0.82893504       0.42836794      -0.60252655
C       -0.06863714       1.20890679       0.27282244
C        1.07982302       0.47739977      -0.37501515
C        1.74340420      -0.40668149       0.49867150
O        1.75296794      -0.19261693       1.76480046
H       -0.70835003      -1.58754543       0.19599577
H       -2.33098334      -0.89705110       0.19028669
H       -1.58569446      -1.44466769      -1.30310705
H       -1.40778996       1.00197592      -1.32334906
H        0.25525030       0.48884330       1.57403778
H       -0.09412575       2.28875282       0.18212320
H        1.73936910       1.05173665      -1.01250244
H        1.83886992      -1.47916612       0.29295585
14
Frame=16 idx=006252 GeodesicLength=1.2654319769943487 rxn_smarts="[C:1]([C@@:2]1([H:10])[C:3]([H:11])([H:12])[C@:4]1([C:5](=[O:6])[H:14])[H:13])([H:7])([H:8])[H:9]>>[C:1](/[C:2](=[C:3]([C:4](=[C:5](/[O:6][H:11])[H:14])\[H:13])/[H:12])[H:10])([H:7])([H:8])[H:9]"
C       -1.38152495      -0.94051637      -0.35412669
C       -0.81287400       0.42086326      -0.61099056
C       -0.07560659       1.21472934       0.27320854
C        1.07157143       0.48630041      -0.37852409
C        1.73747257      -0.40863082       0.48634473
O        1.77770563      -0.18563072       1.75202438
H       -0.70533383      -1.59703000       0.18920408
H       -2.31909463      -0.89188657       0.20447181
H       -1.59796271      -1.44728665      -1.29823630
H       -1.38316662       0.98915447      -1.34235438
H        0.26270871       0.47560543       1.59353956
H       -0.10593512       2.29356832       0.17454705
H        1.74357419       1.07816841      -0.98701215
H        1.78846593      -1.48740849       0.29790402
