11
Frame=0 idx=009460 GeodesicLength=0.0 rxn_smarts="[O:1]([c+:2]1[n-:3][c:4]([O:5][H:9])[c:6]([H:10])[n:7]1[H:11])[H:8]>>[O:1]=[c:2]1[n:3]([H:8])[c:4]([O:5][H:9])[c:6]([H:10])[n:7]1[H:11]"
O       -2.32558288       0.74234397       0.00971140
C       -1.21640154       0.10976924      -0.02526579
N       -0.19873427       0.95927767       0.09494069
C        0.96181210       0.21872293       0.05297234
O        2.18425356       0.76115880       0.14871452
C        0.64116500      -1.09005800      -0.09516666
N       -0.77507319      -1.14285117      -0.14408169
H       -1.28159120       1.65694295       0.13871188
H        2.09399740       1.71285753       0.23018427
H        1.25901531      -1.96562253      -0.16834473
H       -1.34286026      -1.96254140      -0.24237623
11
Frame=1 idx=009460 GeodesicLength=0.03442966679041416 rxn_smarts="[O:1]([c+:2]1[n-:3][c:4]([O:5][H:9])[c:6]([H:10])[n:7]1[H:11])[H:8]>>[O:1]=[c:2]1[n:3]([H:8])[c:4]([O:5][H:9])[c:6]([H:10])[n:7]1[H:11]"
O       -2.32646312       0.73697992       0.01622904
C       -1.21549369       0.11313532      -0.07800317
N       -0.20035411       0.95858515       0.09954351
C        0.96081108       0.22040190       0.04412500
O        2.17909280       0.75551637       0.20929097
C        0.64255941      -1.08825036      -0.10861571
N       -0.77342058      -1.14453604      -0.13213550
H       -1.28842498       1.66383299       0.15535970
H        2.10444554       1.71182073       0.19590132
H        1.26075164      -1.96316327      -0.18710493
H       -1.34350399      -1.96432271      -0.21459024
11
Frame=2 idx=009460 GeodesicLength=0.0697433767042719 rxn_smarts="[O:1]([c+:2]1[n-:3][c:4]([O:5][H:9])[c:6]([H:10])[n:7]1[H:11])[H:8]>>[O:1]=[c:2]1[n:3]([H:8])[c:4]([O:5][H:9])[c:6]([H:10])[n:7]1[H:11]"
O       -2.32726024       0.72862778       0.03000769
C       -1.21521416       0.11551652      -0.11527685
N       -0.20225260       0.95968394       0.09324707
C        0.95921498       0.22211003       0.04306650
O        2.17101231       0.75350664       0.26066622
C        0.64403321      -1.08552979      -0.12212084
N       -0.77124866      -1.14357952      -0.13741513
H       -1.29655434       1.66922492       0.17664526
H        2.11931448       1.70577989       0.15737731
H        1.26222268      -1.96177765      -0.18427966
H       -1.34326766      -1.96356276      -0.20191757
11
Frame=3 idx=009460 GeodesicLength=0.1057821991808239 rxn_smarts="[O:1]([c+:2]1[n-:3][c:4]([O:5][H:9])[c:6]([H:10])[n:7]1[H:11])[H:8]>>[O:1]=[c:2]1[n:3]([H:8])[c:4]([O:5][H:9])[c:6]([H:10])[n:7]1[H:11]"
O       -2.32811990       0.71940546       0.04296994
C       -1.21577512       0.11704967      -0.14424824
N       -0.20459417       0.96220800       0.08098215
C        0.95682879       0.22425320       0.04621403
O        2.16025397       0.75444687       0.30932667
C        0.64544857      -1.08255725      -0.12997480
N       -0.76901573      -1.14239651      -0.14268682
H       -1.30537335       1.67425522       0.19604488
H        2.13827729       1.69444585       0.11942497
H        1.26444259      -1.95875133      -0.18481447
H       -1.34237293      -1.96235918      -0.19323832
11
Frame=4 idx=009460 GeodesicLength=0.14223019274447196 rxn_smarts="[O:1]([c+:2]1[n-:3][c:4]([O:5][H:9])[c:6]([H:10])[n:7]1[H:11])[H:8]>>[O:1]=[c:2]1[n:3]([H:8])[c:4]([O:5][H:9])[c:6]([H:10])[n:7]1[H:11]"
O       -2.32901059       0.71023987       0.05187355
C       -1.21653701       0.11830396      -0.16910837
N       -0.20733810       0.96495840       0.07069246
C        0.95383807       0.22658902       0.05311799
O        2.14872388       0.75852296       0.35031730
C        0.64679349      -1.07964566      -0.13204703
N       -0.76678348      -1.14106343      -0.14791377
H       -1.31461529       1.67854547       0.21692065
H        2.15903161       1.67920126       0.08116436
H        1.26717038      -1.95498197      -0.18508309
H       -1.34127296      -1.96066987      -0.18993407
11
Frame=5 idx=009460 GeodesicLength=0.1792101419614488 rxn_smarts="[O:1]([c+:2]1[n-:3][c:4]([O:5][H:9])[c:6]([H:10])[n:7]1[H:11])[H:8]>>[O:1]=[c:2]1[n:3]([H:8])[c:4]([O:5][H:9])[c:6]([H:10])[n:7]1[H:11]"
O       -2.33000840       0.70080903       0.06063346
C       -1.21795335       0.11911095      -0.19119923
N       -0.21047877       0.96846550       0.05713608
C        0.95042312       0.23000890       0.05686248
O        2.13535954       0.76452670       0.38809738
C        0.64814171      -1.07607898      -0.13449466
N       -0.76450793      -1.13967323      -0.15244263
H       -1.32399398       1.68212253       0.23821260
H        2.18245550       1.66018422       0.04790942
H        1.27027267      -1.95039010      -0.18384862
H       -1.33971011      -1.95908553      -0.18686628
11
Frame=6 idx=009460 GeodesicLength=0.21639982791971585 rxn_smarts="[O:1]([c+:2]1[n-:3][c:4]([O:5][H:9])[c:6]([H:10])[n:7]1[H:11])[H:8]>>[O:1]=[c:2]1[n:3]([H:8])[c:4]([O:5][H:9])[c:6]([H:10])[n:7]1[H:11]"
O       -2.33128596       0.69182452       0.06394076
C       -1.21886947       0.12022835      -0.21173812
N       -0.21403021       0.97159867       0.05080460
C        0.94637238       0.23309487       0.06827021
O        2.12331410       0.77361843       0.41823542
C        0.64939458      -1.07283917      -0.12961770
N       -0.76220182      -1.13803343      -0.15775120
H       -1.33419611       1.68497659       0.26149221
H        2.20576433       1.63764319       0.00959072
H        1.27395787      -1.94517973      -0.18299558
H       -1.33821969      -1.95693229      -0.19023133
11
Frame=7 idx=009460 GeodesicLength=0.2539689917417018 rxn_smarts="[O:1]([c+:2]1[n-:3][c:4]([O:5][H:9])[c:6]([H:10])[n:7]1[H:11])[H:8]>>[O:1]=[c:2]1[n:3]([H:8])[c:4]([O:5][H:9])[c:6]([H:10])[n:7]1[H:11]"
O       -2.33220761       0.68227856       0.07217581
C       -1.22111358       0.12030108      -0.23039145
N       -0.21779040       0.97557769       0.03530958
C        0.94235401       0.23771140       0.06870858
O        2.10794987       0.78232090       0.44985982
C        0.65080711      -1.06841776      -0.13339079
N       -0.75981858      -1.13670386      -0.16189833
H       -1.34351357       1.68834914       0.27942804
H        2.23179447       1.61342430      -0.01308770
H        1.27777246      -1.93919120      -0.18405040
H       -1.33623417      -1.95565024      -0.18266317
11
Frame=8 idx=009460 GeodesicLength=0.2913817986579286 rxn_smarts="[O:1]([c+:2]1[n-:3][c:4]([O:5][H:9])[c:6]([H:10])[n:7]1[H:11])[H:8]>>[O:1]=[c:2]1[n:3]([H:8])[c:4]([O:5][H:9])[c:6]([H:10])[n:7]1[H:11]"
O       -2.33338783       0.67333781       0.07404519
C       -1.22244735       0.12093769      -0.24881907
N       -0.22180819       0.97912260       0.02733902
C        0.93776185       0.24185865       0.07737291
O        2.09466078       0.79364527       0.47438063
C        0.65210786      -1.06434120      -0.12956873
N       -0.75731549      -1.13498054      -0.16697917
H       -1.35377837       1.69062218       0.30063093
H        2.25642714       1.58588591      -0.04184674
H        1.28212615      -1.93251384      -0.18570542
H       -1.33434655      -1.95357454      -0.18084954
11
Frame=9 idx=009460 GeodesicLength=0.32939526859991014 rxn_smarts="[O:1]([c+:2]1[n-:3][c:4]([O:5][H:9])[c:6]([H:10])[n:7]1[H:11])[H:8]>>[O:1]=[c:2]1[n:3]([H:8])[c:4]([O:5][H:9])[c:6]([H:10])[n:7]1[H:11]"
O       -2.33459943       0.66420835       0.07730680
C       -1.22455334       0.12094804      -0.26621092
N       -0.22622202       0.98316296       0.01544793
C        0.93289643       0.24696779       0.08207814
O        2.07943308       0.80596949       0.49908570
C        0.65345066      -1.05965035      -0.12804456
N       -0.75480736      -1.13345874      -0.17098557
H       -1.36388221       1.69296811       0.31957647
H        2.28341321       1.55558786      -0.06382410
H        1.28701476      -1.92479669      -0.19019816
H       -1.33214376      -1.95190681      -0.17423174
11
Frame=10 idx=009460 GeodesicLength=0.3673956133590402 rxn_smarts="[O:1]([c+:2]1[n-:3][c:4]([O:5][H:9])[c:6]([H:10])[n:7]1[H:11])[H:8]>>[O:1]=[c:2]1[n:3]([H:8])[c:4]([O:5][H:9])[c:6]([H:10])[n:7]1[H:11]"
O       -2.33611340       0.65547949       0.07671896
C       -1.22606156       0.12140140      -0.28336938
N       -0.23085454       0.98702482       0.00833603
C        0.92786850       0.25213840       0.08938985
O        2.06610573       0.82010108       0.51753405
C        0.65465959      -1.05508886      -0.12248916
N       -0.75223533      -1.13161444      -0.17553056
H       -1.37475871       1.69395993       0.34200077
H        2.30951108       1.52325781      -0.08821801
H        1.29192074      -1.91696038      -0.19163429
H       -1.33004209      -1.94969925      -0.17273825
11
Frame=11 idx=009460 GeodesicLength=0.40573469408388785 rxn_smarts="[O:1]([c+:2]1[n-:3][c:4]([O:5][H:9])[c:6]([H:10])[n:7]1[H:11])[H:8]>>[O:1]=[c:2]1[n:3]([H:8])[c:4]([O:5][H:9])[c:6]([H:10])[n:7]1[H:11]"
O       -2.33746198       0.64657065       0.07812201
C       -1.22838835       0.12130627      -0.29999083
N       -0.23579853       0.99124640      -0.00287874
C        0.92301203       0.25832383       0.09015712
O        2.05086744       0.83423184       0.53531459
C        0.65597830      -1.04982276      -0.12148516
N       -0.74965630      -1.12987963      -0.17980660
H       -1.38501589       1.69463363       0.36329793
H        2.33731995       1.48990814      -0.10394664
H        1.29679333      -1.90883394      -0.19304672
H       -1.32765000      -1.94768443      -0.16573697
11
Frame=12 idx=009460 GeodesicLength=0.44397111101391107 rxn_smarts="[O:1]([c+:2]1[n-:3][c:4]([O:5][H:9])[c:6]([H:10])[n:7]1[H:11])[H:8]>>[O:1]=[c:2]1[n:3]([H:8])[c:4]([O:5][H:9])[c:6]([H:10])[n:7]1[H:11]"
O       -2.33926421       0.63832424       0.07372441
C       -1.22951549       0.12189843      -0.31678710
N       -0.24087443       0.99526762      -0.00757824
C        0.91784207       0.26424508       0.09715779
O        2.03862862       0.85062263       0.54693281
C        0.65704715      -1.04495896      -0.11298856
N       -0.74694085      -1.12772361      -0.18421467
H       -1.39667766       1.69368544       0.38804385
H        2.36324096       1.45360263      -0.12522100
H        1.30200858      -1.89996898      -0.19429905
H       -1.32549474      -1.94499451      -0.16477026
11
Frame=13 idx=009460 GeodesicLength=0.4827309861997474 rxn_smarts="[O:1]([c+:2]1[n-:3][c:4]([O:5][H:9])[c:6]([H:10])[n:7]1[H:11])[H:8]>>[O:1]=[c:2]1[n:3]([H:8])[c:4]([O:5][H:9])[c:6]([H:10])[n:7]1[H:11]"
O       -2.34095682       0.62977497       0.07194059
C       -1.23161504       0.12187254      -0.33301026
N       -0.24642674       0.99973340      -0.01661239
C        0.91271744       0.27130759       0.09813452
O        2.02417020       0.86752739       0.55835423
C        0.65821126      -1.03927985      -0.10856817
N       -0.74422744      -1.12567803      -0.18813627
H       -1.40776171       1.69243430       0.41155687
H        2.39151264       1.41535267      -0.13855590
H        1.30732143      -1.89052309      -0.19599166
H       -1.32294522      -1.94252188      -0.15911158
11
Frame=14 idx=009460 GeodesicLength=0.5215105345225389 rxn_smarts="[O:1]([c+:2]1[n-:3][c:4]([O:5][H:9])[c:6]([H:10])[n:7]1[H:11])[H:8]>>[O:1]=[c:2]1[n:3]([H:8])[c:4]([O:5][H:9])[c:6]([H:10])[n:7]1[H:11]"
O       -2.34260426       0.62136145       0.06999047
C       -1.23382476       0.12178673      -0.34895063
N       -0.25217280       1.00422429      -0.02548624
C        0.90772820       0.27869338       0.09726955
O        2.01020139       0.88490913       0.56675176
C        0.65936186      -1.03337693      -0.10510497
N       -0.74152033      -1.12355923      -0.19210035
H       -1.41877582       1.69048617       0.43553397
H        2.41952855       1.37654104      -0.14856829
H        1.31245052      -1.88119067      -0.19619426
H       -1.32037257      -1.93987536      -0.15314102
11
Frame=15 idx=009460 GeodesicLength=0.5603244230813486 rxn_smarts="[O:1]([c+:2]1[n-:3][c:4]([O:5][H:9])[c:6]([H:10])[n:7]1[H:11])[H:8]>>[O:1]=[c:2]1[n:3]([H:8])[c:4]([O:5][H:9])[c:6]([H:10])[n:7]1[H:11]"
O       -2.34437094       0.61324570       0.06563798
C       -1.23536632       0.12197861      -0.36469381
N       -0.25802833       1.00874094      -0.03138489
C        0.90249427       0.28611290       0.09996296
O        1.99794334       0.90397472       0.57103423
C        0.66040501      -1.02748913      -0.09745976
N       -0.73860895      -1.12120001      -0.19581239
H       -1.43070087       1.68777206       0.46023668
H        2.44605310       1.33471710      -0.16013349
H        1.31792670      -1.87089850      -0.19715369
H       -1.31774702      -1.93695436      -0.15023381
11
Frame=16 idx=009460 GeodesicLength=0.5994085915165727 rxn_smarts="[O:1]([c+:2]1[n-:3][c:4]([O:5][H:9])[c:6]([H:10])[n:7]1[H:11])[H:8]>>[O:1]=[c:2]1[n:3]([H:8])[c:4]([O:5][H:9])[c:6]([H:10])[n:7]1[H:11]"
O       -2.34587634       0.60491563       0.06430769
C       -1.23797497       0.12135275      -0.37966549
N       -0.26425697       1.01338235      -0.04124158
C        0.89749229       0.29430277       0.09664201
O        1.98387575       0.92296387       0.57497338
C        0.66160277      -1.02101978      -0.09443561
N       -0.73581823      -1.11911504      -0.19855207
H       -1.44164517       1.68555139       0.48261549
H        2.47406413       1.29238965      -0.16275321
H        1.32336375      -1.86044686      -0.19964404
H       -1.31482702      -1.93427671      -0.14224658
