9
Frame=0 idx=006700 GeodesicLength=0.0 rxn_smarts="[O:1]=[C:2]([c:3]1[n:4][c:5]([H:9])[n:6][o:7]1)[H:8]>>[O:1]=[c:2]1[c:3]([H:8])[n:4][c:5]([H:9])[n:6][o:7]1"
O       -2.88902701      -0.47617043      -0.46816732
C       -1.84495048      -0.02011284      -0.17154644
C       -0.62916465       0.23816895       0.20237253
N        0.50746461       0.85459370       0.13403551
C        1.63577370       0.25027901       0.02247352
N        1.70807220      -1.15740960       0.00246837
O        0.61215865      -1.67329982      -0.06395536
H       -1.66815365       1.18866477       0.31807631
H        2.56782663       0.79528628       0.02424288
9
Frame=1 idx=006700 GeodesicLength=0.12343422235140197 rxn_smarts="[O:1]=[C:2]([c:3]1[n:4][c:5]([H:9])[n:6][o:7]1)[H:8]>>[O:1]=[c:2]1[c:3]([H:8])[n:4][c:5]([H:9])[n:6][o:7]1"
O       -2.85159900      -0.53753949      -0.42045466
C       -1.80865657      -0.04143682      -0.18799713
C       -0.61626681       0.26057498       0.25384612
N        0.51710239       0.87937540       0.16413882
C        1.63562089       0.24821690       0.03589918
N        1.66882479      -1.15189249      -0.03489288
O        0.54542917      -1.63226182      -0.09627210
H       -1.67106261       1.20441134       0.24365469
H        2.58060776       0.77055202       0.04207795
9
Frame=2 idx=006700 GeodesicLength=0.2481132367492231 rxn_smarts="[O:1]=[C:2]([c:3]1[n:4][c:5]([H:9])[n:6][o:7]1)[H:8]>>[O:1]=[c:2]1[c:3]([H:8])[n:4][c:5]([H:9])[n:6][o:7]1"
O       -2.81574101      -0.58566464      -0.38225594
C       -1.77425911      -0.06174937      -0.20692729
C       -0.60500678       0.27951263       0.29197177
N        0.52492539       0.90141350       0.19061657
C        1.63435615       0.24596448       0.04811963
N        1.63239151      -1.14407173      -0.06563162
O        0.48400617      -1.59258300      -0.11733528
H       -1.67078759       1.20914549       0.18913661
H        2.59011526       0.74803264       0.05230554
9
Frame=3 idx=006700 GeodesicLength=0.3724987701944015 rxn_smarts="[O:1]=[C:2]([c:3]1[n:4][c:5]([H:9])[n:6][o:7]1)[H:8]>>[O:1]=[c:2]1[c:3]([H:8])[n:4][c:5]([H:9])[n:6][o:7]1"
O       -2.78137377      -0.62521213      -0.35322615
C       -1.74245664      -0.08081969      -0.22485390
C       -0.59471311       0.29567258       0.32148923
N        0.53135668       0.92165295       0.21086770
C        1.63254857       0.24367576       0.05527321
N        1.59857544      -1.13523251      -0.08988304
O        0.42803806      -1.55508219      -0.13086718
H       -1.66991551       1.20854931       0.15071161
H        2.59794028       0.72679591       0.06048852
9
Frame=4 idx=006700 GeodesicLength=0.4962878209113014 rxn_smarts="[O:1]=[C:2]([c:3]1[n:4][c:5]([H:9])[n:6][o:7]1)[H:8]>>[O:1]=[c:2]1[c:3]([H:8])[n:4][c:5]([H:9])[n:6][o:7]1"
O       -2.74838703      -0.65917166      -0.33037529
C       -1.71299653      -0.09821344      -0.24200624
C       -0.58486002       0.30961179       0.34468312
N        0.53683999       0.94021924       0.22507863
C        1.63022376       0.24189593       0.05619435
N        1.56738872      -1.12661726      -0.11024895
O        0.37652233      -1.51924296      -0.13809874
H       -1.66935316       1.20508075       0.12430730
H        2.60462195       0.70643760       0.07046583
9
Frame=5 idx=006700 GeodesicLength=0.6210092422839082 rxn_smarts="[O:1]=[C:2]([c:3]1[n:4][c:5]([H:9])[n:6][o:7]1)[H:8]>>[O:1]=[c:2]1[c:3]([H:8])[n:4][c:5]([H:9])[n:6][o:7]1"
O       -2.71640054      -0.68906808      -0.31355804
C       -1.68528579      -0.11395178      -0.25896460
C       -0.57539585       0.32163487       0.36403369
N        0.54159976       0.95765766       0.23615941
C        1.62736696       0.24015393       0.05297953
N        1.53850390      -1.11709589      -0.12726246
O        0.32892859      -1.48596149      -0.14002749
H       -1.66931257       1.20031866       0.10713423
H        2.60999553       0.68631212       0.07950572
9
Frame=6 idx=006700 GeodesicLength=0.7451183505331258 rxn_smarts="[O:1]=[C:2]([c:3]1[n:4][c:5]([H:9])[n:6][o:7]1)[H:8]>>[O:1]=[c:2]1[c:3]([H:8])[n:4][c:5]([H:9])[n:6][o:7]1"
O       -2.68541384      -0.71577234      -0.30084806
C       -1.65910525      -0.12804292      -0.27589400
C       -0.56626802       0.33192411       0.38045810
N        0.54566929       0.97372667       0.24491553
C        1.62421143       0.23868472       0.04706407
N        1.51150386      -1.10797421      -0.14136096
O        0.28485511      -1.45432115      -0.13851261
H       -1.66977149       1.19481247       0.09650857
H        2.61431891       0.66696266       0.08766935
9
Frame=7 idx=006700 GeodesicLength=0.8688199710974797 rxn_smarts="[O:1]=[C:2]([c:3]1[n:4][c:5]([H:9])[n:6][o:7]1)[H:8]>>[O:1]=[c:2]1[c:3]([H:8])[n:4][c:5]([H:9])[n:6][o:7]1"
O       -2.65535445      -0.73987978      -0.29135677
C       -1.63421869      -0.14069176      -0.29280997
C       -0.55743462       0.34075574       0.39477540
N        0.54915173       0.98860776       0.25203603
C        1.62081576       0.23737476       0.03946989
N        1.48617599      -1.09914072      -0.15346764
O        0.24386440      -1.42424385      -0.13413745
H       -1.67064172       1.18892364       0.09062388
H        2.61764159       0.64829421       0.09486664
9
Frame=8 idx=006700 GeodesicLength=0.9930109791568386 rxn_smarts="[O:1]=[C:2]([c:3]1[n:4][c:5]([H:9])[n:6][o:7]1)[H:8]>>[O:1]=[c:2]1[c:3]([H:8])[n:4][c:5]([H:9])[n:6][o:7]1"
O       -2.62623512      -0.76184840      -0.28463902
C       -1.61045509      -0.15211651      -0.30976402
C       -0.54886229       0.34833652       0.40766627
N        0.55216995       1.00258791       0.25818341
C        1.61719245       0.23596197       0.03097173
N        1.46253062      -1.09012387      -0.16361690
O        0.20547852      -1.39584354      -0.12766296
H       -1.67178769       1.18292039       0.08832687
H        2.61996865       0.63012554       0.10053461
9
Frame=9 idx=006700 GeodesicLength=1.1171139237140082 rxn_smarts="[O:1]=[C:2]([c:3]1[n:4][c:5]([H:9])[n:6][o:7]1)[H:8]>>[O:1]=[c:2]1[c:3]([H:8])[n:4][c:5]([H:9])[n:6][o:7]1"
O       -2.59797795      -0.78185691      -0.28029252
C       -1.58761595      -0.16242518      -0.32675269
C       -0.54055442       0.35479279       0.41953050
N        0.55475524       1.01560202       0.26381719
C        1.61337835       0.23453672       0.02204205
N        1.44034346      -1.08139687      -0.17215401
O        0.16940823      -1.36876527      -0.11939626
H       -1.67312645       1.17679851       0.08870416
H        2.62138950       0.61271418       0.10450158
9
Frame=10 idx=006700 GeodesicLength=1.2412885060726682 rxn_smarts="[O:1]=[C:2]([c:3]1[n:4][c:5]([H:9])[n:6][o:7]1)[H:8]>>[O:1]=[c:2]1[c:3]([H:8])[n:4][c:5]([H:9])[n:6][o:7]1"
O       -2.57060095      -0.80016640      -0.27775372
C       -1.56561042      -0.17181581      -0.34369543
C       -0.53247128       0.36030863       0.43059469
N        0.55694926       1.02781061       0.26893366
C        1.60942487       0.23303587       0.01294799
N        1.41949579      -1.07287196      -0.17950474
O        0.13534207      -1.34291373      -0.10972826
H       -1.67459768       1.17061093       0.09103968
H        2.62206835       0.59600187       0.10716613
9
Frame=11 idx=006700 GeodesicLength=1.365531309523858 rxn_smarts="[O:1]=[C:2]([c:3]1[n:4][c:5]([H:9])[n:6][o:7]1)[H:8]>>[O:1]=[c:2]1[c:3]([H:8])[n:4][c:5]([H:9])[n:6][o:7]1"
O       -2.54408853      -0.81697431      -0.27659726
C       -1.54433897      -0.18045892      -0.36052104
C       -0.52458165       0.36504153       0.44102594
N        0.55878731       1.03933258       0.27355485
C        1.60536532       0.23145764       0.00384549
N        1.39985628      -1.06453916      -0.18603684
O        0.10304068      -1.31814870      -0.09892289
H       -1.67615143       1.16436648       0.09478954
H        2.62211099       0.57992286       0.10886220
9
Frame=12 idx=006700 GeodesicLength=1.4897611651739895 rxn_smarts="[O:1]=[C:2]([c:3]1[n:4][c:5]([H:9])[n:6][o:7]1)[H:8]>>[O:1]=[c:2]1[c:3]([H:8])[n:4][c:5]([H:9])[n:6][o:7]1"
O       -2.51842179      -0.83244752      -0.27641343
C       -1.52372622      -0.18851394      -0.37714834
C       -0.51685240       0.36913418       0.45091577
N        0.56029027       1.05026686       0.27760899
C        1.60124323       0.22981271      -0.00514531
N        1.38127405      -1.05641675      -0.19213801
O        0.07231002      -1.29432023      -0.08720690
H       -1.67775583       1.15805946       0.09952637
H        2.62163868       0.56442524       0.11000085
9
Frame=13 idx=006700 GeodesicLength=1.6140669324267165 rxn_smarts="[O:1]=[C:2]([c:3]1[n:4][c:5]([H:9])[n:6][o:7]1)[H:8]>>[O:1]=[c:2]1[c:3]([H:8])[n:4][c:5]([H:9])[n:6][o:7]1"
O       -2.49358296      -0.84673816      -0.27696218
C       -1.50370093      -0.19611426      -0.39354377
C       -0.50925681       0.37269801       0.46037022
N        0.56149250       1.06072037       0.28112792
C        1.59707676       0.22807425      -0.01390715
N        1.36366118      -1.04843341      -0.19794998
O        0.04297260      -1.27132628      -0.07481087
H       -1.67937879       1.15169684       0.10496102
H        2.62071645       0.54942265       0.11071478
9
Frame=14 idx=006700 GeodesicLength=1.7383605951659264 rxn_smarts="[O:1]=[C:2]([c:3]1[n:4][c:5]([H:9])[n:6][o:7]1)[H:8]>>[O:1]=[c:2]1[c:3]([H:8])[n:4][c:5]([H:9])[n:6][o:7]1"
O       -2.46954191      -0.85996621      -0.27797116
C       -1.48420847      -0.20337690      -0.40965401
C       -0.50176691       0.37583034       0.46943133
N        0.56240561       1.07075945       0.28405151
C        1.59289814       0.22625809      -0.02240027
N        1.34688963      -1.04060777      -0.20367186
O        0.01489723      -1.24903389      -0.06194077
H       -1.68100444       1.14526936       0.11086655
H        2.61943111       0.53486755       0.11128868
9
Frame=15 idx=006700 GeodesicLength=1.862681528852622 rxn_smarts="[O:1]=[C:2]([c:3]1[n:4][c:5]([H:9])[n:6][o:7]1)[H:8]>>[O:1]=[c:2]1[c:3]([H:8])[n:4][c:5]([H:9])[n:6][o:7]1"
O       -2.44627379      -0.87223598      -0.27931506
C       -1.46519323      -0.21039147      -0.42547168
C       -0.49436409       0.37859713       0.47817163
N        0.56305286       1.08044788       0.28643622
C        1.58871681       0.22435190      -0.03057882
N        1.33089147      -1.03290753      -0.20929427
O       -0.01204583      -1.22735659      -0.04879311
H       -1.68261032       1.13878261       0.11709954
H        2.61782613       0.52071204       0.11174554
9
Frame=16 idx=006700 GeodesicLength=1.9869892525259876 rxn_smarts="[O:1]=[C:2]([c:3]1[n:4][c:5]([H:9])[n:6][o:7]1)[H:8]>>[O:1]=[c:2]1[c:3]([H:8])[n:4][c:5]([H:9])[n:6][o:7]1"
O       -2.42374136      -0.88361467      -0.28090349
C       -1.44659870      -0.21722347      -0.44099157
C       -0.48703744       0.38104275       0.48664495
N        0.56344253       1.08980891       0.28834117
C        1.58453960       0.22235909      -0.03842909
N        1.31559258      -1.02535801      -0.21478445
O       -0.03796391      -1.20620258      -0.03552759
H       -1.68418100       1.13223363       0.12355806
H        2.61594770       0.50695435       0.11209202
