11
Frame=0 idx=000233 GeodesicLength=0.0 rxn_smarts="[C:1]([C:2]#[C:3][C:4]([C:5]#[N:6])([H:10])[H:11])([H:7])([H:8])[H:9]>>[C:1]([C:2]#[C:3][C:4](=[C:5]=[N:6][H:10])[H:11])([H:7])([H:8])[H:9]"
C       -2.38598387      -0.22380827      -0.55257063
C       -1.01457376      -0.19563422      -0.06361901
C        0.11757380      -0.17793913       0.34218631
C        1.44271404      -0.17050563       0.83006028
C        2.51741835       0.10176517      -0.00020178
N        3.43760275       0.46478083      -0.67825151
H       -2.67618203       0.74566129      -0.96184124
H       -3.07368839      -0.46337984       0.25999391
H       -2.51156454      -0.97515776      -1.33409411
H        2.47937154       1.23731746       0.28478628
H        1.66731210      -0.34309995       1.87355147
11
Frame=1 idx=000233 GeodesicLength=0.08261690558773518 rxn_smarts="[C:1]([C:2]#[C:3][C:4]([C:5]#[N:6])([H:10])[H:11])([H:7])([H:8])[H:9]>>[C:1]([C:2]#[C:3][C:4](=[C:5]=[N:6][H:10])[H:11])([H:7])([H:8])[H:9]"
C       -2.38701907      -0.22622608      -0.55281715
C       -1.01645125      -0.18527801      -0.06206358
C        0.11515238      -0.15851362       0.34404279
C        1.44021575      -0.14116572       0.83586822
C        2.52073335       0.07465174      -0.00342208
N        3.43592148       0.44886152      -0.68027230
H       -2.69295702       0.74633726      -0.94280054
H       -3.07158705      -0.49417535       0.25358611
H       -2.49891153      -0.96347695      -1.34975026
H        2.48971886       1.23777355       0.28263992
H        1.66518411      -0.33878833       1.87498886
11
Frame=2 idx=000233 GeodesicLength=0.16525804974006464 rxn_smarts="[C:1]([C:2]#[C:3][C:4]([C:5]#[N:6])([H:10])[H:11])([H:7])([H:8])[H:9]>>[C:1]([C:2]#[C:3][C:4](=[C:5]=[N:6][H:10])[H:11])([H:7])([H:8])[H:9]"
C       -2.38765101      -0.22863527      -0.55273913
C       -1.01784266      -0.17610834      -0.06088738
C        0.11339318      -0.14056119       0.34467769
C        1.43814271      -0.11110488       0.84094991
C        2.52343697       0.04611157      -0.00546703
N        3.43464377       0.43008598      -0.68031547
H       -2.71055093       0.74765098      -0.91891454
H       -3.06766606      -0.52863590       0.24611665
H       -2.48611924      -0.94783754      -1.36763405
H        2.49910223       1.23886475       0.27773945
H        1.66111104      -0.32983017       1.87647390
11
Frame=3 idx=000233 GeodesicLength=0.2478774199504954 rxn_smarts="[C:1]([C:2]#[C:3][C:4]([C:5]#[N:6])([H:10])[H:11])([H:7])([H:8])[H:9]>>[C:1]([C:2]#[C:3][C:4](=[C:5]=[N:6][H:10])[H:11])([H:7])([H:8])[H:9]"
C       -2.38792377      -0.23094229      -0.55248649
C       -1.01896443      -0.16798118      -0.05940234
C        0.11203424      -0.12397954       0.34511149
C        1.43686246      -0.08202595       0.84486347
C        2.52526554       0.01665971      -0.00705249
N        3.43306037       0.41065006      -0.67900600
H       -2.72759939       0.74882636      -0.89312426
H       -3.06271969      -0.56386290       0.23765868
H       -2.47370121      -0.93002666      -1.38605633
H        2.50726956       1.24053745       0.27181977
H        1.65641632      -0.31785504       1.87767451
11
Frame=4 idx=000233 GeodesicLength=0.33049897012220936 rxn_smarts="[C:1]([C:2]#[C:3][C:4]([C:5]#[N:6])([H:10])[H:11])([H:7])([H:8])[H:9]>>[C:1]([C:2]#[C:3][C:4](=[C:5]=[N:6][H:10])[H:11])([H:7])([H:8])[H:9]"
C       -2.38807376      -0.23332672      -0.55205717
C       -1.01998723      -0.15973937      -0.05785875
C        0.11090421      -0.10688169       0.34509742
C        1.43624794      -0.05370509       0.84740828
C        2.52643562      -0.01431961      -0.00804282
N        3.43171991       0.38926682      -0.67611826
H       -2.74598139       0.74949756      -0.86399701
H       -3.05627466      -0.60197954       0.22778541
H       -2.46105321      -0.90917840      -1.40577290
H        2.51525138       1.24229443       0.26477037
H        1.65081119      -0.30192838       1.87878542
11
Frame=5 idx=000233 GeodesicLength=0.4131302218895625 rxn_smarts="[C:1]([C:2]#[C:3][C:4]([C:5]#[N:6])([H:10])[H:11])([H:7])([H:8])[H:9]>>[C:1]([C:2]#[C:3][C:4](=[C:5]=[N:6][H:10])[H:11])([H:7])([H:8])[H:9]"
C       -2.38811078      -0.23587296      -0.55151465
C       -1.02113026      -0.15067292      -0.05578244
C        0.10973519      -0.08806465       0.34517738
C        1.43627440      -0.02595931       0.84868054
C        2.52665875      -0.04711922      -0.00852850
N        3.43040523       0.36531212      -0.67194492
H       -2.76640737       0.74904504      -0.83125245
H       -3.04809418      -0.64381016       0.21572187
H       -2.44751764      -0.88469719      -1.42698179
H        2.52350225       1.24388487       0.25650402
H        1.64468441      -0.28204562       1.87992093
11
Frame=6 idx=000233 GeodesicLength=0.4957647085039796 rxn_smarts="[C:1]([C:2]#[C:3][C:4]([C:5]#[N:6])([H:10])[H:11])([H:7])([H:8])[H:9]>>[C:1]([C:2]#[C:3][C:4](=[C:5]=[N:6][H:10])[H:11])([H:7])([H:8])[H:9]"
C       -2.38780569      -0.23850632      -0.55078253
C       -1.02213533      -0.14209417      -0.05350731
C        0.10880386      -0.06939209       0.34464727
C        1.43672721       0.00164318       0.84861925
C        2.52609424      -0.08217439      -0.00750957
N        3.42917779       0.33782364      -0.66569376
H       -2.78831509       0.74767233      -0.79211141
H       -3.03743976      -0.69064600       0.20024635
H       -2.43380857      -0.85419994      -1.45057805
H        2.53108237       1.24545005       0.24511277
H        1.63761898      -0.25557629       1.88155698
11
Frame=7 idx=000233 GeodesicLength=0.5784353892090667 rxn_smarts="[C:1]([C:2]#[C:3][C:4]([C:5]#[N:6])([H:10])[H:11])([H:7])([H:8])[H:9]>>[C:1]([C:2]#[C:3][C:4](=[C:5]=[N:6][H:10])[H:11])([H:7])([H:8])[H:9]"
C       -2.38746621      -0.24138608      -0.54996869
C       -1.02333570      -0.13253127      -0.05077208
C        0.10777722      -0.04868764       0.34403893
C        1.43776074       0.02932319       0.84727641
C        2.52448778      -0.11950161      -0.00523267
N        3.42810066       0.30663339      -0.65763884
H       -2.81307061       0.74393827      -0.74769108
H       -3.02409911      -0.74228712       0.18100903
H       -2.41960098      -0.81811608      -1.47580105
H        2.53920097       1.24671341       0.23144295
H        1.63024524      -0.22409848       1.88333707
11
Frame=8 idx=000233 GeodesicLength=0.6610743524324173 rxn_smarts="[C:1]([C:2]#[C:3][C:4]([C:5]#[N:6])([H:10])[H:11])([H:7])([H:8])[H:9]>>[C:1]([C:2]#[C:3][C:4](=[C:5]=[N:6][H:10])[H:11])([H:7])([H:8])[H:9]"
C       -2.38658743      -0.24432033      -0.54910552
C       -1.02463235      -0.12317284      -0.04672283
C        0.10664631      -0.02738621       0.34403863
C        1.43934903       0.05660121       0.84473558
C        2.52122104      -0.15860477      -0.00173133
N        3.42582635       0.27310867      -0.64810129
H       -2.83850776       0.73756478      -0.69975877
H       -3.00824939      -0.79618232       0.15756301
H       -2.40504912      -0.77702436      -1.50123045
H        2.54666626       1.24807223       0.21544289
H        1.62331706      -0.18865604       1.88487008
11
Frame=9 idx=000233 GeodesicLength=0.7438218668006776 rxn_smarts="[C:1]([C:2]#[C:3][C:4]([C:5]#[N:6])([H:10])[H:11])([H:7])([H:8])[H:9]>>[C:1]([C:2]#[C:3][C:4](=[C:5]=[N:6][H:10])[H:11])([H:7])([H:8])[H:9]"
C       -2.38600271      -0.24714591      -0.54803635
C       -1.02583972      -0.11427442      -0.04316027
C        0.10592872      -0.00659751       0.34270523
C        1.44191728       0.08176930       0.84024982
C        2.51746705      -0.19760219       0.00189006
N        3.42387406       0.24204173      -0.63590334
H       -2.86254454       0.72881946      -0.65454025
H       -2.99196312      -0.84534438       0.13425865
H       -2.39343288      -0.73739893      -1.52295509
H        2.55347763       1.25077620       0.20093255
H        1.61711824      -0.15504336       1.88455898
11
Frame=10 idx=000233 GeodesicLength=0.8264707513939963 rxn_smarts="[C:1]([C:2]#[C:3][C:4]([C:5]#[N:6])([H:10])[H:11])([H:7])([H:8])[H:9]>>[C:1]([C:2]#[C:3][C:4](=[C:5]=[N:6][H:10])[H:11])([H:7])([H:8])[H:9]"
C       -2.38512759      -0.24986114      -0.54654269
C       -1.02672971      -0.10508472      -0.04020301
C        0.10571083       0.01442075       0.33924586
C        1.44489429       0.10522772       0.83355348
C        2.51266764      -0.23695057       0.00606582
N        3.42175661       0.21232556      -0.62052429
H       -2.88591206       0.71776616      -0.61060404
H       -2.97375223      -0.89124504       0.11115308
H       -2.38367652      -0.69840439      -1.54135790
H        2.55976452       1.25459311       0.18724300
H        1.61040421      -0.12278745       1.88197069
11
Frame=11 idx=000233 GeodesicLength=0.9091753991322913 rxn_smarts="[C:1]([C:2]#[C:3][C:4]([C:5]#[N:6])([H:10])[H:11])([H:7])([H:8])[H:9]>>[C:1]([C:2]#[C:3][C:4](=[C:5]=[N:6][H:10])[H:11])([H:7])([H:8])[H:9]"
C       -2.38421571      -0.25214636      -0.54481202
C       -1.02728232      -0.09657472      -0.03778595
C        0.10597531       0.03351650       0.33481050
C        1.44883967       0.12476852       0.82513548
C        2.50724519      -0.27461184       0.00834898
N        3.41874531       0.18941620      -0.60344607
H       -2.90438289       0.70664841      -0.57585291
H       -2.95775642      -0.92681847       0.09251962
H       -2.37665116      -0.66746134      -1.55375586
H        2.56441355       1.26117011       0.17811952
H        1.60506949      -0.09790702       1.87671872
11
Frame=12 idx=000233 GeodesicLength=0.991925169780292 rxn_smarts="[C:1]([C:2]#[C:3][C:4]([C:5]#[N:6])([H:10])[H:11])([H:7])([H:8])[H:9]>>[C:1]([C:2]#[C:3][C:4](=[C:5]=[N:6][H:10])[H:11])([H:7])([H:8])[H:9]"
C       -2.38337244      -0.25425577      -0.54290587
C       -1.02769884      -0.08793640      -0.03559779
C        0.10665127       0.05220665       0.32938433
C        1.45359077       0.14209330       0.81533749
C        2.50125362      -0.31212861       0.00988115
N        3.41531600       0.16922302      -0.58441427
H       -2.92135723       0.69510751      -0.54485212
H       -2.94214309      -0.95794696       0.07586218
H       -2.37111465      -0.63987514      -1.56350294
H        2.56847017       1.26964854       0.17091410
H        1.60040440      -0.07613613       1.86989373
11
Frame=13 idx=000233 GeodesicLength=1.074702976254006 rxn_smarts="[C:1]([C:2]#[C:3][C:4]([C:5]#[N:6])([H:10])[H:11])([H:7])([H:8])[H:9]>>[C:1]([C:2]#[C:3][C:4](=[C:5]=[N:6][H:10])[H:11])([H:7])([H:8])[H:9]"
C       -2.38238921      -0.25642109      -0.54072933
C       -1.02801706      -0.07840565      -0.03372661
C        0.10759227       0.07197419       0.32251999
C        1.45875284       0.15868602       0.80413361
C        2.49430023      -0.35081648       0.01204190
N        3.41164161       0.14816632      -0.56288119
H       -2.93879598       0.68180100      -0.51255514
H       -2.92473234      -0.98938901       0.05835889
H       -2.36646373      -0.61103059      -1.57243887
H        2.57277710       1.27915349       0.16325387
H        1.59533427      -0.05371820       1.86202287
11
Frame=14 idx=000233 GeodesicLength=1.1575220962724193 rxn_smarts="[C:1]([C:2]#[C:3][C:4]([C:5]#[N:6])([H:10])[H:11])([H:7])([H:8])[H:9]>>[C:1]([C:2]#[C:3][C:4](=[C:5]=[N:6][H:10])[H:11])([H:7])([H:8])[H:9]"
C       -2.38114343      -0.25825179      -0.53830692
C       -1.02790747      -0.06807085      -0.03251116
C        0.10909218       0.09118344       0.31464308
C        1.46465882       0.17176822       0.79164022
C        2.48648563      -0.38805879       0.01139365
N        3.40606039       0.13294551      -0.54044344
H       -2.95271189       0.66990755      -0.48921145
H       -2.90913317      -1.01245023       0.04703657
H       -2.36284771      -0.59121855      -1.57711400
H        2.57639461       1.29143531       0.16115537
H        1.59105204      -0.03918982       1.85171807
11
Frame=15 idx=000233 GeodesicLength=1.2405417095465319 rxn_smarts="[C:1]([C:2]#[C:3][C:4]([C:5]#[N:6])([H:10])[H:11])([H:7])([H:8])[H:9]>>[C:1]([C:2]#[C:3][C:4](=[C:5]=[N:6][H:10])[H:11])([H:7])([H:8])[H:9]"
C       -2.37978452      -0.26018910      -0.53575979
C       -1.02757150      -0.05696059      -0.03202437
C        0.11095943       0.11116937       0.30532687
C        1.47099525       0.18464851       0.77814811
C        2.47809291      -0.42684655       0.01223684
N        3.39956663       0.11576813      -0.51632400
H       -2.96754028       0.65619226      -0.46288509
H       -2.89133684      -1.03725201       0.03402411
H       -2.36028761      -0.56874554      -1.58203603
H        2.58065729       1.30461663       0.15818427
H        1.58624923      -0.02240110       1.84110909
11
Frame=16 idx=000233 GeodesicLength=1.323349269434488 rxn_smarts="[C:1]([C:2]#[C:3][C:4]([C:5]#[N:6])([H:10])[H:11])([H:7])([H:8])[H:9]>>[C:1]([C:2]#[C:3][C:4](=[C:5]=[N:6][H:10])[H:11])([H:7])([H:8])[H:9]"
C       -2.37791544      -0.26189323      -0.53315828
C       -1.02669149      -0.04671443      -0.03157050
C        0.11332677       0.12933253       0.29584577
C        1.47782268       0.19586265       0.76395192
C        2.46913854      -0.46563697       0.01341517
N        3.39054713       0.10036224      -0.49190882
H       -2.98008193       0.64300728      -0.43852036
H       -2.87395845      -1.05929634       0.02201798
H       -2.35809570      -0.54792193      -1.58576933
H        2.58406550       1.31958502       0.15609747
H        1.58184238      -0.00668681       1.82959899
