14
Frame=0 idx=001531 GeodesicLength=0.0 rxn_smarts="[C:1]([C@:2]12[C:3]([H:10])([H:11])[C@@:4]1([H:12])[C:5]([H:13])([H:14])[O:6]2)([H:7])([H:8])[H:9]>>[C:1]([C@@:2]1([H:12])[C:3]([H:10])([H:11])[C:4][C:5]([H:13])([H:14])[O:6]1)([H:7])([H:8])[H:9]"
C       -1.82103458      -0.08129412       0.29547487
C       -0.34127569      -0.07084358       0.05423862
C        0.34953578       0.88530126      -0.86859176
C        1.21482419      -0.35335171      -0.97145979
C        1.68318758      -0.49630058       0.48246762
O        0.47669566      -0.18209483       1.19698815
H       -2.11716099      -0.95871199       0.86966664
H       -2.08709582       0.81638880       0.85729191
H       -2.36220570      -0.07089459      -0.65005174
H        0.75677991       1.75083657      -0.35034342
H       -0.17874712       1.14218589      -1.78255846
H       -0.06967973      -1.07791975      -0.57809802
H        2.49764239       0.20471021       0.70073508
H        1.99853417      -1.50801159       0.74424036
14
Frame=1 idx=001531 GeodesicLength=0.05417252614686194 rxn_smarts="[C:1]([C@:2]12[C:3]([H:10])([H:11])[C@@:4]1([H:12])[C:5]([H:13])([H:14])[O:6]2)([H:7])([H:8])[H:9]>>[C:1]([C@@:2]1([H:12])[C:3]([H:10])([H:11])[C:4][C:5]([H:13])([H:14])[O:6]1)([H:7])([H:8])[H:9]"
C       -1.82039916      -0.07846508       0.29825972
C       -0.34176517      -0.07718921       0.05151848
C        0.34602294       0.88391242      -0.86990943
C        1.21909110      -0.34738460      -0.96486957
C        1.68501603      -0.49204965       0.48638402
O        0.47495678      -0.18477519       1.19706576
H       -2.11925792      -0.95447849       0.87330681
H       -2.08148387       0.82017169       0.86093301
H       -2.36524856      -0.06581985      -0.64524351
H        0.75022175       1.75307523      -0.35478821
H       -0.17849763       1.13624806      -1.78726141
H       -0.06693651      -1.09083528      -0.59781992
H        2.49898722       0.20533745       0.71576700
H        1.99929299      -1.50774749       0.73665726
14
Frame=2 idx=001531 GeodesicLength=0.1083229808054513 rxn_smarts="[C:1]([C@:2]12[C:3]([H:10])([H:11])[C@@:4]1([H:12])[C:5]([H:13])([H:14])[O:6]2)([H:7])([H:8])[H:9]>>[C:1]([C@@:2]1([H:12])[C:3]([H:10])([H:11])[C:4][C:5]([H:13])([H:14])[O:6]1)([H:7])([H:8])[H:9]"
C       -1.81972847      -0.07567347       0.30108271
C       -0.34227480      -0.08341004       0.04891942
C        0.34250432       0.88252540      -0.87121138
C        1.22308575      -0.34149198      -0.95821192
C        1.68674189      -0.48782558       0.49034062
O        0.47324680      -0.18726583       1.19723092
H       -2.12122300      -0.95029370       0.87700083
H       -2.07594543       0.82389765       0.86454553
H       -2.36818231      -0.06088095      -0.64041775
H        0.74376877       1.75529786      -0.35933555
H       -0.17823393       1.13033522      -1.79190488
H       -0.06401420      -1.10355849      -0.61795281
H        2.50030010       0.20569726       0.73073228
H        1.99995451      -1.50735337       0.72918197
14
Frame=3 idx=001531 GeodesicLength=0.16245785258301074 rxn_smarts="[C:1]([C@:2]12[C:3]([H:10])([H:11])[C@@:4]1([H:12])[C:5]([H:13])([H:14])[O:6]2)([H:7])([H:8])[H:9]>>[C:1]([C@@:2]1([H:12])[C:3]([H:10])([H:11])[C:4][C:5]([H:13])([H:14])[O:6]1)([H:7])([H:8])[H:9]"
C       -1.81902595      -0.07291887       0.30394580
C       -0.34280483      -0.08950525       0.04644607
C        0.33897937       0.88113912      -0.87249664
C        1.22681196      -0.33567601      -0.95148811
C        1.68836772      -0.48362823       0.49433640
O        0.47156665      -0.18956206       1.19748739
H       -2.12305969      -0.94615554       0.88075451
H       -2.07048582       0.82757126       0.86812708
H       -2.37101027      -0.05608461      -0.63557446
H        0.73742166       1.75750434      -0.36398714
H       -0.17795879       1.12444494      -1.79648746
H       -0.06090247      -1.11608405      -0.63851012
H        2.50158717       0.20578889       0.74562862
H        2.00051328      -1.50683393       0.72181806
14
Frame=4 idx=001531 GeodesicLength=0.21658531949719634 rxn_smarts="[C:1]([C@:2]12[C:3]([H:10])([H:11])[C@@:4]1([H:12])[C:5]([H:13])([H:14])[O:6]2)([H:7])([H:8])[H:9]>>[C:1]([C@@:2]1([H:12])[C:3]([H:10])([H:11])[C:4][C:5]([H:13])([H:14])[O:6]1)([H:7])([H:8])[H:9]"
C       -1.81829484      -0.07020103       0.30685116
C       -0.34335540      -0.09547383       0.04410335
C        0.33544741       0.87975233      -0.87376429
C        1.23027222      -0.32993886      -0.94469835
C        1.68989609      -0.47945679       0.49837137
O        0.46991746      -0.19165809       1.19783910
H       -2.12477085      -0.94206208       0.88457409
H       -2.06511010       0.83119708       0.87167532
H       -2.37373502      -0.05143797      -0.63071300
H        0.73118100       1.75969471      -0.36874509
H       -0.17767466       1.11857383      -1.80100806
H       -0.05758956      -1.12840535      -0.65950787
H        2.50285354       0.20561129       0.76045359
H        2.00096271      -1.50619524       0.71456869
14
Frame=5 idx=001531 GeodesicLength=0.2707095675651776 rxn_smarts="[C:1]([C@:2]12[C:3]([H:10])([H:11])[C@@:4]1([H:12])[C:5]([H:13])([H:14])[O:6]2)([H:7])([H:8])[H:9]>>[C:1]([C@@:2]1([H:12])[C:3]([H:10])([H:11])[C:4][C:5]([H:13])([H:14])[O:6]1)([H:7])([H:8])[H:9]"
C       -1.81753889      -0.06751922       0.30980124
C       -0.34392715      -0.10131520       0.04189620
C        0.33190778       0.87836344      -0.87501351
C        1.23347051      -0.32428326      -0.93784441
C        1.69132941      -0.47531125       0.50244454
O        0.46829989      -0.19354945       1.19828993
H       -2.12636038      -0.93801094       0.88846548
H       -2.05982337       0.83478001       0.87518857
H       -2.37636071      -0.04694695      -0.62583332
H        0.72504699       1.76186809      -0.37361132
H       -0.17738490       1.11271878      -1.80546554
H       -0.05406194      -1.14051545      -0.68096123
H        2.50410462       0.20516277       0.77520480
H        2.00129815      -1.50544138       0.70743858
14
Frame=6 idx=001531 GeodesicLength=0.3248368773918997 rxn_smarts="[C:1]([C@:2]12[C:3]([H:10])([H:11])[C@@:4]1([H:12])[C:5]([H:13])([H:14])[O:6]2)([H:7])([H:8])[H:9]>>[C:1]([C@@:2]1([H:12])[C:3]([H:10])([H:11])[C:4][C:5]([H:13])([H:14])[O:6]1)([H:7])([H:8])[H:9]"
C       -1.81676191      -0.06487275       0.31279823
C       -0.34452066      -0.10702838       0.03982963
C        0.32835977       0.87697099      -0.87624357
C        1.23640964      -0.31871236      -0.93092784
C        1.69267014      -0.47119084       0.50655563
O        0.46671444      -0.19523138       1.19884370
H       -2.12783194      -0.93399959       0.89243475
H       -2.05463076       0.83832488       0.87866492
H       -2.37889119      -0.04261760      -0.62093490
H        0.71902017       1.76402360      -0.37858789
H       -0.17709304       1.10687692      -1.80985860
H       -0.05030452      -1.15240820      -0.70288571
H        2.50534600       0.20444164       0.78987974
H        2.00151385      -1.50457692       0.70043191
14
Frame=7 idx=001531 GeodesicLength=0.37896796900239915 rxn_smarts="[C:1]([C@:2]12[C:3]([H:10])([H:11])[C@@:4]1([H:12])[C:5]([H:13])([H:14])[O:6]2)([H:7])([H:8])[H:9]>>[C:1]([C@@:2]1([H:12])[C:3]([H:10])([H:11])[C:4][C:5]([H:13])([H:14])[O:6]1)([H:7])([H:8])[H:9]"
C       -1.81596753      -0.06226109       0.31584432
C       -0.34513639      -0.11261341       0.03790811
C        0.32480242       0.87557338      -0.87745354
C        1.23909273      -0.31322987      -0.92395030
C        1.69392073      -0.46709536       0.51070442
O        0.46516159      -0.19669903       1.19950402
H       -2.12918916      -0.93002530       0.89648840
H       -2.04953675       0.84183646       0.88210238
H       -2.38133026      -0.03845600      -0.61601688
H        0.71310154       1.76615988      -0.38367651
H       -0.17680228       1.10104529      -1.81418592
H       -0.04630336      -1.16407596      -0.72529772
H        2.50658227       0.20344747       0.80447564
H        2.00160445      -1.50360645       0.69355356
14
Frame=8 idx=001531 GeodesicLength=0.43310648210337777 rxn_smarts="[C:1]([C@:2]12[C:3]([H:10])([H:11])[C@@:4]1([H:12])[C:5]([H:13])([H:14])[O:6]2)([H:7])([H:8])[H:9]>>[C:1]([C@@:2]1([H:12])[C:3]([H:10])([H:11])[C:4][C:5]([H:13])([H:14])[O:6]1)([H:7])([H:8])[H:9]"
C       -1.81515889      -0.05968276       0.31894264
C       -0.34577498      -0.11807103       0.03613570
C        0.32123435       0.87416783      -0.87864299
C        1.24152234      -0.30783683      -0.91691086
C        1.69508340      -0.46302365       0.51489093
O        0.46364179      -0.19794805       1.20027390
H       -2.13043536      -0.92608429       0.90063391
H       -2.04454486       0.84532074       0.88549941
H       -2.38368146      -0.03446797      -0.61107767
H        0.70728926       1.76827563      -0.38887994
H       -0.17651505       1.09521846      -1.81844720
H       -0.04204064      -1.17551030      -0.74821553
H        2.50781617       0.20217979       0.81899182
H        2.00156392      -1.50253757       0.68680588
14
Frame=9 idx=001531 GeodesicLength=0.4872579294255369 rxn_smarts="[C:1]([C@:2]12[C:3]([H:10])([H:11])[C@@:4]1([H:12])[C:5]([H:13])([H:14])[O:6]2)([H:7])([H:8])[H:9]>>[C:1]([C@@:2]1([H:12])[C:3]([H:10])([H:11])[C:4][C:5]([H:13])([H:14])[O:6]1)([H:7])([H:8])[H:9]"
C       -1.81434067      -0.05713620       0.32209615
C       -0.34643811      -0.12340055       0.03451757
C        0.31765431       0.87275175      -0.87981146
C        1.24370280      -0.30253612      -0.90981167
C        1.69615982      -0.45897649       0.51911462
O        0.46215484      -0.19897501       1.20115671
H       -2.13157515      -0.92217264       0.90487844
H       -2.03965970       0.84878358       0.88885487
H       -2.38594972      -0.03065817      -0.60611557
H        0.70158333       1.77036832      -0.39420048
H       -0.17623535       1.08939220      -1.82264147
H       -0.03749478      -1.18670405      -0.77165711
H        2.50905107       0.20063744       0.83342612
H        2.00138731      -1.50137405       0.68019329
14
Frame=10 idx=001531 GeodesicLength=0.5414178711197781 rxn_smarts="[C:1]([C@:2]12[C:3]([H:10])([H:11])[C@@:4]1([H:12])[C:5]([H:13])([H:14])[O:6]2)([H:7])([H:8])[H:9]>>[C:1]([C@@:2]1([H:12])[C:3]([H:10])([H:11])[C:4][C:5]([H:13])([H:14])[O:6]1)([H:7])([H:8])[H:9]"
C       -1.81351640      -0.05462062       0.32530750
C       -0.34712643      -0.12860235       0.03305854
C        0.31406103       0.87132288      -0.88095822
C        1.24563548      -0.29733316      -0.90265443
C        1.69715230      -0.45495294       0.52337545
O        0.46070085      -0.19977489       1.20215619
H       -2.13261228      -0.91828715       0.90922874
H       -2.03488558       0.85222983       0.89216727
H       -2.38813949      -0.02703221      -0.60112977
H        0.69598457       1.77243553      -0.39964049
H       -0.17596742       1.08356317      -1.82676757
H       -0.03264764      -1.19764648      -0.79564075
H        2.51029174       0.19881855       0.84777561
H        2.00106927      -1.50012016       0.67372193
14
Frame=11 idx=001531 GeodesicLength=0.5955877460584389 rxn_smarts="[C:1]([C@:2]12[C:3]([H:10])([H:11])[C@@:4]1([H:12])[C:5]([H:13])([H:14])[O:6]2)([H:7])([H:8])[H:9]>>[C:1]([C@@:2]1([H:12])[C:3]([H:10])([H:11])[C:4][C:5]([H:13])([H:14])[O:6]1)([H:7])([H:8])[H:9]"
C       -1.81269008      -0.05213469       0.32858006
C       -0.34784121      -0.13367608       0.03176394
C        0.31045285       0.86987845      -0.88208271
C        1.24732152      -0.29223344      -0.89544039
C        1.69806233      -0.45095268       0.52767388
O        0.45927984      -0.20034227       1.20327627
H       -2.13355034      -0.91442407       0.91369254
H       -2.03022704       0.85566497       0.89543559
H       -2.39025512      -0.02359575      -0.59611813
H        0.69049398       1.77447410      -0.40520325
H       -0.17571556       1.07772696      -1.83082422
H       -0.02747550      -1.20832602      -0.82018853
H        2.51154097       0.19672182       0.86203725
H        2.00060337      -1.49878130       0.66739770
14
Frame=12 idx=001531 GeodesicLength=0.6497601120053609 rxn_smarts="[C:1]([C@:2]12[C:3]([H:10])([H:11])[C@@:4]1([H:12])[C:5]([H:13])([H:14])[O:6]2)([H:7])([H:8])[H:9]>>[C:1]([C@@:2]1([H:12])[C:3]([H:10])([H:11])[C:4][C:5]([H:13])([H:14])[O:6]1)([H:7])([H:8])[H:9]"
C       -1.81186525      -0.04967642       0.33191693
C       -0.34858393      -0.13862417       0.03063695
C        0.30682834       0.86841512      -0.88318464
C        1.24876418      -0.28723920      -0.88817224
C        1.69889197      -0.44697553       0.53200940
O        0.45789084      -0.20067540       1.20451923
H       -2.13439393      -0.91057808       0.91827786
H       -2.02568622       0.85909562       0.89865879
H       -2.39230155      -0.02035250      -0.59107863
H        0.68510929       1.77648094      -0.41089072
H       -0.17548344       1.07187857      -1.83481123
H       -0.02195681      -1.21873368      -0.84531727
H        2.51280069       0.19434640       0.87621025
H        1.99998581      -1.49736168       0.66122531
14
Frame=13 idx=001531 GeodesicLength=0.7036505869413894 rxn_smarts="[C:1]([C@:2]12[C:3]([H:10])([H:11])[C@@:4]1([H:12])[C:5]([H:13])([H:14])[O:6]2)([H:7])([H:8])[H:9]>>[C:1]([C@@:2]1([H:12])[C:3]([H:10])([H:11])[C:4][C:5]([H:13])([H:14])[O:6]1)([H:7])([H:8])[H:9]"
C       -1.81103924      -0.04722273       0.33531069
C       -0.34934110      -0.14351440       0.02961825
C        0.30318161       0.86693077      -0.88425299
C        1.25007844      -0.28231247      -0.88087291
C        1.69967649      -0.44302224       0.53636090
O        0.45652408      -0.20089715       1.20582433
H       -2.13519348      -0.90672682       0.92292277
H       -2.02121960       0.86252647       0.90183768
H       -2.39427230      -0.01720886      -0.58604002
H        0.67979577       1.77846156      -0.41663223
H       -0.17527996       1.06602848      -1.83874768
H       -0.01626788      -1.22900457      -0.87078907
H        2.51404627       0.19181758       0.89029726
H        1.99931088      -1.49585562       0.65516301
14
Frame=14 idx=001531 GeodesicLength=0.7580945698954684 rxn_smarts="[C:1]([C@:2]12[C:3]([H:10])([H:11])[C@@:4]1([H:12])[C:5]([H:13])([H:14])[O:6]2)([H:7])([H:8])[H:9]>>[C:1]([C@@:2]1([H:12])[C:3]([H:10])([H:11])[C:4][C:5]([H:13])([H:14])[O:6]1)([H:7])([H:8])[H:9]"
C       -1.81023824      -0.04483506       0.33879985
C       -0.35016079      -0.14814748       0.02890545
C        0.29951853       0.86541142      -0.88532083
C        1.25092097      -0.27758831      -0.87346549
C        1.70031195      -0.43909432       0.54078884
O        0.45520966      -0.20061464       1.20738357
H       -2.13581629      -0.90291010       0.92785988
H       -2.01697339       0.86597307       0.90495655
H       -2.39621223      -0.01447706      -0.58090023
H        0.67466004       1.78038096      -0.42265620
H       -0.17510084       1.06012341      -1.84257433
H       -0.00973991      -1.23866030      -0.89740827
H        2.51535596       0.18875029       0.90428053
H        1.99826459      -1.49431188       0.64935068
14
Frame=15 idx=001531 GeodesicLength=0.8121582235540996 rxn_smarts="[C:1]([C@:2]12[C:3]([H:10])([H:11])[C@@:4]1([H:12])[C:5]([H:13])([H:14])[O:6]2)([H:7])([H:8])[H:9]>>[C:1]([C@@:2]1([H:12])[C:3]([H:10])([H:11])[C:4][C:5]([H:13])([H:14])[O:6]1)([H:7])([H:8])[H:9]"
C       -1.80943949      -0.04247939       0.34235057
C       -0.35098156      -0.15273650       0.02828795
C        0.29583923       0.86388129      -0.88635337
C        1.25169468      -0.27290011      -0.86602829
C        1.70094929      -0.43512752       0.54525086
O        0.45391989      -0.20025331       1.20901039
H       -2.13642243      -0.89904384       0.93286321
H       -2.01279355       0.86941612       0.90801436
H       -2.39806363      -0.01182334      -0.57579471
H        0.66951797       1.78230874      -0.42874415
H       -0.17496049       1.05420894      -1.84635635
H       -0.00306383      -1.24822955      -0.92426620
H        2.51669419       0.18556500       0.91820734
H        1.99710973      -1.49278653       0.64355838
14
Frame=16 idx=001531 GeodesicLength=0.8663766050451972 rxn_smarts="[C:1]([C@:2]12[C:3]([H:10])([H:11])[C@@:4]1([H:12])[C:5]([H:13])([H:14])[O:6]2)([H:7])([H:8])[H:9]>>[C:1]([C@@:2]1([H:12])[C:3]([H:10])([H:11])[C:4][C:5]([H:13])([H:14])[O:6]1)([H:7])([H:8])[H:9]"
C       -1.80867045      -0.04007905       0.34598636
C       -0.35187470      -0.15717372       0.02790576
C        0.29211601       0.86228316      -0.88736283
C        1.25211327      -0.26842735      -0.85855197
C        1.70142046      -0.43131031       0.54971935
O        0.45264921      -0.19956651       1.21077537
H       -2.13691428      -0.89524409       0.93803684
H       -2.00877803       0.87291012       0.91105957
H       -2.39990872      -0.00943551      -0.57057452
H        0.66463969       1.78409765      -0.43496203
H       -0.17485749       1.04825820      -1.85004693
H        0.00423711      -1.25732780      -0.95208059
H        2.51796445       0.18202657       0.93195691
H        1.99586347      -1.49101137       0.63813872
