18
Frame=0 idx=003271 GeodesicLength=0.0 rxn_smarts="[C:1]([C:2]([C:3]([C:4]([C:5]([O:6][H:18])([H:16])[H:17])([H:14])[H:15])([H:12])[H:13])([H:10])[H:11])([H:7])([H:8])[H:9]>>[C:1]([C:2]([C:3]([C:4]([C:5](=[O:6])[H:16])([H:15])[H:17])([H:12])[H:13])([H:10])[H:11])([H:7])([H:8])[H:9].[H:14][H:18]"
C       -2.64873757       0.14148972      -0.39284420
C       -1.31705876      -0.11955363       0.29594759
C       -0.14568560      -0.09839895      -0.69876875
C        1.14041194      -0.41800614      -0.02455236
C        2.31428093       0.43384227      -0.05226736
O        3.22862775       0.19714815       0.83521655
H       -2.86149505      -0.62052901      -1.14606588
H       -3.46841485       0.13628349       0.32668830
H       -2.65064685       1.11287031      -0.89255350
H       -1.34024247      -1.08727928       0.80455513
H       -1.13514647       0.63009053       1.06933920
H       -0.34784831      -0.83190645      -1.48593498
H       -0.08345346       0.88878674      -1.16508309
H        1.28277060      -0.20167106       1.87388137
H        1.34433806      -1.45773322       0.21690044
H        2.08743693       1.47644718      -0.34065643
H        2.48122370      -0.12453898      -1.06644379
H        2.11963952      -0.05734168       1.84264173
18
Frame=1 idx=003271 GeodesicLength=0.09677302170649406 rxn_smarts="[C:1]([C:2]([C:3]([C:4]([C:5]([O:6][H:18])([H:16])[H:17])([H:14])[H:15])([H:12])[H:13])([H:10])[H:11])([H:7])([H:8])[H:9]>>[C:1]([C:2]([C:3]([C:4]([C:5](=[O:6])[H:16])([H:15])[H:17])([H:12])[H:13])([H:10])[H:11])([H:7])([H:8])[H:9].[H:14][H:18]"
C       -2.64956965       0.13955043      -0.39523970
C       -1.31813726      -0.12082095       0.29445578
C       -0.14458451      -0.09137526      -0.69605204
C        1.14110984      -0.41702840      -0.02004765
C        2.31756075       0.43565441      -0.05649883
O        3.22920450       0.19812747       0.83443839
H       -2.85753549      -0.61833798      -1.15403075
H       -3.47103952       0.12561809       0.32217230
H       -2.65429689       1.11400436      -0.88894055
H       -1.34079130      -1.09128502       0.79805287
H       -1.13955909       0.62597712       1.07162565
H       -0.34259213      -0.81849516      -1.49023547
H       -0.08502375       0.89827457      -1.15779113
H        1.28529270      -0.20413715       1.87462337
H        1.33786670      -1.45778239       0.22271019
H        2.09373007       1.47792081      -0.34756270
H        2.45664630      -0.15337180      -1.07292985
H        2.14171875      -0.04249314       1.86125012
18
Frame=2 idx=003271 GeodesicLength=0.19298316862061016 rxn_smarts="[C:1]([C:2]([C:3]([C:4]([C:5]([O:6][H:18])([H:16])[H:17])([H:14])[H:15])([H:12])[H:13])([H:10])[H:11])([H:7])([H:8])[H:9]>>[C:1]([C:2]([C:3]([C:4]([C:5](=[O:6])[H:16])([H:15])[H:17])([H:12])[H:13])([H:10])[H:11])([H:7])([H:8])[H:9].[H:14][H:18]"
C       -2.65034307       0.13769875      -0.39759895
C       -1.31913475      -0.12207620       0.29292756
C       -0.14350821      -0.08453636      -0.69341643
C        1.14184196      -0.41627296      -0.01578767
C        2.32086218       0.43723389      -0.06097422
O        3.22948898       0.19925596       0.83386829
H       -2.85363795      -0.61602931      -1.16186410
H       -3.47351511       0.11515736       0.31768291
H       -2.65786392       1.11514997      -0.88533456
H       -1.34128820      -1.09522298       0.79155586
H       -1.14376816       0.62188950       1.07379232
H       -0.33748239      -0.80526839      -1.49445524
H       -0.08657930       0.90750076      -1.15067149
H        1.28779371      -0.20698354       1.87519766
H        1.33139412      -1.45800789       0.22828343
H        2.09973498       1.47928502      -0.35408811
H        2.43199697      -0.18167053      -1.07896617
H        2.16400815      -0.02710306       1.87984891
18
Frame=3 idx=003271 GeodesicLength=0.28887960150333397 rxn_smarts="[C:1]([C:2]([C:3]([C:4]([C:5]([O:6][H:18])([H:16])[H:17])([H:14])[H:15])([H:12])[H:13])([H:10])[H:11])([H:7])([H:8])[H:9]>>[C:1]([C:2]([C:3]([C:4]([C:5](=[O:6])[H:16])([H:15])[H:17])([H:12])[H:13])([H:10])[H:11])([H:7])([H:8])[H:9].[H:14][H:18]"
C       -2.65106720       0.13592999      -0.39993377
C       -1.32006603      -0.12332281       0.29136269
C       -0.14245814      -0.07787250      -0.69085160
C        1.14260188      -0.41572717      -0.01174982
C        2.32417159       0.43860027      -0.06565832
O        3.22950361       0.20053341       0.83348343
H       -2.84979959      -0.61360320      -1.16958855
H       -3.47586123       0.10488481       0.31320125
H       -2.66135554       1.11630880      -0.88173717
H       -1.34175049      -1.09910145       0.78505583
H       -1.14780171       0.61782124       1.07584668
H       -0.33251102      -0.79221467      -1.49859324
H       -0.08812142       0.91647981      -1.14370731
H        1.29022234      -0.21018062       1.87561685
H        1.32491208      -1.45839732       0.23364104
H        2.10546526       1.48055623      -0.36025120
H        2.40726819      -0.20948358      -1.08459594
H        2.18664743      -0.01121125       1.89845917
18
Frame=4 idx=003271 GeodesicLength=0.38452364374271636 rxn_smarts="[C:1]([C:2]([C:3]([C:4]([C:5]([O:6][H:18])([H:16])[H:17])([H:14])[H:15])([H:12])[H:13])([H:10])[H:11])([H:7])([H:8])[H:9]>>[C:1]([C:2]([C:3]([C:4]([C:5](=[O:6])[H:16])([H:15])[H:17])([H:12])[H:13])([H:10])[H:11])([H:7])([H:8])[H:9].[H:14][H:18]"
C       -2.65175012       0.13423926      -0.40225326
C       -1.32094225      -0.12456146       0.28976019
C       -0.14143655      -0.07137734      -0.68835260
C        1.14338407      -0.41538397      -0.00792063
C        2.32747832       0.43976658      -0.07052471
O        3.22926134       0.20195831       0.83327076
H       -2.84602080      -0.61106590      -1.17721654
H       -3.47809209       0.09479190       0.30871386
H       -2.66477905       1.11747807      -0.87815647
H       -1.34219031      -1.10292312       0.77855010
H       -1.15167984       0.61377299       1.07779086
H       -0.32767495      -0.77932867      -1.50265076
H       -0.08965170       0.92522151      -1.13689027
H        1.29253733      -0.21369588       1.87588900
H        1.31841234      -1.45894330       0.23879659
H        2.11093061       1.48174226      -0.36605729
H        2.38245509      -0.23682873      -1.08984970
H        2.20975856       0.00513750       1.91710085
18
Frame=5 idx=003271 GeodesicLength=0.48035409530347023 rxn_smarts="[C:1]([C:2]([C:3]([C:4]([C:5]([O:6][H:18])([H:16])[H:17])([H:14])[H:15])([H:12])[H:13])([H:10])[H:11])([H:7])([H:8])[H:9]>>[C:1]([C:2]([C:3]([C:4]([C:5](=[O:6])[H:16])([H:15])[H:17])([H:12])[H:13])([H:10])[H:11])([H:7])([H:8])[H:9].[H:14][H:18]"
C       -2.65240507       0.13261760      -0.40457922
C       -1.32178496      -0.12579258       0.28811820
C       -0.14044742      -0.06504080      -0.68590511
C        1.14417900      -0.41522636      -0.00426849
C        2.33076589       0.44075497      -0.07553171
O        3.22881339       0.20349521       0.83316801
H       -2.84229753      -0.60842803      -1.18477660
H       -3.48023436       0.08486195       0.30418857
H       -2.66814563       1.11865178      -0.87461205
H       -1.34263240      -1.10669095       0.77203330
H       -1.15544440       0.60974810       1.07962605
H       -0.32296455      -0.76660181      -1.50662059
H       -0.09117360       0.93373895      -1.13020270
H        1.29463257      -0.21750486       1.87602571
H        1.31188225      -1.45962799       0.24378610
H        2.11613580       1.48286804      -0.37148355
H        2.35752139      -0.26373873      -1.09476240
H        2.23359961       0.02191549       1.93579646
18
Frame=6 idx=003271 GeodesicLength=0.5763609999472044 rxn_smarts="[C:1]([C:2]([C:3]([C:4]([C:5]([O:6][H:18])([H:16])[H:17])([H:14])[H:15])([H:12])[H:13])([H:10])[H:11])([H:7])([H:8])[H:9]>>[C:1]([C:2]([C:3]([C:4]([C:5](=[O:6])[H:16])([H:15])[H:17])([H:12])[H:13])([H:10])[H:11])([H:7])([H:8])[H:9].[H:14][H:18]"
C       -2.65304142       0.13106038      -0.40692292
C       -1.32260714      -0.12701929       0.28643337
C       -0.13949541      -0.05885738      -0.68350515
C        1.14497913      -0.41525016      -0.00078234
C        2.33402310       0.44157439      -0.08065435
O        3.22817285       0.20512759       0.83315902
H       -2.83863162      -0.60569351      -1.19228304
H       -3.48230303       0.07508574       0.29960890
H       -2.67146415       1.11982702      -0.87111200
H       -1.34309107      -1.11041085       0.76549768
H       -1.15911721       0.60574242       1.08135335
H       -0.31837908      -0.75402630      -1.51050601
H       -0.09269068       0.94204230      -1.12363434
H        1.29645260      -0.22158559       1.87602931
H        1.30531030      -1.46044581       0.24862432
H        2.12108905       1.48393567      -0.37652728
H        2.33245798      -0.29022443      -1.09934960
H        2.25833579       0.03911780       1.95457107
18
Frame=7 idx=003271 GeodesicLength=0.672619985626843 rxn_smarts="[C:1]([C:2]([C:3]([C:4]([C:5]([O:6][H:18])([H:16])[H:17])([H:14])[H:15])([H:12])[H:13])([H:10])[H:11])([H:7])([H:8])[H:9]>>[C:1]([C:2]([C:3]([C:4]([C:5](=[O:6])[H:16])([H:15])[H:17])([H:12])[H:13])([H:10])[H:11])([H:7])([H:8])[H:9].[H:14][H:18]"
C       -2.65367006       0.12956322      -0.40929716
C       -1.32342390      -0.12824538       0.28470173
C       -0.13858612      -0.05282185      -0.68114882
C        1.14577572      -0.41545234       0.00254845
C        2.33723589       0.44223590      -0.08586216
O        3.22735918       0.20681593       0.83322277
H       -2.83502543      -0.60286496      -1.19975542
H       -3.48431599       0.06545300       0.29495634
H       -2.67474353       1.12100327      -0.86766492
H       -1.34358385      -1.11409046       0.75893286
H       -1.16272345       0.60175084       1.08297360
H       -0.31391844      -0.74159364      -1.51431085
H       -0.09420707       0.95014118      -1.11717408
H        1.29792631      -0.22595305       1.87590472
H        1.29868441      -1.46139322       0.25332285
H        2.12579626       1.48495704      -0.38117405
H        2.30725044      -0.31630630      -1.10362467
H        2.28416963       0.05680082       1.97344880
18
Frame=8 idx=003271 GeodesicLength=0.7691984161920314 rxn_smarts="[C:1]([C:2]([C:3]([C:4]([C:5]([O:6][H:18])([H:16])[H:17])([H:14])[H:15])([H:12])[H:13])([H:10])[H:11])([H:7])([H:8])[H:9]>>[C:1]([C:2]([C:3]([C:4]([C:5](=[O:6])[H:16])([H:15])[H:17])([H:12])[H:13])([H:10])[H:11])([H:7])([H:8])[H:9].[H:14][H:18]"
C       -2.65430217       0.12812259      -0.41171624
C       -1.32425064      -0.12947533       0.28291770
C       -0.13772579      -0.04692875      -0.67883301
C        1.14656010      -0.41583170       0.00573232
C        2.34038714       0.44275050      -0.09111500
O        3.22638801       0.20852019       0.83334007
H       -2.83148280      -0.59994420      -1.20721265
H       -3.48629073       0.05595605       0.29021145
H       -2.67799272       1.12218005      -0.86428105
H       -1.34412894      -1.11773886       0.75232549
H       -1.16628806       0.59776601       1.08448722
H       -0.30958333      -0.72929340      -1.51804102
H       -0.09572673       0.95804633      -1.11080994
H        1.29897881      -0.23064088       1.87565465
H        1.29199130      -1.46246915       0.25788919
H        2.13026056       1.48594113      -0.38540262
H        2.28187923      -0.34201163      -1.10759701
H        2.31132674       0.07505105       1.99245046
18
Frame=9 idx=003271 GeodesicLength=0.8667248885634196 rxn_smarts="[C:1]([C:2]([C:3]([C:4]([C:5]([O:6][H:18])([H:16])[H:17])([H:14])[H:15])([H:12])[H:13])([H:10])[H:11])([H:7])([H:8])[H:9]>>[C:1]([C:2]([C:3]([C:4]([C:5](=[O:6])[H:16])([H:15])[H:17])([H:12])[H:13])([H:10])[H:11])([H:7])([H:8])[H:9].[H:14][H:18]"
C       -2.65495764       0.12673178      -0.41420647
C       -1.32512090      -0.13073870       0.28107317
C       -0.13692831      -0.04116631      -0.67653981
C        1.14730915      -0.41641042       0.00879143
C        2.34346451       0.44307799      -0.09636817
O        3.22537250       0.20997489       0.83341867
H       -2.82800744      -0.59691301      -1.21470983
H       -3.48826212       0.04656223       0.28533029
H       -2.68122322       1.12336663      -0.86095386
H       -1.34477077      -1.12140483       0.74562565
H       -1.16986626       0.59373263       1.08591613
H       -0.30537575      -0.71707594      -1.52171453
H       -0.09725229       0.96579158      -1.10447528
H        1.29939205      -0.23577267       1.87525353
H        1.28519105      -1.46370361       0.26231764
H        2.13451505       1.48685464      -0.38910013
H        2.25629132      -0.36731477      -1.11124763
H        2.34022905       0.09440787       2.01158922
18
Frame=10 idx=003271 GeodesicLength=0.9646519227424584 rxn_smarts="[C:1]([C:2]([C:3]([C:4]([C:5]([O:6][H:18])([H:16])[H:17])([H:14])[H:15])([H:12])[H:13])([H:10])[H:11])([H:7])([H:8])[H:9]>>[C:1]([C:2]([C:3]([C:4]([C:5](=[O:6])[H:16])([H:15])[H:17])([H:12])[H:13])([H:10])[H:11])([H:7])([H:8])[H:9].[H:14][H:18]"
C       -2.65564379       0.12539616      -0.41677604
C       -1.32604202      -0.13202553       0.27916167
C       -0.13619820      -0.03554159      -0.67427743
C        1.14801698      -0.41718124       0.01172629
C        2.34643973       0.44326764      -0.10157742
O        3.22422551       0.21130038       0.83353020
H       -2.82460877      -0.59377794      -1.22224344
H       -3.49023859       0.03729344       0.28030705
H       -2.68443849       1.12456276      -0.85770655
H       -1.34551837      -1.12507280       0.73883995
H       -1.17346274       0.58967034       1.08724400
H       -0.30129984      -0.70496645      -1.52532711
H       -0.09879084       0.97336088      -1.09820074
H        1.29919918      -0.24137080       1.87473544
H        1.27828762      -1.46508647       0.26660952
H        2.13853256       1.48773847      -0.39229945
H        2.23050786      -0.39227547      -1.11460348
H        2.37103221       0.11470821       2.03085753
18
Frame=11 idx=003271 GeodesicLength=1.0629224915829165 rxn_smarts="[C:1]([C:2]([C:3]([C:4]([C:5]([O:6][H:18])([H:16])[H:17])([H:14])[H:15])([H:12])[H:13])([H:10])[H:11])([H:7])([H:8])[H:9]>>[C:1]([C:2]([C:3]([C:4]([C:5](=[O:6])[H:16])([H:15])[H:17])([H:12])[H:13])([H:10])[H:11])([H:7])([H:8])[H:9].[H:14][H:18]"
C       -2.65637370       0.12411738      -0.41944135
C       -1.32703298      -0.13334645       0.27717357
C       -0.13554546      -0.03005362      -0.67204507
C        1.14866714      -0.41815694       0.01454056
C        2.34928881       0.44332891      -0.10668923
O        3.22293094       0.21242412       0.83369788
H       -2.82129501      -0.59052865      -1.22984018
H       -3.49224032       0.02814543       0.27511858
H       -2.68764515       1.12577576      -0.85454427
H       -1.34639686      -1.12875982       0.73194335
H       -1.17710248       0.58555855       1.08847251
H       -0.29736168      -0.69295200      -1.52889050
H       -0.10034801       0.98076149      -1.09197240
H        1.29832281      -0.24751693       1.87410867
H        1.27125961      -1.46663549       0.27074817
H        2.14230752       1.48860478      -0.39495240
H        2.20451673      -0.41693166      -1.11766631
H        2.40404809       0.13616515       2.05023841
18
Frame=12 idx=003271 GeodesicLength=1.1614388262408983 rxn_smarts="[C:1]([C:2]([C:3]([C:4]([C:5]([O:6][H:18])([H:16])[H:17])([H:14])[H:15])([H:12])[H:13])([H:10])[H:11])([H:7])([H:8])[H:9]>>[C:1]([C:2]([C:3]([C:4]([C:5](=[O:6])[H:16])([H:15])[H:17])([H:12])[H:13])([H:10])[H:11])([H:7])([H:8])[H:9].[H:14][H:18]"
C       -2.65716133       0.12290049      -0.42222064
C       -1.32811588      -0.13471858       0.27509812
C       -0.13498083      -0.02470316      -0.66983874
C        1.14924240      -0.41935788       0.01724061
C        2.35198951       0.44325569      -0.11164874
O        3.22148807       0.21325567       0.83392826
H       -2.81807557      -0.58714344      -1.23753319
H       -3.49428950       0.01911579       0.26973627
H       -2.69084720       1.12701947      -0.85146591
H       -1.34743811      -1.13249369       0.72489987
H       -1.18081407       0.58136232       1.08960805
H       -0.29356693      -0.68101434      -1.53241715
H       -0.10192723       0.98800197      -1.08576446
H        1.29667124      -0.25433337       1.87337354
H        1.26408348      -1.46837598       0.27471746
H        2.14583919       1.48944673      -0.39699933
H        2.17829888      -0.44130588      -1.12043303
H        2.43960386       0.15908817       2.06971902
18
Frame=13 idx=003271 GeodesicLength=1.2600610216876158 rxn_smarts="[C:1]([C:2]([C:3]([C:4]([C:5]([O:6][H:18])([H:16])[H:17])([H:14])[H:15])([H:12])[H:13])([H:10])[H:11])([H:7])([H:8])[H:9]>>[C:1]([C:2]([C:3]([C:4]([C:5](=[O:6])[H:16])([H:15])[H:17])([H:12])[H:13])([H:10])[H:11])([H:7])([H:8])[H:9].[H:14][H:18]"
C       -2.65802317       0.12175331      -0.42513449
C       -1.32931671      -0.13616371       0.27292196
C       -0.13451760      -0.01949158      -0.66765426
C        1.14972067      -0.42081133       0.01983232
C        2.35451662       0.44303622      -0.11639603
O        3.21988512       0.21369105       0.83425202
H       -2.81496206      -0.58359133      -1.24536376
H       -3.49641215       0.01020015       0.26412717
H       -2.69404922       1.12831407      -0.84846449
H       -1.34868002      -1.13630938       0.71766379
H       -1.18462953       0.57703530       1.09065953
H       -0.28992337      -0.66912974      -1.53592317
H       -0.10353280       0.99509252      -1.07954463
H        1.29415931      -0.26195432       1.87253148
H        1.25672803      -1.47034147       0.27849513
H        2.14912521       1.49025200      -0.39837071
H        2.15184021      -0.46542694      -1.12289835
H        2.47807144       0.18384517       2.08926649
18
Frame=14 idx=003271 GeodesicLength=1.358697554802519 rxn_smarts="[C:1]([C:2]([C:3]([C:4]([C:5]([O:6][H:18])([H:16])[H:17])([H:14])[H:15])([H:12])[H:13])([H:10])[H:11])([H:7])([H:8])[H:9]>>[C:1]([C:2]([C:3]([C:4]([C:5](=[O:6])[H:16])([H:15])[H:17])([H:12])[H:13])([H:10])[H:11])([H:7])([H:8])[H:9].[H:14][H:18]"
C       -2.65897889       0.12068464      -0.42821080
C       -1.33066808      -0.13770822       0.27062850
C       -0.13417109      -0.01441960      -0.66548279
C        1.15007420      -0.42255076       0.02232681
C        2.35684133       0.44265468      -0.12085301
O        3.21810122       0.21360068       0.83471514
H       -2.81196445      -0.57983199      -1.25338648
H       -3.49864113       0.00138903       0.25824396
H       -2.69725749       1.12968292      -0.84553146
H       -1.35016919      -1.14024892       0.71017862
H       -1.18859180       0.57252061       1.09163776
H       -0.28643701      -0.65726609      -1.53942486
H       -0.10516918       1.00204631      -1.07326834
H        1.29067501      -0.27053227       1.87159435
H        1.24915119      -1.47257446       0.28205893
H        2.15216242       1.49101087      -0.39896861
H        2.12511566      -0.48933352      -1.12504685
H        2.51992729       0.21087610       2.10878913
18
Frame=15 idx=003271 GeodesicLength=1.4570852727334314 rxn_smarts="[C:1]([C:2]([C:3]([C:4]([C:5]([O:6][H:18])([H:16])[H:17])([H:14])[H:15])([H:12])[H:13])([H:10])[H:11])([H:7])([H:8])[H:9]>>[C:1]([C:2]([C:3]([C:4]([C:5](=[O:6])[H:16])([H:15])[H:17])([H:12])[H:13])([H:10])[H:11])([H:7])([H:8])[H:9].[H:14][H:18]"
C       -2.66004847       0.11970621      -0.43147721
C       -1.33220317      -0.13938027       0.26820005
C       -0.13395775      -0.00949071      -0.66331623
C        1.15027365      -0.42461514       0.02473392
C        2.35893438       0.44208892      -0.12493933
O        3.21610497       0.21286762       0.83538626
H       -2.80909497      -0.57582012      -1.26165599
H       -3.50100930      -0.00732189       0.25203951
H       -2.70047647       1.13115311      -0.84265609
H       -1.35195433      -1.14435622       0.70238439
H       -1.19274202       0.56775629       1.09255367
H       -0.28311509      -0.64539171      -1.54293893
H       -0.10684004       1.00887414      -1.06688976
H        1.28612584      -0.28022341       1.87057118
H        1.24130873      -1.47512227       0.28538318
H        2.15494521       1.49170311      -0.39869573
H        2.09811024      -0.51305338      -1.12686124
H        2.56563860       0.24062573       2.12817836
18
Frame=16 idx=003271 GeodesicLength=1.5550287617465066 rxn_smarts="[C:1]([C:2]([C:3]([C:4]([C:5]([O:6][H:18])([H:16])[H:17])([H:14])[H:15])([H:12])[H:13])([H:10])[H:11])([H:7])([H:8])[H:9]>>[C:1]([C:2]([C:3]([C:4]([C:5](=[O:6])[H:16])([H:15])[H:17])([H:12])[H:13])([H:10])[H:11])([H:7])([H:8])[H:9].[H:14][H:18]"
C       -2.66125705       0.11883082      -0.43497311
C       -1.33396644      -0.14121640       0.26561460
C       -0.13389763      -0.00470601      -0.66113805
C        1.15028017      -0.42704927       0.02707551
C        2.36076205       0.44130901      -0.12855489
O        3.21385580       0.21134179       0.83635748
H       -2.80636250      -0.57149570      -1.27024981
H       -3.50356065      -0.01594812       0.24544406
H       -2.70371376       1.13275832      -0.83982317
H       -1.35409873      -1.14868844       0.69420308
H       -1.19714013       0.56266104       1.09342339
H       -0.27996118      -0.63346088      -1.54648136
H       -0.10854993       1.01559363      -1.06034133
H        1.28038878      -0.29119378       1.86948304
H        1.23314040      -1.47804017       0.28844986
H        2.15746948       1.49230484      -0.39742369
H        2.07079809      -0.53662410      -1.12831182
H        2.61581324       0.27362343       2.14724621
