17
Frame=0 idx=010583 GeodesicLength=0.0 rxn_smarts="[C:1]([C@@:2]1([H:11])[C:3]([H:12])([H:13])[C@:4]1([C:5]([C:6]#[C:7][H:17])([H:15])[H:16])[H:14])([H:8])([H:9])[H:10]>>[C:1]([C@@:2]1([H:11])[C:3]([H:12])([H:13])[C:4]12[C:5]([H:15])([H:16])[C:6][C:7]2([H:14])[H:17])([H:8])([H:9])[H:10]"
C       -1.38845883       1.45902927       0.04270615
C       -0.96999565       0.06423048       0.42672247
C       -0.98216316      -1.06598453      -0.56206436
C        0.31935217      -0.48413933      -0.06593028
C        1.48849979       0.21966390      -0.73202252
C        2.44201414       0.04255618       0.44106042
C        1.68038619      -0.85275779       1.10288254
H       -2.46134808       1.59184133       0.19232707
H       -0.86540631       2.20272836       0.64694720
H       -1.16958360       1.66262087      -1.00701532
H       -1.22541760      -0.22011324       1.44229019
H       -1.29216928      -2.04788695      -0.22754556
H       -1.21766685      -0.84438650      -1.59725023
H        0.98223125      -1.54271853       0.38208110
H        1.28107906       1.27177943      -0.93711925
H        1.84079699      -0.23615146      -1.66003653
H        1.53784979      -1.22031146       2.11196688
17
Frame=1 idx=010583 GeodesicLength=0.08046291043150451 rxn_smarts="[C:1]([C@@:2]1([H:11])[C:3]([H:12])([H:13])[C@:4]1([C:5]([C:6]#[C:7][H:17])([H:15])[H:16])[H:14])([H:8])([H:9])[H:10]>>[C:1]([C@@:2]1([H:11])[C:3]([H:12])([H:13])[C:4]12[C:5]([H:15])([H:16])[C:6][C:7]2([H:14])[H:17])([H:8])([H:9])[H:10]"
C       -1.38655223       1.45907410       0.04915174
C       -0.97364353       0.06029650       0.42449639
C       -0.98456632      -1.06179549      -0.57355873
C        0.31636458      -0.49225066      -0.06434698
C        1.48157558       0.21325737      -0.73623647
C        2.43864298       0.04810859       0.43298671
C        1.69347577      -0.84405618       1.11630961
H       -2.46037857       1.59297533       0.19117998
H       -0.86705951       2.19661246       0.66399123
H       -1.15960516       1.67157846      -0.99707258
H       -1.23976099      -0.23159518       1.43522165
H       -1.30119972      -2.04515742      -0.24977585
H       -1.21622839      -0.82905715      -1.60718400
H        0.98199024      -1.55488044       0.39277243
H        1.27373456       1.26251613      -0.95417972
H        1.83829737      -0.25330194      -1.65745363
H        1.56491334      -1.19232447       2.13369823
17
Frame=2 idx=010583 GeodesicLength=0.16085782573829555 rxn_smarts="[C:1]([C@@:2]1([H:11])[C:3]([H:12])([H:13])[C@:4]1([C:5]([C:6]#[C:7][H:17])([H:15])[H:16])[H:14])([H:8])([H:9])[H:10]>>[C:1]([C@@:2]1([H:11])[C:3]([H:12])([H:13])[C:4]12[C:5]([H:15])([H:16])[C:6][C:7]2([H:14])[H:17])([H:8])([H:9])[H:10]"
C       -1.38456780       1.45901825       0.05566087
C       -0.97733050       0.05628355       0.42222650
C       -0.98700633      -1.05756094      -0.58507598
C        0.31326480      -0.50054149      -0.06287280
C        1.47460754       0.20674039      -0.74035169
C        2.43509298       0.05338774       0.42495993
C        1.70659056      -0.83492915       1.12980659
H       -2.45925976       1.59418950       0.19004348
H       -0.86869527       2.19023361       0.68107781
H       -1.14947262       1.68040846      -0.98690450
H       -1.25416369      -0.24307646       1.42793457
H       -1.31022030      -2.04226273      -0.27211721
H       -1.21480491      -0.81366047      -1.61700229
H        0.98163611      -1.56729453       0.40334633
H        1.26638099       1.25300913      -0.97105093
H        1.83581844      -0.27033485      -1.65467204
H        1.59212978      -1.16361000       2.15499135
17
Frame=3 idx=010583 GeodesicLength=0.24118839919703888 rxn_smarts="[C:1]([C@@:2]1([H:11])[C:3]([H:12])([H:13])[C@:4]1([C:5]([C:6]#[C:7][H:17])([H:15])[H:16])[H:14])([H:8])([H:9])[H:10]>>[C:1]([C@@:2]1([H:11])[C:3]([H:12])([H:13])[C:4]12[C:5]([H:15])([H:16])[C:6][C:7]2([H:14])[H:17])([H:8])([H:9])[H:10]"
C       -1.38250304       1.45885781       0.06223585
C       -0.98105635       0.05218977       0.41991326
C       -0.98948383      -1.05328004      -0.59661614
C        0.31005100      -0.50901656      -0.06150867
C        1.46759689       0.20011229      -0.74436577
C        2.43136714       0.05838515       0.41698543
C        1.71972592      -0.82535699       1.14337788
H       -2.45798805       1.59548173       0.18891371
H       -0.87031874       2.18358627       0.69821237
H       -1.13917383       1.68910606      -0.97650394
H       -1.26862751      -0.25455514       1.42042844
H       -1.31923962      -2.03919813      -0.29457052
H       -1.21339463      -0.79819524      -1.62670394
H        0.98116320      -1.57998126       0.41378241
H        1.25902494       1.24326266      -0.98772406
H        1.83335676      -0.28724997      -1.65169635
H        1.61949976      -1.13414841       2.17584004
17
Frame=4 idx=010583 GeodesicLength=0.32145832390472495 rxn_smarts="[C:1]([C@@:2]1([H:11])[C:3]([H:12])([H:13])[C@:4]1([C:5]([C:6]#[C:7][H:17])([H:15])[H:16])[H:14])([H:8])([H:9])[H:10]>>[C:1]([C@@:2]1([H:11])[C:3]([H:12])([H:13])[C:4]12[C:5]([H:15])([H:16])[C:6][C:7]2([H:14])[H:17])([H:8])([H:9])[H:10]"
C       -1.38035540       1.45858880       0.06887912
C       -0.98482113       0.04801317       0.41755710
C       -0.99199937      -1.04895185      -0.60817938
C        0.30672112      -0.51768059      -0.06025554
C        1.46054498       0.19337218      -0.74827610
C        2.42746829       0.06309192       0.40906924
C        1.73287636      -0.81531812       1.15702866
H       -2.45655937       1.59685041       0.18778755
H       -0.87193469       2.17666465       0.71539996
H       -1.12869706       1.69766598      -0.96586341
H       -1.28315469      -0.26602943       1.41270259
H       -1.32826615      -2.03595862      -0.31713709
H       -1.21199555      -0.78265999      -1.63628786
H        0.98056507      -1.59296283       0.42405857
H        1.25167319       1.23328096      -1.00419041
H        1.83090916      -0.30404773      -1.64853079
H        1.64702522      -1.10391892       2.19623779
17
Frame=5 idx=010583 GeodesicLength=0.40167240500622453 rxn_smarts="[C:1]([C@@:2]1([H:11])[C:3]([H:12])([H:13])[C@:4]1([C:5]([C:6]#[C:7][H:17])([H:15])[H:16])[H:14])([H:8])([H:9])[H:10]>>[C:1]([C@@:2]1([H:11])[C:3]([H:12])([H:13])[C:4]12[C:5]([H:15])([H:16])[C:6][C:7]2([H:14])[H:17])([H:8])([H:9])[H:10]"
C       -1.37812149       1.45820699       0.07559463
C       -0.98862492       0.04375077       0.41515844
C       -0.99455347      -1.04457581      -0.61976690
C        0.30327299      -0.52653886      -0.05911492
C        1.45345337       0.18651837      -0.75208096
C        2.42339984       0.06749809       0.40121682
C        1.74603565      -0.80478841       1.17076499
H       -2.45496844       1.59829420       0.18666350
H       -0.87354689       2.16946179       0.73264799
H       -1.11802958       1.70608337      -0.95497361
H       -1.29774808      -0.27749944       1.40475611
H       -1.33730834      -2.03253985      -0.33982019
H       -1.21060579      -0.76705264      -1.64575387
H        0.97983436      -1.60626365       0.43415144
H        1.24433308       1.22306797      -1.02044251
H        1.82847239      -0.32073003      -1.64518063
H        1.67470532      -1.07289285       2.21617965
17
Frame=6 idx=010583 GeodesicLength=0.48184330906461414 rxn_smarts="[C:1]([C@@:2]1([H:11])[C:3]([H:12])([H:13])[C@:4]1([C:5]([C:6]#[C:7][H:17])([H:15])[H:16])[H:14])([H:8])([H:9])[H:10]>>[C:1]([C@@:2]1([H:11])[C:3]([H:12])([H:13])[C:4]12[C:5]([H:15])([H:16])[C:6][C:7]2([H:14])[H:17])([H:8])([H:9])[H:10]"
C       -1.37579768       1.45771014       0.08238854
C       -0.99246957       0.03939891       0.41271985
C       -0.99714764      -1.04015583      -0.63138118
C        0.29970406      -0.53559771      -0.05808903
C        1.44632679       0.17955041      -0.75578191
C        2.41916829       0.07159546       0.39343206
C        1.75919469      -0.79373898       1.18459572
H       -2.45321055       1.59981336       0.18554326
H       -0.87515928       2.16197525       0.74996818
H       -1.10715545       1.71435530      -0.94382533
H       -1.31241538      -0.28896627       1.39659271
H       -1.34637785      -2.02894415      -0.36262367
H       -1.20922253      -0.75137602      -1.65510542
H        0.97896160      -1.61991245       0.44403526
H        1.23701713       1.21263158      -1.03647535
H        1.82604660      -0.33729929      -1.64165819
H        1.70253674      -1.04103970       2.23566449
17
Frame=7 idx=010583 GeodesicLength=0.5619379246662655 rxn_smarts="[C:1]([C@@:2]1([H:11])[C:3]([H:12])([H:13])[C@:4]1([C:5]([C:6]#[C:7][H:17])([H:15])[H:16])[H:14])([H:8])([H:9])[H:10]>>[C:1]([C@@:2]1([H:11])[C:3]([H:12])([H:13])[C:4]12[C:5]([H:15])([H:16])[C:6][C:7]2([H:14])[H:17])([H:8])([H:9])[H:10]"
C       -1.37338198       1.45708797       0.08925826
C       -0.99635304       0.03495914       0.41023431
C       -0.99977666      -1.03567338      -0.64301728
C        0.29601101      -0.54485735      -0.05717386
C        1.43915431       0.17245680      -0.75936447
C        2.41475555       0.07537908       0.38573445
C        1.77234912      -0.78213858       1.19851974
H       -2.45127767       1.60140569       0.18440915
H       -0.87678239       2.15417965       0.76735717
H       -1.09606624       1.72247109      -0.93240181
H       -1.32715306      -0.30042456       1.38819088
H       -1.35546827      -2.02513974      -0.38555108
H       -1.20784189      -0.73560796      -1.66432527
H        0.97794074      -1.63392435       0.45369175
H        1.22971131       1.20195373      -1.05228359
H        1.82362413      -0.35377145      -1.63793357
H        1.73055505      -1.00835580       2.25465522
17
Frame=8 idx=010583 GeodesicLength=0.6420148391072439 rxn_smarts="[C:1]([C@@:2]1([H:11])[C:3]([H:12])([H:13])[C@:4]1([C:5]([C:6]#[C:7][H:17])([H:15])[H:16])[H:14])([H:8])([H:9])[H:10]>>[C:1]([C@@:2]1([H:11])[C:3]([H:12])([H:13])[C:4]12[C:5]([H:15])([H:16])[C:6][C:7]2([H:14])[H:17])([H:8])([H:9])[H:10]"
C       -1.37084033       1.45633025       0.09626684
C       -1.00028468       0.03039076       0.40769977
C       -1.00244629      -1.03114412      -0.65472545
C        0.29218866      -0.55435098      -0.05639362
C        1.43194889       0.16520565      -0.76287125
C        2.41017930       0.07883712       0.37809109
C        1.78547412      -0.76991234       1.21256223
H       -2.44913328       1.60308144       0.18333249
H       -0.87837429       2.14602806       0.78492165
H       -1.08470575       1.73045629      -0.92063270
H       -1.34200089      -0.31194824       1.37953875
H       -1.36460586      -2.02115559      -0.40869397
H       -1.20646868      -0.71972318      -1.67345851
H        0.97675260      -1.64833803       0.46312415
H        1.22243582       1.19100803      -1.06792620
H        1.82121590      -0.37020827      -1.63405348
H        1.75866477      -0.97455685       2.27321823
17
Frame=9 idx=010583 GeodesicLength=0.7220352561987485 rxn_smarts="[C:1]([C@@:2]1([H:11])[C:3]([H:12])([H:13])[C@:4]1([C:5]([C:6]#[C:7][H:17])([H:15])[H:16])[H:14])([H:8])([H:9])[H:10]>>[C:1]([C@@:2]1([H:11])[C:3]([H:12])([H:13])[C:4]12[C:5]([H:15])([H:16])[C:6][C:7]2([H:14])[H:17])([H:8])([H:9])[H:10]"
C       -1.36819426       1.45543631       0.10336867
C       -1.00425522       0.02572177       0.40512116
C       -1.00515238      -1.02655853      -0.66646265
C        0.28823757      -0.56406267      -0.05573430
C        1.42470779       0.15782492      -0.76625998
C        2.40544286       0.08193548       0.37053728
C        1.79856788      -0.75707092       1.22671745
H       -2.44679489       1.60483051       0.18226035
H       -0.87997290       2.13755041       0.80257593
H       -1.07310157       1.73826990      -0.90856224
H       -1.35692586      -0.32347023       1.37065052
H       -1.37378400      -2.01696195      -0.43197201
H       -1.20509353      -0.70374795      -1.68246509
H        0.97539590      -1.66318789       0.47225647
H        1.21519919       1.17983746      -1.08331668
H        1.81880310      -0.38654601      -1.62999873
H        1.78692031      -0.93980061       2.29128386
17
Frame=10 idx=010583 GeodesicLength=0.8020178540036081 rxn_smarts="[C:1]([C@@:2]1([H:11])[C:3]([H:12])([H:13])[C@:4]1([C:5]([C:6]#[C:7][H:17])([H:15])[H:16])[H:14])([H:8])([H:9])[H:10]>>[C:1]([C@@:2]1([H:11])[C:3]([H:12])([H:13])[C:4]12[C:5]([H:15])([H:16])[C:6][C:7]2([H:14])[H:17])([H:8])([H:9])[H:10]"
C       -1.36543906       1.45440342       0.11057174
C       -1.00826788       0.02094833       0.40250224
C       -1.00789780      -1.02192041      -0.67823117
C        0.28415379      -0.57399875      -0.05519761
C        1.41743699       0.15031306      -0.76953112
C        2.40054981       0.08466766       0.36308403
C        1.81162089      -0.74357562       1.24099398
H       -2.44425563       1.60665437       0.18119462
H       -0.88158214       2.12874412       0.82033283
H       -1.06123556       1.74590631      -0.89617840
H       -1.37193676      -0.33499084       1.36153165
H       -1.38301505      -2.01256074      -0.45539010
H       -1.20371336      -0.68768537      -1.69134864
H        0.97385203      -1.67851572       0.48105268
H        1.20801609       1.16844959      -1.09845148
H        1.81639063      -0.40278978      -1.62577903
H        1.81532303      -0.90404961       2.30884376
17
Frame=11 idx=010583 GeodesicLength=0.8819602977522107 rxn_smarts="[C:1]([C@@:2]1([H:11])[C:3]([H:12])([H:13])[C@:4]1([C:5]([C:6]#[C:7][H:17])([H:15])[H:16])[H:14])([H:8])([H:9])[H:10]>>[C:1]([C@@:2]1([H:11])[C:3]([H:12])([H:13])[C:4]12[C:5]([H:15])([H:16])[C:6][C:7]2([H:14])[H:17])([H:8])([H:9])[H:10]"
C       -1.36256772       1.45322320       0.11788503
C       -1.01232227       0.01606420       0.39984204
C       -1.01068124      -1.01722615      -0.69003388
C        0.27993420      -0.58416724      -0.05478680
C        1.41013753       0.14266183      -0.77268101
C        2.39550526       0.08700709       0.35573656
C        1.82461851      -0.72938276       1.25540042
H       -2.44150326       1.60855305       0.18013851
H       -0.88320318       2.11959109       0.83820486
H       -1.04909072       1.75335666      -0.88346092
H       -1.38703700      -0.34651470       1.35217507
H       -1.39230495      -2.00794120      -0.47895754
H       -1.20232443      -0.67152624      -1.70010640
H        0.97210714      -1.69436177       0.48947421
H        1.20089527       1.15684426      -1.11331710
H        1.81397159      -0.41894766      -1.62139735
H        1.84386529      -0.86723366       2.32588431
17
Frame=12 idx=010583 GeodesicLength=0.9618650431387479 rxn_smarts="[C:1]([C@@:2]1([H:11])[C:3]([H:12])([H:13])[C@:4]1([C:5]([C:6]#[C:7][H:17])([H:15])[H:16])[H:14])([H:8])([H:9])[H:10]>>[C:1]([C@@:2]1([H:11])[C:3]([H:12])([H:13])[C:4]12[C:5]([H:15])([H:16])[C:6][C:7]2([H:14])[H:17])([H:8])([H:9])[H:10]"
C       -1.35957111       1.45188717       0.12532128
C       -1.01641859       0.01106148       0.39714064
C       -1.01350214      -1.01247385      -0.70187543
C        0.27557531      -0.59457785      -0.05450635
C        1.40281231       0.13486184      -0.77570796
C        2.39031454       0.08892674       0.34850064
C        1.83754449      -0.71444363       1.26994590
H       -2.43852322       1.61052755       0.17910068
H       -0.88483427       2.11007290       0.85620927
H       -1.03664731       1.76061216      -0.87038646
H       -1.40223156      -0.35804878       1.34257554
H       -1.40166092      -2.00309532      -0.50268693
H       -1.20092273      -0.65526205      -1.70873783
H        0.97014407      -1.71077189       0.49747803
H        1.19384825       1.14502121      -1.12790280
H        1.81154208      -0.43503033      -1.61685961
H        1.87253079      -0.82926733       2.34239139
17
Frame=13 idx=010583 GeodesicLength=1.0417351256919607 rxn_smarts="[C:1]([C@@:2]1([H:11])[C:3]([H:12])([H:13])[C@:4]1([C:5]([C:6]#[C:7][H:17])([H:15])[H:16])[H:14])([H:8])([H:9])[H:10]>>[C:1]([C@@:2]1([H:11])[C:3]([H:12])([H:13])[C:4]12[C:5]([H:15])([H:16])[C:6][C:7]2([H:14])[H:17])([H:8])([H:9])[H:10]"
C       -1.35644048       1.45038690       0.13289221
C       -1.02055755       0.00593305       0.39439831
C       -1.01636009      -1.00766135      -0.71375936
C        0.27107296      -0.60524007      -0.05435993
C        1.39546435       0.12690395      -0.77860836
C        2.38498201       0.09039868       0.34138584
C        1.85038020      -0.69870415       1.28464070
H       -2.43530076       1.61257958       0.17808889
H       -0.88647406       2.10017192       0.87436066
H       -1.02388623       1.76766219      -0.85693262
H       -1.41752575      -0.36959797       1.33272815
H       -1.41109034      -1.99801411      -0.52658903
H       -1.19950361      -0.63888501      -1.71724135
H        0.96794352      -1.72779619       0.50501563
H        1.18688724       1.13298112      -1.14219588
H        1.80909884      -0.45104816      -1.61216988
H        1.90130977      -0.79007037       2.35834602
17
Frame=14 idx=010583 GeodesicLength=1.1215736764049031 rxn_smarts="[C:1]([C@@:2]1([H:11])[C:3]([H:12])([H:13])[C@:4]1([C:5]([C:6]#[C:7][H:17])([H:15])[H:16])[H:14])([H:8])([H:9])[H:10]>>[C:1]([C@@:2]1([H:11])[C:3]([H:12])([H:13])[C:4]12[C:5]([H:15])([H:16])[C:6][C:7]2([H:14])[H:17])([H:8])([H:9])[H:10]"
C       -1.35316487       1.44871260       0.14061237
C       -1.02473948       0.00067019       0.39161539
C       -1.01925462      -1.00278624      -0.72569017
C        0.26642288      -0.61616509      -0.05435225
C        1.38809731       0.11877695      -0.78137874
C        2.37951243       0.09139041       0.33440220
C        1.86310466      -0.68210388       1.29949526
H       -2.43181814       1.61471122       0.17711517
H       -0.88811803       2.08986735       0.89267642
H       -1.01078651       1.77449499      -0.84307339
H       -1.43292460      -0.38116921       1.32262738
H       -1.42060077      -1.99268781      -0.55067703
H       -1.19806219      -0.62238558      -1.72561535
H        0.96548404      -1.74549026       0.51203260
H        1.18002578       1.12072343      -1.15618306
H        1.80663878      -0.46701359      -1.60733276
H        1.93018334      -0.74954548       2.37372597
17
Frame=15 idx=010583 GeodesicLength=1.2013843412863128 rxn_smarts="[C:1]([C@@:2]1([H:11])[C:3]([H:12])([H:13])[C@:4]1([C:5]([C:6]#[C:7][H:17])([H:15])[H:16])[H:14])([H:8])([H:9])[H:10]>>[C:1]([C@@:2]1([H:11])[C:3]([H:12])([H:13])[C:4]12[C:5]([H:15])([H:16])[C:6][C:7]2([H:14])[H:17])([H:8])([H:9])[H:10]"
C       -1.34972993       1.44685262       0.14850073
C       -1.02896421      -0.00473834       0.38879219
C       -1.02218523      -0.99784577      -0.73767429
C        0.26162063      -0.62736684      -0.05448966
C        1.38071565       0.11046634      -0.78401646
C        2.37391157       0.09186278       0.32755937
C        1.87569366      -0.66457376       1.31452023
H       -2.42805332       1.61692518       0.17619756
H       -0.88975722       2.07913328       0.91117935
H       -0.99732372       1.78109787      -0.82877705
H       -1.44843332      -0.39277317       1.31226630
H       -1.43020030      -1.98710568      -0.57496852
H       -1.19659327      -0.60575135      -1.73385859
H        0.96274162      -1.76391590       0.51846868
H        1.17327920       1.10824540      -1.16985082
H        1.80415869      -0.48294263      -1.60235425
H        1.95911949      -0.70757003       2.38850524
17
Frame=16 idx=010583 GeodesicLength=1.2811715829630075 rxn_smarts="[C:1]([C@@:2]1([H:11])[C:3]([H:12])([H:13])[C@:4]1([C:5]([C:6]#[C:7][H:17])([H:15])[H:16])[H:14])([H:8])([H:9])[H:10]>>[C:1]([C@@:2]1([H:11])[C:3]([H:12])([H:13])[C:4]12[C:5]([H:15])([H:16])[C:6][C:7]2([H:14])[H:17])([H:8])([H:9])[H:10]"
C       -1.34611954       1.44479409       0.15657822
C       -1.03323205      -0.01030469       0.38592885
C       -1.02515152      -0.99283652      -0.74971874
C        0.25666090      -0.63886074      -0.05477865
C        1.37332410       0.10195554      -0.78651770
C        2.36818387       0.09177305       0.32087037
C        1.88811865      -0.64603443       1.32972709
H       -2.42398156       1.61922507       0.17535682
H       -0.89137999       2.06794100       0.92989362
H       -0.98347151       1.78745630      -0.81400902
H       -1.46405821      -0.40442123       1.30163688
H       -1.43989757      -1.98125532      -0.59948305
H       -1.19509093      -0.58896828      -1.74196938
H        0.95968876      -1.78314082       0.52425678
H        1.16666404       1.09554271      -1.18318475
H        1.80165620      -0.49885398      -1.59723858
H        1.98808638      -0.66401177       2.40265125
