14
Frame=0 idx=004028 GeodesicLength=0.0 rxn_smarts="[C:1]([C:2]([C:3]([H:10])([H:11])[H:12])([O:4][H:13])[C:5]#[C:6][H:14])([H:7])([H:8])[H:9]>>[C:1]([C:2]([C:3]([H:10])([H:11])[H:12])=[C:5]=[C:6]([O:4][H:13])[H:14])([H:7])([H:8])[H:9]"
C       -0.90781492       1.01587472      -0.58594884
C        0.17532103       0.05899671      -0.16313618
C        0.24714168      -1.20323699      -0.97703321
O       -0.21822033      -0.46718360       1.37204771
C        1.45598236       0.64732525       0.27874470
C        1.25454454       0.32866038       1.51735058
H       -0.96237837       1.87226829       0.08759281
H       -0.65311753       1.39656482      -1.57597036
H       -1.87916098       0.51982582      -0.64903974
H        0.96606636      -1.89674190      -0.54420678
H        0.58778856      -0.94211254      -1.98029440
H       -0.72984043      -1.68369965      -1.04931480
H       -0.92865194       0.07949370       1.73137641
H        1.59233995       0.27396503       2.53783209
14
Frame=1 idx=004028 GeodesicLength=0.09106391958574532 rxn_smarts="[C:1]([C:2]([C:3]([H:10])([H:11])[H:12])([O:4][H:13])[C:5]#[C:6][H:14])([H:7])([H:8])[H:9]>>[C:1]([C:2]([C:3]([H:10])([H:11])[H:12])=[C:5]=[C:6]([O:4][H:13])[H:14])([H:7])([H:8])[H:9]"
C       -0.90750243       1.01680494      -0.59513456
C        0.16681177       0.05256365      -0.16417846
C        0.24469187      -1.20376523      -0.98794920
O       -0.22530888      -0.47734005       1.39266897
C        1.44088746       0.63351482       0.28896825
C        1.26468947       0.32338352       1.53079772
H       -0.96396320       1.87296078       0.07841343
H       -0.64625081       1.39809295      -1.58337206
H       -1.88032703       0.52463368      -0.66494466
H        0.96198359      -1.90040509      -0.55743393
H        0.58844563      -0.93752131      -1.98887764
H       -0.73195171      -1.68398642      -1.06682515
H       -0.92348188       0.07317849       1.76854767
H        1.61127616       0.30788527       2.54931962
14
Frame=2 idx=004028 GeodesicLength=0.18207780290729436 rxn_smarts="[C:1]([C:2]([C:3]([H:10])([H:11])[H:12])([O:4][H:13])[C:5]#[C:6][H:14])([H:7])([H:8])[H:9]>>[C:1]([C:2]([C:3]([H:10])([H:11])[H:12])=[C:5]=[C:6]([O:4][H:13])[H:14])([H:7])([H:8])[H:9]"
C       -0.90707993       1.01781119      -0.60448817
C        0.15786768       0.04588143      -0.16521474
C        0.24213869      -1.20429658      -0.99901481
O       -0.23268631      -0.48788387       1.41379317
C        1.42520173       0.61914479       0.29974710
C        1.27503871       0.31764630       1.54440259
H       -0.96559301       1.87349763       0.06934496
H       -0.63875764       1.39990408      -1.59067472
H       -1.88138683       0.52972072      -0.68151043
H        0.95759272      -1.90418057      -0.57068400
H        0.58941603      -0.93278726      -1.99738608
H       -0.73415284      -1.68415327      -1.08487709
H       -0.91775778       0.06615888       1.80701371
H        1.63015878       0.34353654       2.55954851
14
Frame=3 idx=004028 GeodesicLength=0.273040526988912 rxn_smarts="[C:1]([C:2]([C:3]([H:10])([H:11])[H:12])([O:4][H:13])[C:5]#[C:6][H:14])([H:7])([H:8])[H:9]>>[C:1]([C:2]([C:3]([H:10])([H:11])[H:12])=[C:5]=[C:6]([O:4][H:13])[H:14])([H:7])([H:8])[H:9]"
C       -0.90659831       1.01890355      -0.61408072
C        0.14843202       0.03901965      -0.16622670
C        0.23953343      -1.20479687      -1.01013163
O       -0.24043017      -0.49868418       1.43548221
C        1.40880773       0.60434222       0.31113430
C        1.28547594       0.31171559       1.55820308
H       -0.96738728       1.87391925       0.06027048
H       -0.63064455       1.40196556      -1.59793872
H       -1.88235745       0.53506693      -0.69884002
H        0.95294872      -1.90798720      -0.58378762
H        0.59079582      -0.92791657      -2.00570757
H       -0.73636056      -1.68420274      -1.10340630
H       -0.91151816       0.05849150       1.84683824
H        1.64930283       0.38016331       2.56819098
14
Frame=4 idx=004028 GeodesicLength=0.36395338565090407 rxn_smarts="[C:1]([C:2]([C:3]([H:10])([H:11])[H:12])([O:4][H:13])[C:5]#[C:6][H:14])([H:7])([H:8])[H:9]>>[C:1]([C:2]([C:3]([H:10])([H:11])[H:12])=[C:5]=[C:6]([O:4][H:13])[H:14])([H:7])([H:8])[H:9]"
C       -0.90610669       1.02008923      -0.62398268
C        0.13844932       0.03204271      -0.16720593
C        0.23692279      -1.20523453      -1.02121598
O       -0.24860539      -0.50961256       1.45779589
C        1.39159157       0.58922767       0.32316359
C        1.29589156       0.30586463       1.57221647
H       -0.96946067       1.87425853       0.05107726
H       -0.62192232       1.40424758      -1.60522094
H       -1.88325410       0.54064822      -0.71703363
H        0.94810328      -1.91174941      -0.59659771
H        0.59266828      -0.92291406      -2.01374545
H       -0.73849542      -1.68414100      -1.12236103
H       -0.90478017       0.05022281       1.88809718
H        1.66899798       0.41705017       2.57501294
14
Frame=5 idx=004028 GeodesicLength=0.45482367596312906 rxn_smarts="[C:1]([C:2]([C:3]([H:10])([H:11])[H:12])([O:4][H:13])[C:5]#[C:6][H:14])([H:7])([H:8])[H:9]>>[C:1]([C:2]([C:3]([H:10])([H:11])[H:12])=[C:5]=[C:6]([O:4][H:13])[H:14])([H:7])([H:8])[H:9]"
C       -0.90563377       1.02137304      -0.63424513
C        0.12787509       0.02498988      -0.16815529
C        0.23433525      -1.20558847      -1.03221748
O       -0.25726154      -0.52058164       1.48078212
C        1.37346025       0.57386947       0.33585367
C        1.30620769       0.30030490       1.58642953
H       -0.97188900       1.87453210       0.04168984
H       -0.61258791       1.40673766      -1.61255503
H       -1.88408186       0.54645139      -0.73616730
H        0.94308268      -1.91542013      -0.60902017
H        0.59509208      -0.91777933      -2.02143764
H       -0.74050381      -1.68396971      -1.14171754
H       -0.89752989       0.04134328       1.93086760
H        1.68943473       0.45373755       2.57989283
14
Frame=6 idx=004028 GeodesicLength=0.5456434404470185 rxn_smarts="[C:1]([C:2]([C:3]([H:10])([H:11])[H:12])([O:4][H:13])[C:5]#[C:6][H:14])([H:7])([H:8])[H:9]>>[C:1]([C:2]([C:3]([H:10])([H:11])[H:12])=[C:5]=[C:6]([O:4][H:13])[H:14])([H:7])([H:8])[H:9]"
C       -0.90523667       1.02275707      -0.64494542
C        0.11664195       0.01792318      -0.16907551
C        0.23181610      -1.20582575      -1.04306362
O       -0.26646486      -0.53145721       1.50450239
C        1.35428286       0.55839491       0.34922867
C        1.31630394       0.29531860       1.60083352
H       -0.97480149       1.87476541       0.03198676
H       -0.60265861       1.40940540      -1.61999440
H       -1.88485472       0.55244270      -0.75635911
H        0.93793818      -1.91892088      -0.62091924
H        0.59814883      -0.91250857      -2.02869197
H       -0.74230012      -1.68369931      -1.16143802
H       -0.88976225       0.03189400       1.97523804
H        1.71094686       0.48951043       2.58269791
14
Frame=7 idx=004028 GeodesicLength=0.6364098867733263 rxn_smarts="[C:1]([C:2]([C:3]([H:10])([H:11])[H:12])([O:4][H:13])[C:5]#[C:6][H:14])([H:7])([H:8])[H:9]>>[C:1]([C:2]([C:3]([H:10])([H:11])[H:12])=[C:5]=[C:6]([O:4][H:13])[H:14])([H:7])([H:8])[H:9]"
C       -0.90493621       1.02424463      -0.65612521
C        0.10470689       0.01086885      -0.16998101
C        0.22938544      -1.20592970      -1.05372439
O       -0.27626296      -0.54217232       1.52899775
C        1.33396559       0.54285350       0.36329910
C        1.32611756       0.29106733       1.61538369
H       -0.97825754       1.87496973       0.02190600
H       -0.59212994       1.41224350      -1.62755497
H       -1.88557191       0.55861255      -0.77767617
H        0.93268694      -1.92221725      -0.63223021
H        0.60188413      -0.90709546      -2.03545784
H       -0.74383857      -1.68333059      -1.18151784
H       -0.88143928       0.02183206       2.02128637
H        1.73368988       0.52405317       2.58339474
14
Frame=8 idx=004028 GeodesicLength=0.7271359163914372 rxn_smarts="[C:1]([C:2]([C:3]([H:10])([H:11])[H:12])([O:4][H:13])[C:5]#[C:6][H:14])([H:7])([H:8])[H:9]>>[C:1]([C:2]([C:3]([H:10])([H:11])[H:12])=[C:5]=[C:6]([O:4][H:13])[H:14])([H:7])([H:8])[H:9]"
C       -0.90471400       1.02584158      -0.66779649
C        0.09203040       0.00381352      -0.17089351
C        0.22703123      -1.20589839      -1.06421041
O       -0.28668899      -0.55273284       1.55430041
C        1.31243248       0.52720842       0.37806797
C        1.33563023       0.28757129       1.63001315
H       -0.98225460       1.87513874       0.01143532
H       -0.58095425       1.41527144      -1.63520036
H       -1.88618838       0.56498457      -0.80017624
H        0.92729155      -1.92532011      -0.64295509
H        0.60631064      -0.90152715      -2.04171325
H       -0.74511084      -1.68285070      -1.20200198
H       -0.87243828       0.01102078       2.06914048
H        1.75762282       0.55747885       2.58199001
14
Frame=9 idx=004028 GeodesicLength=0.817846536242771 rxn_smarts="[C:1]([C:2]([C:3]([H:10])([H:11])[H:12])([O:4][H:13])[C:5]#[C:6][H:14])([H:7])([H:8])[H:9]>>[C:1]([C:2]([C:3]([H:10])([H:11])[H:12])=[C:5]=[C:6]([O:4][H:13])[H:14])([H:7])([H:8])[H:9]"
C       -0.90454788       1.02757970      -0.68000015
C        0.07854971      -0.00324854      -0.17184915
C        0.22471264      -1.20573813      -1.07453729
O       -0.29772845      -0.56311482       1.58047019
C        1.28958671       0.51142697       0.39350948
C        1.34488225       0.28479359       1.64462172
H       -0.98681961       1.87529460       0.00053940
H       -0.56905544       1.41850701      -1.64290263
H       -1.88665248       0.57164422      -0.82397791
H        0.92167653      -1.92826923      -0.65309126
H        0.61143792      -0.89582687      -2.04743315
H       -0.74615060      -1.68222843      -1.22295369
H       -0.86219883      -0.00079753       2.11904851
H        1.78230754       0.58997747       2.57855595
14
Frame=10 idx=004028 GeodesicLength=0.9085098882826796 rxn_smarts="[C:1]([C:2]([C:3]([H:10])([H:11])[H:12])([O:4][H:13])[C:5]#[C:6][H:14])([H:7])([H:8])[H:9]>>[C:1]([C:2]([C:3]([H:10])([H:11])[H:12])=[C:5]=[C:6]([O:4][H:13])[H:14])([H:7])([H:8])[H:9]"
C       -0.90438639       1.02945458      -0.69268235
C        0.06425080      -0.01036357      -0.17284591
C        0.22242508      -1.20545494      -1.08471728
O       -0.30946404      -0.57339142       1.60752581
C        1.26537816       0.49539277       0.40968754
C        1.35381673       0.28273201       1.65916344
H       -0.99187483       1.87540878      -0.01071703
H       -0.55635496       1.42198804      -1.65056413
H       -1.88690446       0.57860959      -0.84905559
H        0.91579314      -1.93109899      -0.66265841
H        0.61728746      -0.88996093      -2.05258611
H       -0.74694091      -1.68144150      -1.24443084
H       -0.85093141      -0.01377530       2.17097026
H        1.80790564       0.62190088       2.57291060
14
Frame=11 idx=004028 GeodesicLength=0.9991172523512455 rxn_smarts="[C:1]([C:2]([C:3]([H:10])([H:11])[H:12])([O:4][H:13])[C:5]#[C:6][H:14])([H:7])([H:8])[H:9]>>[C:1]([C:2]([C:3]([H:10])([H:11])[H:12])=[C:5]=[C:6]([O:4][H:13])[H:14])([H:7])([H:8])[H:9]"
C       -0.90421183       1.03148271      -0.70585020
C        0.04908739      -0.01752857      -0.17389203
C        0.22016727      -1.20504617      -1.09473346
O       -0.32195336      -0.58354256       1.63552828
C        1.23970589       0.47908501       0.42663791
C        1.36239201       0.28145294       1.67356037
H       -0.99743446       1.87549152      -0.02234574
H       -0.54278809       1.42572880      -1.65813997
H       -1.88689943       0.58592076      -0.87547149
H        0.90960945      -1.93382044      -0.67161237
H        0.62390815      -0.88393364      -2.05712010
H       -0.74746622      -1.68046846      -1.26646783
H       -0.83848678      -0.02809402       2.22499339
H        1.83437002       0.65327212       2.56491323
14
Frame=12 idx=004028 GeodesicLength=1.0896555916834296 rxn_smarts="[C:1]([C:2]([C:3]([H:10])([H:11])[H:12])([O:4][H:13])[C:5]#[C:6][H:14])([H:7])([H:8])[H:9]>>[C:1]([C:2]([C:3]([H:10])([H:11])[H:12])=[C:5]=[C:6]([O:4][H:13])[H:14])([H:7])([H:8])[H:9]"
C       -0.90397846       1.03368278      -0.71949617
C        0.03300821      -0.02476081      -0.17499915
C        0.21791862      -1.20451176      -1.10457507
O       -0.33526537      -0.59357132       1.66453825
C        1.21246188       0.46243540       0.44439535
C        1.37056689       0.28096837       1.68771771
H       -1.00347894       1.87554466      -0.03434094
H       -0.52824920       1.42975687      -1.66555008
H       -1.88655791       0.59363556      -0.90329455
H        0.90305108      -1.93646282      -0.67992390
H        0.63133958      -0.87773905      -2.06096573
H       -0.74772184      -1.67927469      -1.28911762
H       -0.82464746      -0.04401201       2.28123055
H        1.86155291       0.68430883       2.55438135
14
Frame=13 idx=004028 GeodesicLength=1.1801181073210103 rxn_smarts="[C:1]([C:2]([C:3]([H:10])([H:11])[H:12])([O:4][H:13])[C:5]#[C:6][H:14])([H:7])([H:8])[H:9]>>[C:1]([C:2]([C:3]([H:10])([H:11])[H:12])=[C:5]=[C:6]([O:4][H:13])[H:14])([H:7])([H:8])[H:9]"
C       -0.90374863       1.03607960      -0.73370227
C        0.01592501      -0.03197364      -0.17616784
C        0.21574272      -1.20381007      -1.11413889
O       -0.34956706      -0.60330746       1.69465245
C        1.18342386       0.44560213       0.46304402
C        1.37817216       0.28151074       1.70156775
H       -1.01018151       1.87562500      -0.04684211
H       -0.51275332       1.43405389      -1.67283089
H       -1.88587931       0.60174786      -0.93266706
H        0.89617182      -1.93894423      -0.68738587
H        0.63971616      -0.87137566      -2.06397207
H       -0.74758246      -1.67785015      -1.31233918
H       -0.80926285      -0.06168982       2.33972530
H        1.88982340       0.71433182       2.54105665
14
Frame=14 idx=004028 GeodesicLength=1.2704645605897384 rxn_smarts="[C:1]([C:2]([C:3]([H:10])([H:11])[H:12])([O:4][H:13])[C:5]#[C:6][H:14])([H:7])([H:8])[H:9]>>[C:1]([C:2]([C:3]([H:10])([H:11])[H:12])=[C:5]=[C:6]([O:4][H:13])[H:14])([H:7])([H:8])[H:9]"
C       -0.90333891       1.03870551      -0.74836625
C       -0.00218079      -0.03928016      -0.17742037
C        0.21352867      -1.20299136      -1.12348078
O       -0.36486546      -0.61290784       1.72592092
C        1.15256222       0.42827753       0.48258479
C        1.38527024       0.28287197       1.71492619
H       -1.01729642       1.87570803      -0.05970704
H       -0.49604530       1.43869722      -1.67975066
H       -1.88465520       0.61042448      -0.96357356
H        0.88873490      -1.94142918      -0.69411210
H        0.64898411      -0.86485750      -2.06611034
H       -0.74716521      -1.67611809      -1.33625504
H       -0.79195220      -0.08165130       2.40059353
H        1.91841935       0.74455069       2.52475071
14
Frame=15 idx=004028 GeodesicLength=1.360656973244701 rxn_smarts="[C:1]([C:2]([C:3]([H:10])([H:11])[H:12])([O:4][H:13])[C:5]#[C:6][H:14])([H:7])([H:8])[H:9]>>[C:1]([C:2]([C:3]([H:10])([H:11])[H:12])=[C:5]=[C:6]([O:4][H:13])[H:14])([H:7])([H:8])[H:9]"
C       -0.90269606       1.04159270      -0.76349127
C       -0.02137365      -0.04665853      -0.17876086
C        0.21127473      -1.20204056      -1.13252778
O       -0.38129574      -0.62229383       1.75844724
C        1.11969957       0.41044512       0.50308254
C        1.39173334       0.28515794       1.72765791
H       -1.02481765       1.87582676      -0.07297370
H       -0.47800680       1.44369913      -1.68621837
H       -1.88277314       0.61973151      -0.99608773
H        0.88066435      -1.94391890      -0.69998077
H        0.65922219      -0.85818839      -2.06722808
H       -0.74642709      -1.67403155      -1.36086506
H       -0.77238410      -0.10428882       2.46386652
H        1.94718003       0.77496741       2.50507941
14
Frame=16 idx=004028 GeodesicLength=1.4506887203465328 rxn_smarts="[C:1]([C:2]([C:3]([H:10])([H:11])[H:12])([O:4][H:13])[C:5]#[C:6][H:14])([H:7])([H:8])[H:9]>>[C:1]([C:2]([C:3]([H:10])([H:11])[H:12])=[C:5]=[C:6]([O:4][H:13])[H:14])([H:7])([H:8])[H:9]"
C       -0.90174564       1.04479400      -0.77908315
C       -0.04172606      -0.05408139      -0.18019826
C        0.20896786      -1.20095245      -1.14120443
O       -0.39903891      -0.63134669       1.79234757
C        1.08464354       0.39206974       0.52461260
C        1.39742771       0.28845133       1.73962241
H       -1.03271464       1.87603914      -0.08668711
H       -0.45847950       1.44907332      -1.69213969
H       -1.88009754       0.62977876      -1.03030383
H        0.87184988      -1.94644184      -0.70485379
H        0.67052055      -0.85140175      -2.06716065
H       -0.74534825      -1.67152575      -1.38617871
H       -0.75004791      -0.13017126       2.52962338
H        1.97578890       0.80571485       2.48160365
