12
Frame=0 idx=007472 GeodesicLength=0.0 rxn_smarts="[N:1]([c:2]1[c:3]([H:10])[n:4]([H:11])[c:5](=[O:6])[n:7]1[H:12])([H:8])[H:9]>>[C:5](=[O:6])=[N:7][H:12].[N:1]([C:2]/[C:3](=[N:4]/[H:11])[H:10])([H:8])[H:9]"
N        2.09042207       0.28163385      -0.07221762
C        1.03260043       0.47528648      -0.78996580
C       -0.08572409       1.21003050      -0.31156324
N       -1.18869232       0.75787156       0.14870344
C       -1.55105324      -1.21057632       0.29300669
O       -2.68637699      -1.28321567       0.58762741
N       -0.39960404      -1.60253435       0.00564074
H        2.89454289      -0.16967145      -0.47892189
H        2.13079113       0.42739046       0.93061895
H        0.04088716       2.27975055      -0.52223836
H       -1.92102816       1.44661696       0.26975645
H       -0.35676486      -2.61258257      -0.06044680
12
Frame=1 idx=007472 GeodesicLength=0.09671235178345353 rxn_smarts="[N:1]([c:2]1[c:3]([H:10])[n:4]([H:11])[c:5](=[O:6])[n:7]1[H:12])([H:8])[H:9]>>[C:5](=[O:6])=[N:7][H:12].[N:1]([C:2]/[C:3](=[N:4]/[H:11])[H:10])([H:8])[H:9]"
N        2.08142206       0.26978231      -0.07243589
C        1.00128084       0.43290788      -0.76990034
C       -0.08766567       1.21770786      -0.30445471
N       -1.19108720       0.78265006       0.18080438
C       -1.54427106      -1.21057759       0.31806462
O       -2.69327477      -1.31767806       0.54495224
N       -0.37258613      -1.58215523       0.07835234
H        2.86294484      -0.22118730      -0.47776527
H        2.13768026       0.45098428       0.92373571
H        0.04451778       2.27657877      -0.55699877
H       -1.92760269       1.47137666       0.27161010
H       -0.31135828      -2.57038964      -0.13596442
12
Frame=2 idx=007472 GeodesicLength=0.19458703317070836 rxn_smarts="[N:1]([c:2]1[c:3]([H:10])[n:4]([H:11])[c:5](=[O:6])[n:7]1[H:12])([H:8])[H:9]>>[C:5](=[O:6])=[N:7][H:12].[N:1]([C:2]/[C:3](=[N:4]/[H:11])[H:10])([H:8])[H:9]"
N        2.07051500       0.25484867      -0.07010789
C        0.97135306       0.39217611      -0.74856516
C       -0.08973518       1.22319952      -0.30144748
N       -1.19210886       0.80620467       0.21079477
C       -1.53948729      -1.21137114       0.33856520
O       -2.69480200      -1.35218576       0.51201851
N       -0.35320173      -1.56512443       0.13315570
H        2.83056401      -0.27330719      -0.46956260
H        2.14197805       0.47547915       0.91686838
H        0.04577724       2.26948300      -0.59652662
H       -1.92974832       1.49580717       0.28090552
H       -0.26110397      -2.51520979      -0.20609834
12
Frame=3 idx=007472 GeodesicLength=0.2937162583099745 rxn_smarts="[N:1]([c:2]1[c:3]([H:10])[n:4]([H:11])[c:5](=[O:6])[n:7]1[H:12])([H:8])[H:9]>>[C:5](=[O:6])=[N:7][H:12].[N:1]([C:2]/[C:3](=[N:4]/[H:11])[H:10])([H:8])[H:9]"
N        2.05904023       0.23794818      -0.06511054
C        0.94340777       0.35371029      -0.72634219
C       -0.09191458       1.22715025      -0.30180119
N       -1.19192708       0.82867560       0.23869745
C       -1.53488351      -1.21316780       0.36086627
O       -2.69309740      -1.38697560       0.48402166
N       -0.33874966      -1.55214888       0.17065765
H        2.79891485      -0.32530770      -0.45479369
H        2.14677408       0.50535967       0.90876986
H        0.04499985       2.25949284      -0.63883402
H       -1.92853372       1.52038080       0.29604047
H       -0.21403082      -2.45511764      -0.27217171
12
Frame=4 idx=007472 GeodesicLength=0.3933665625101253 rxn_smarts="[N:1]([c:2]1[c:3]([H:10])[n:4]([H:11])[c:5](=[O:6])[n:7]1[H:12])([H:8])[H:9]>>[C:5](=[O:6])=[N:7][H:12].[N:1]([C:2]/[C:3](=[N:4]/[H:11])[H:10])([H:8])[H:9]"
N        2.04710950       0.22032024      -0.05589683
C        0.91838068       0.31865033      -0.70313127
C       -0.09350233       1.23001958      -0.30517008
N       -1.19060504       0.84983672       0.26240319
C       -1.52918720      -1.21612667       0.38383550
O       -2.68617517      -1.42267703       0.47259327
N       -0.32732185      -1.54290204       0.19102438
H        2.76771006      -0.37661846      -0.43135101
H        2.15118887       0.53948498       0.90032649
H        0.04375661       2.24753999      -0.68172961
H       -1.92565408       1.54376250       0.30929863
H       -0.17570005      -2.39129014      -0.34220266
12
Frame=5 idx=007472 GeodesicLength=0.493686167616995 rxn_smarts="[N:1]([c:2]1[c:3]([H:10])[n:4]([H:11])[c:5](=[O:6])[n:7]1[H:12])([H:8])[H:9]>>[C:5](=[O:6])=[N:7][H:12].[N:1]([C:2]/[C:3](=[N:4]/[H:11])[H:10])([H:8])[H:9]"
N        2.03503271       0.20254437      -0.04517266
C        0.89493002       0.28676747      -0.68016593
C       -0.09502996       1.23246307      -0.31060040
N       -1.18812198       0.87044272       0.28427572
C       -1.52495793      -1.21993068       0.39966497
O       -2.67826062      -1.45886905       0.46570854
N       -0.31803951      -1.53583370       0.20160391
H        2.73713084      -0.42599957      -0.40393483
H        2.15569986       0.57490885       0.88936540
H        0.04116238       2.23449431      -0.72459573
H       -1.91959780       1.56816092       0.32774519
H       -0.13994800      -2.32914870      -0.40389417
12
Frame=6 idx=007472 GeodesicLength=0.594384595349621 rxn_smarts="[N:1]([c:2]1[c:3]([H:10])[n:4]([H:11])[c:5](=[O:6])[n:7]1[H:12])([H:8])[H:9]>>[C:5](=[O:6])=[N:7][H:12].[N:1]([C:2]/[C:3](=[N:4]/[H:11])[H:10])([H:8])[H:9]"
N        2.02284006       0.18480170      -0.03276830
C        0.87293240       0.25805251      -0.65723237
C       -0.09620452       1.23477464      -0.31709935
N       -1.18497652       0.89066814       0.30378911
C       -1.52094457      -1.22439827       0.41241168
O       -2.66874638      -1.49622484       0.46448689
N       -0.31015962      -1.53045283       0.20426398
H        2.70694567      -0.47322044      -0.37313344
H        2.16056321       0.61033601       0.87607991
H        0.03836343       2.22111203      -0.76555190
H       -1.91205604       1.59285482       0.34623598
H       -0.10855712      -2.26830347      -0.46148219
12
Frame=7 idx=007472 GeodesicLength=0.695357791000184 rxn_smarts="[N:1]([c:2]1[c:3]([H:10])[n:4]([H:11])[c:5](=[O:6])[n:7]1[H:12])([H:8])[H:9]>>[C:5](=[O:6])=[N:7][H:12].[N:1]([C:2]/[C:3](=[N:4]/[H:11])[H:10])([H:8])[H:9]"
N        2.01049176       0.16727710      -0.01925226
C        0.85192021       0.23223239      -0.63454488
C       -0.09712206       1.23717733      -0.32427143
N       -1.18136079       0.91080994       0.32139848
C       -1.51738774      -1.22931677       0.42186205
O       -2.65813914      -1.53485779       0.46676152
N       -0.30336599      -1.52611110       0.20141342
H        2.67697485      -0.51809198      -0.34026302
H        2.16572788       0.64454041       0.86032558
H        0.03556251       2.20790319      -0.80415730
H       -1.90321869       1.61814395       0.36475834
H       -0.08008281      -2.20970666      -0.51403051
12
Frame=8 idx=007472 GeodesicLength=0.7964568411309783 rxn_smarts="[N:1]([c:2]1[c:3]([H:10])[n:4]([H:11])[c:5](=[O:6])[n:7]1[H:12])([H:8])[H:9]>>[C:5](=[O:6])=[N:7][H:12].[N:1]([C:2]/[C:3](=[N:4]/[H:11])[H:10])([H:8])[H:9]"
N        1.99789184       0.15008452      -0.00538644
C        0.83130091       0.20887116      -0.61218368
C       -0.09796651       1.23972113      -0.33176161
N       -1.17731769       0.93112064       0.33793226
C       -1.51472326      -1.23451440       0.42788844
O       -2.64695040      -1.57468683       0.46876245
N       -0.29758740      -1.52222628       0.19558383
H        2.64698525      -0.56050661      -0.30679617
H        2.17133582       0.67697804       0.84155758
H        0.03267915       2.19503993      -0.84035257
H       -1.89288868       1.64446247       0.38433083
H       -0.05275902      -2.15434378      -0.55957494
12
Frame=9 idx=007472 GeodesicLength=0.8975965293876847 rxn_smarts="[N:1]([c:2]1[c:3]([H:10])[n:4]([H:11])[c:5](=[O:6])[n:7]1[H:12])([H:8])[H:9]>>[C:5](=[O:6])=[N:7][H:12].[N:1]([C:2]/[C:3](=[N:4]/[H:11])[H:10])([H:8])[H:9]"
N        1.98497365       0.13327023       0.00883921
C        0.81090088       0.18768370      -0.59007446
C       -0.09877863       1.24240394      -0.33945268
N       -1.17291613       0.95170445       0.35358183
C       -1.51310688      -1.23990233       0.43061314
O       -2.63519690      -1.61583253       0.47037512
N       -0.29282185      -1.51855275       0.18758946
H        2.61688902      -0.60054846      -0.27295329
H        2.17738453       0.70762481       0.81974563
H        0.02987064       2.18266736      -0.87415326
H       -1.88112309       1.67187545       0.40471077
H       -0.02607524      -2.10239386      -0.59882148
12
Frame=10 idx=007472 GeodesicLength=0.9987998407184683 rxn_smarts="[N:1]([c:2]1[c:3]([H:10])[n:4]([H:11])[c:5](=[O:6])[n:7]1[H:12])([H:8])[H:9]>>[C:5](=[O:6])=[N:7][H:12].[N:1]([C:2]/[C:3](=[N:4]/[H:11])[H:10])([H:8])[H:9]"
N        1.97168774       0.11668843       0.02449363
C        0.79104499       0.16871504      -0.56798001
C       -0.09926829       1.24542243      -0.34718882
N       -1.16849717       0.97256606       0.36753201
C       -1.51196922      -1.24548511       0.43114497
O       -2.62188873      -1.65880097       0.47604527
N       -0.28887331      -1.51521324       0.17630546
H        2.58675180      -0.63839807      -0.23794774
H        2.18375348       0.73590743       0.79620751
H        0.02766520       2.17105475      -0.90564754
H       -1.86887066       1.69986053       0.42325334
H       -0.00153582      -2.05231728      -0.63621809
12
Frame=11 idx=007472 GeodesicLength=1.0999895238323334 rxn_smarts="[N:1]([c:2]1[c:3]([H:10])[n:4]([H:11])[c:5](=[O:6])[n:7]1[H:12])([H:8])[H:9]>>[C:5](=[O:6])=[N:7][H:12].[N:1]([C:2]/[C:3](=[N:4]/[H:11])[H:10])([H:8])[H:9]"
N        1.95801000       0.10069933       0.04053868
C        0.77118829       0.15150345      -0.54611373
C       -0.09981930       1.24858469      -0.35515966
N       -1.16380753       0.99388730       0.38081640
C       -1.51180892      -1.25117708       0.42913786
O       -2.60756583      -1.70309103       0.48141147
N       -0.28568822      -1.51181266       0.16388406
H        2.55647241      -0.67390006      -0.20300945
H        2.19002994       0.76142863       0.77063833
H        0.02539661       2.15988131      -0.93559468
H       -1.85524491       1.72906870       0.44235155
H        0.02283745      -2.00507258      -0.66890083
12
Frame=12 idx=007472 GeodesicLength=1.2011735882339174 rxn_smarts="[N:1]([c:2]1[c:3]([H:10])[n:4]([H:11])[c:5](=[O:6])[n:7]1[H:12])([H:8])[H:9]>>[C:5](=[O:6])=[N:7][H:12].[N:1]([C:2]/[C:3](=[N:4]/[H:11])[H:10])([H:8])[H:9]"
N        1.94381497       0.08507293       0.05771230
C        0.75143456       0.13600501      -0.52419620
C       -0.10023695       1.25199181      -0.36309371
N       -1.15910638       1.01563719       0.39303188
C       -1.51261608      -1.25702363       0.42454666
O       -2.59165403      -1.74908686       0.48888386
N       -0.28334912      -1.50839657       0.14967385
H        2.52595080      -0.70736467      -0.16765787
H        2.19656799       0.78442648       0.74325440
H        0.02347057       2.14927710      -0.96385700
H       -1.84073620       1.75923530       0.46074062
H        0.04645985      -1.95977409      -0.69903878
12
Frame=13 idx=007472 GeodesicLength=1.3023183949317283 rxn_smarts="[N:1]([c:2]1[c:3]([H:10])[n:4]([H:11])[c:5](=[O:6])[n:7]1[H:12])([H:8])[H:9]>>[C:5](=[O:6])=[N:7][H:12].[N:1]([C:2]/[C:3](=[N:4]/[H:11])[H:10])([H:8])[H:9]"
N        1.92907031       0.07001398       0.07558709
C        0.73150271       0.12191928      -0.50227477
C       -0.10076548       1.25547341      -0.37112032
N       -1.15427527       1.03787984       0.40469086
C       -1.51465869      -1.26303486       0.41726637
O       -2.57433485      -1.79639596       0.49646019
N       -0.28181275      -1.50481104       0.13469567
H        2.49516015      -0.73875377      -0.13237004
H        2.20312554       0.80486926       0.71383732
H        0.02150631       2.13900601      -0.99086436
H       -1.82481931       1.79066414       0.47957599
H        0.07030132      -1.91683030      -0.72548400
12
Frame=14 idx=007472 GeodesicLength=1.4034330936875554 rxn_smarts="[N:1]([c:2]1[c:3]([H:10])[n:4]([H:11])[c:5](=[O:6])[n:7]1[H:12])([H:8])[H:9]>>[C:5](=[O:6])=[N:7][H:12].[N:1]([C:2]/[C:3](=[N:4]/[H:11])[H:10])([H:8])[H:9]"
N        1.91367672       0.05547926       0.09449210
C        0.71140522       0.10920501      -0.48027912
C       -0.10134070       1.25907478      -0.37919132
N       -1.14946724       1.06060294       0.41554048
C       -1.51792464      -1.26928082       0.40714200
O       -2.55503429      -1.84508619       0.50564717
N       -0.28107363      -1.50104941       0.11855791
H        2.46402069      -0.76821880      -0.09697045
H        2.20955535       0.82249657       0.68286858
H        0.01969572       2.12914005      -1.01664645
H       -1.80767232       1.82324523       0.49827008
H        0.09415912      -1.87560862      -0.74943098
12
Frame=15 idx=007472 GeodesicLength=1.5045111176922832 rxn_smarts="[N:1]([c:2]1[c:3]([H:10])[n:4]([H:11])[c:5](=[O:6])[n:7]1[H:12])([H:8])[H:9]>>[C:5](=[O:6])=[N:7][H:12].[N:1]([C:2]/[C:3](=[N:4]/[H:11])[H:10])([H:8])[H:9]"
N        1.89760276       0.04161981       0.11422407
C        0.69100204       0.09768167      -0.45825671
C       -0.10212328       1.26265096      -0.38744418
N       -1.14463836       1.08379288       0.42576325
C       -1.52235508      -1.27589080       0.39442560
O       -2.53359691      -1.89467096       0.51569606
N       -0.28100390      -1.49709157       0.10161860
H        2.43250519      -0.79576915      -0.06159347
H        2.21549858       0.83716440       0.65059944
H        0.01778268       2.11947899      -1.04154988
H       -1.78897503       1.85705624       0.51727853
H        0.11830131      -1.83602246      -0.77076130
12
Frame=16 idx=007472 GeodesicLength=1.6055787092379785 rxn_smarts="[N:1]([c:2]1[c:3]([H:10])[n:4]([H:11])[c:5](=[O:6])[n:7]1[H:12])([H:8])[H:9]>>[C:5](=[O:6])=[N:7][H:12].[N:1]([C:2]/[C:3](=[N:4]/[H:11])[H:10])([H:8])[H:9]"
N        1.88072026       0.02839589       0.13504770
C        0.67026324       0.08727978      -0.43617678
C       -0.10312104       1.26617417      -0.39588026
N       -1.13994533       1.10738163       0.43515399
C       -1.52789431      -1.28304304       0.37894395
O       -2.50949189      -1.94492238       0.52765511
N       -0.28156634      -1.49297895       0.08350446
H        2.40049157      -0.82156256      -0.02600131
H        2.22082632       0.84877642       0.61732888
H        0.01590470       2.11005626      -1.06556614
H       -1.76875954       1.89199472       0.53632616
H        0.14257235      -1.79755192      -0.79033577
