6
Frame=0 idx=004399 GeodesicLength=0.0 rxn_smarts="[O:1]=[C:2]([C:3](=[O:4])[H:6])[H:5]>>[O:1]=[C:2]([O+:4]=[C-:3][H:6])[H:5]"
O        1.58307205      -0.56349058      -0.70768276
C        0.94980139      -0.09914185       0.16447014
C       -1.19126068       0.42222862      -0.49994731
O       -0.44198755      -0.31112313       0.28122932
H        1.31359652       0.48904449       1.01538756
H       -2.21322175       0.06248245      -0.25345695
6
Frame=1 idx=004399 GeodesicLength=0.07506913002282324 rxn_smarts="[O:1]=[C:2]([C:3](=[O:4])[H:6])[H:5]>>[O:1]=[C:2]([O+:4]=[C-:3][H:6])[H:5]"
O        1.55859726      -0.56359813      -0.72235717
C        0.94221211      -0.08659942       0.15615118
C       -1.17284261       0.43219071      -0.46676108
O       -0.46024168      -0.30878620       0.33553289
H        1.33337328       0.48474742       1.00706870
H       -2.20109836       0.04204562      -0.30963452
6
Frame=2 idx=004399 GeodesicLength=0.15016791866717596 rxn_smarts="[O:1]=[C:2]([C:3](=[O:4])[H:6])[H:5]>>[O:1]=[C:2]([O+:4]=[C-:3][H:6])[H:5]"
O        1.53445292      -0.56230008      -0.73658631
C        0.93354132      -0.07567876       0.14848919
C       -1.15595419       0.43905654      -0.43576967
O       -0.47825064      -0.30568617       0.38735054
H        1.34996014       0.48031241       0.99829817
H       -2.18374955       0.02429606      -0.36178191
6
Frame=3 idx=004399 GeodesicLength=0.2254848369444628 rxn_smarts="[O:1]=[C:2]([C:3](=[O:4])[H:6])[H:5]>>[O:1]=[C:2]([O+:4]=[C-:3][H:6])[H:5]"
O        1.51082097      -0.55992601      -0.75041872
C        0.92400231      -0.06614443       0.14130483
C       -1.14024035       0.44353747      -0.40689294
O       -0.49620383      -0.30160591       0.43685659
H        1.36367002       0.47561389       0.98916895
H       -2.16204912       0.00852498      -0.41001872
6
Frame=4 idx=004399 GeodesicLength=0.30097789538725506 rxn_smarts="[O:1]=[C:2]([C:3](=[O:4])[H:6])[H:5]>>[O:1]=[C:2]([O+:4]=[C-:3][H:6])[H:5]"
O        1.48800453      -0.55661111      -0.76380894
C        0.91394910      -0.05781671       0.13451127
C       -1.12557043       0.44599522      -0.38041489
O       -0.51425739      -0.29659258       0.48404168
H        1.37504961       0.47058763       0.97991987
H       -2.13717542      -0.00556245      -0.45424899
6
Frame=5 idx=004399 GeodesicLength=0.3766039965949309 rxn_smarts="[O:1]=[C:2]([C:3](=[O:4])[H:6])[H:5]>>[O:1]=[C:2]([O+:4]=[C-:3][H:6])[H:5]"
O        1.46613021      -0.55255139      -0.77693466
C        0.90361398      -0.05039238       0.12797561
C       -1.11173956       0.44667178      -0.35648440
O       -0.53245290      -0.29049024       0.52906171
H        1.38452972       0.46508995       0.97094644
H       -2.11008145      -0.01832772      -0.49456469
6
Frame=6 idx=004399 GeodesicLength=0.45230476508343276 rxn_smarts="[O:1]=[C:2]([C:3](=[O:4])[H:6])[H:5]>>[O:1]=[C:2]([O+:4]=[C-:3][H:6])[H:5]"
O        1.44592143      -0.54758670      -0.78961656
C        0.89330443      -0.04416986       0.12177785
C       -1.09786855       0.44511250      -0.33576114
O       -0.55069999      -0.28395139       0.57141087
H        1.39169558       0.45957864       0.96223535
H       -2.08235290      -0.02898320      -0.53004639
6
Frame=7 idx=004399 GeodesicLength=0.5279553060899714 rxn_smarts="[O:1]=[C:2]([C:3](=[O:4])[H:6])[H:5]>>[O:1]=[C:2]([O+:4]=[C-:3][H:6])[H:5]"
O        1.42672150      -0.54202054      -0.80217384
C        0.88305764      -0.03847249       0.11564463
C       -1.08458174       0.44237011      -0.31732223
O       -0.56919142      -0.27589393       0.61185953
H        1.39770223       0.45319634       0.95415600
H       -2.05370820      -0.03917949      -0.56216409
6
Frame=8 idx=004399 GeodesicLength=0.6039338333761053 rxn_smarts="[O:1]=[C:2]([C:3](=[O:4])[H:6])[H:5]>>[O:1]=[C:2]([O+:4]=[C-:3][H:6])[H:5]"
O        1.40912091      -0.53573024      -0.81452993
C        0.87307072      -0.03367409       0.10966954
C       -1.07114073       0.43820940      -0.30123399
O       -0.58800679      -0.26676354       0.65018611
H        1.40212537       0.44637038       0.94645688
H       -2.02516947      -0.04841191      -0.59054861
6
Frame=9 idx=004399 GeodesicLength=0.679820485469335 rxn_smarts="[O:1]=[C:2]([C:3](=[O:4])[H:6])[H:5]>>[O:1]=[C:2]([O+:4]=[C-:3][H:6])[H:5]"
O        1.39239376      -0.52876667      -0.82699041
C        0.86329642      -0.02938749       0.10372778
C       -1.05802500       0.43332163      -0.28682510
O       -0.60715482      -0.25584570       0.68702311
H        1.40577100       0.43849489       0.93941606
H       -1.99628137      -0.05781668      -0.61635144
6
Frame=10 idx=004399 GeodesicLength=0.7558071802709366 rxn_smarts="[O:1]=[C:2]([C:3](=[O:4])[H:6])[H:5]>>[O:1]=[C:2]([O+:4]=[C-:3][H:6])[H:5]"
O        1.37676156      -0.52104579      -0.83959462
C        0.85382597      -0.02573942       0.09783124
C       -1.04503425       0.42770706      -0.27391454
O       -0.62674952      -0.24314109       0.72238491
H        1.40859255       0.42961138       0.93293241
H       -1.96739631      -0.06739214      -0.63963939
6
Frame=11 idx=004399 GeodesicLength=0.8318379608907769 rxn_smarts="[O:1]=[C:2]([C:3](=[O:4])[H:6])[H:5]>>[O:1]=[C:2]([O+:4]=[C-:3][H:6])[H:5]"
O        1.36211006      -0.51244917      -0.85247432
C        0.84469460      -0.02261842       0.09193459
C       -1.03220958       0.42148056      -0.26235754
O       -0.64683310      -0.22833693       0.75646547
H        1.41085455       0.41942539       0.92714046
H       -1.93861654      -0.07750142      -0.66070865
6
Frame=12 idx=004399 GeodesicLength=0.9080648049531825 rxn_smarts="[O:1]=[C:2]([C:3](=[O:4])[H:6])[H:5]>>[O:1]=[C:2]([O+:4]=[C-:3][H:6])[H:5]"
O        1.34853504      -0.50283178      -0.86568537
C        0.83589786      -0.02008478       0.08600319
C       -1.01931640       0.41451647      -0.25208784
O       -0.66742946      -0.21128845       0.78921368
H        1.41235575       0.40784171       0.92201020
H       -1.91004279      -0.08815316      -0.67945386
6
Frame=13 idx=004399 GeodesicLength=0.984198164420457 rxn_smarts="[O:1]=[C:2]([C:3](=[O:4])[H:6])[H:5]>>[O:1]=[C:2]([O+:4]=[C-:3][H:6])[H:5]"
O        1.33606006      -0.49203550      -0.87931344
C        0.82756637      -0.01807587       0.08003093
C       -1.00652930       0.40692839      -0.24304235
O       -0.68857019      -0.19172362       0.82073165
H        1.41349466       0.39458389       0.91772766
H       -1.88202160      -0.09967729      -0.69613445
6
Frame=14 idx=004399 GeodesicLength=1.0604883793385482 rxn_smarts="[O:1]=[C:2]([C:3](=[O:4])[H:6])[H:5]>>[O:1]=[C:2]([O+:4]=[C-:3][H:6])[H:5]"
O        1.32466231      -0.47975662      -0.89347961
C        0.81959250      -0.01656605       0.07392495
C       -0.99374044       0.39866962      -0.23503796
O       -0.71030117      -0.16910120       0.85101601
H        1.41402285       0.37916532       0.91425769
H       -1.85423605      -0.11241107      -0.71068108
6
Frame=15 idx=004399 GeodesicLength=1.1367097889182847 rxn_smarts="[O:1]=[C:2]([C:3](=[O:4])[H:6])[H:5]>>[O:1]=[C:2]([O+:4]=[C-:3][H:6])[H:5]"
O        1.31445070      -0.46573153      -0.90826304
C        0.81210603      -0.01564870       0.06772395
C       -0.98100840       0.38972372      -0.22806552
O       -0.73265033      -0.14316094       0.88006736
H        1.41418380       0.36138020       0.91173353
H       -1.82708180      -0.12656275      -0.72319628
6
Frame=16 idx=004399 GeodesicLength=1.2129875368446177 rxn_smarts="[O:1]=[C:2]([C:3](=[O:4])[H:6])[H:5]>>[O:1]=[C:2]([O+:4]=[C-:3][H:6])[H:5]"
O        1.30543504      -0.44967772      -0.92373239
C        0.80503245      -0.01550699       0.06140971
C       -0.96817406       0.37999620      -0.22189972
O       -0.75559532      -0.11362164       0.90772050
H        1.41366919       0.34105577       0.91006167
H       -1.80036730      -0.14224561      -0.73355977
