7
Frame=0 idx=004965 GeodesicLength=0.0 rxn_smarts="[O:1]=[C:2]([C:3]#[C:4][H:7])[C:5]#[N:6]>>[O+:1](=[C-:2][C:3]#[C:4][H:7])[C:5]#[N:6]"
O       -1.09978881      -1.02794622       0.09443170
C       -0.36237024       0.04671010       0.04904008
C        1.02925528      -0.00612658      -0.05214197
C        2.22300546       0.12192501      -0.13592422
C       -2.00379856       0.08785017       0.11413715
N       -3.06932798       0.55998527       0.14167184
H        3.28302486       0.21760227      -0.21121460
7
Frame=1 idx=004965 GeodesicLength=0.04328737040161663 rxn_smarts="[O:1]=[C:2]([C:3]#[C:4][H:7])[C:5]#[N:6]>>[O+:1](=[C-:2][C:3]#[C:4][H:7])[C:5]#[N:6]"
O       -1.09420577      -1.03657194       0.08682238
C       -0.35691517       0.03564254       0.12902746
C        1.02595848      -0.00920642      -0.06879305
C        2.21840546       0.12744471      -0.15621933
C       -2.00629602       0.09052235       0.09342721
N       -3.06676826       0.57110264       0.12718103
H        3.27982129       0.22106613      -0.21144571
7
Frame=2 idx=004965 GeodesicLength=0.08700752509800384 rxn_smarts="[O:1]=[C:2]([C:3]#[C:4][H:7])[C:5]#[N:6]>>[O+:1](=[C-:2][C:3]#[C:4][H:7])[C:5]#[N:6]"
O       -1.08666922      -1.04602356       0.08021029
C       -0.35248150       0.02061144       0.19094255
C        1.02012699      -0.00334968      -0.07940091
C        2.21155977       0.13763616      -0.17270560
C       -2.00573174       0.09329577       0.07996529
N       -3.06167947       0.58117679       0.11329619
H        3.27487516       0.21665307      -0.21230780
7
Frame=3 idx=004965 GeodesicLength=0.13115835855939934 rxn_smarts="[O:1]=[C:2]([C:3]#[C:4][H:7])[C:5]#[N:6]>>[O+:1](=[C-:2][C:3]#[C:4][H:7])[C:5]#[N:6]"
O       -1.07951165      -1.05617438       0.07452793
C       -0.34880121       0.00305666       0.23966653
C        1.01437685       0.00170997      -0.08299137
C        2.20456587       0.14666566      -0.18423053
C       -2.00417388       0.09684143       0.06975593
N       -3.05527755       0.59285791       0.10023388
H        3.26882158       0.21504275      -0.21696239
7
Frame=4 idx=004965 GeodesicLength=0.17539837836755195 rxn_smarts="[O:1]=[C:2]([C:3]#[C:4][H:7])[C:5]#[N:6]>>[O+:1](=[C-:2][C:3]#[C:4][H:7])[C:5]#[N:6]"
O       -1.07333504      -1.06713288       0.07046677
C       -0.34533922      -0.01655728       0.27987457
C        1.00861321       0.00362363      -0.08541211
C        2.19743074       0.15258826      -0.19558611
C       -2.00197691       0.10117943       0.06282057
N       -3.04741002       0.60697389       0.08771251
H        3.26201725       0.21932495      -0.21987619
7
Frame=5 idx=004965 GeodesicLength=0.21965931556541463 rxn_smarts="[O:1]=[C:2]([C:3]#[C:4][H:7])[C:5]#[N:6]>>[O+:1](=[C-:2][C:3]#[C:4][H:7])[C:5]#[N:6]"
O       -1.06717828      -1.07827721       0.06719133
C       -0.34230058      -0.03663439       0.31454310
C        1.00291771       0.00485317      -0.08593129
C        2.19029041       0.15823936      -0.20434506
C       -1.99961916       0.10571082       0.05697507
N       -3.03908468       0.62156845       0.07579534
H        3.25497458       0.22453980      -0.22422850
7
Frame=6 idx=004965 GeodesicLength=0.2639754004101418 rxn_smarts="[O:1]=[C:2]([C:3]#[C:4][H:7])[C:5]#[N:6]>>[O+:1](=[C-:2][C:3]#[C:4][H:7])[C:5]#[N:6]"
O       -1.06177444      -1.09004429       0.06461495
C       -0.33957366      -0.05787958       0.34566337
C        0.99744825       0.00355804      -0.08446524
C        2.18310192       0.16199979      -0.21202069
C       -1.99693344       0.11077603       0.05183281
N       -3.02969277       0.63781327       0.06393665
H        3.24742416       0.23377674      -0.22956184
7
Frame=7 idx=004965 GeodesicLength=0.30835209197880314 rxn_smarts="[O:1]=[C:2]([C:3]#[C:4][H:7])[C:5]#[N:6]>>[O+:1](=[C-:2][C:3]#[C:4][H:7])[C:5]#[N:6]"
O       -1.05550989      -1.10163849       0.06281451
C       -0.33713716      -0.07783556       0.37292461
C        0.99185845       0.00408324      -0.08337023
C        2.17589520       0.16774520      -0.21822587
C       -1.99445666       0.11553293       0.04695256
N       -3.02086866       0.65266709       0.05344028
H        3.24021872       0.23944558      -0.23453585
7
Frame=8 idx=004965 GeodesicLength=0.3525919735456594 rxn_smarts="[O:1]=[C:2]([C:3]#[C:4][H:7])[C:5]#[N:6]>>[O+:1](=[C-:2][C:3]#[C:4][H:7])[C:5]#[N:6]"
O       -1.04898782      -1.11322422       0.06127686
C       -0.33501451      -0.09757808       0.39789033
C        0.98632698       0.00471206      -0.08112513
C        2.16863136       0.17424779      -0.22280315
C       -1.99197059       0.12029652       0.04226420
N       -3.01200213       0.66725981       0.04323960
H        3.23301671       0.24428612      -0.24074272
7
Frame=9 idx=004965 GeodesicLength=0.39691836534377567 rxn_smarts="[O:1]=[C:2]([C:3]#[C:4][H:7])[C:5]#[N:6]>>[O+:1](=[C-:2][C:3]#[C:4][H:7])[C:5]#[N:6]"
O       -1.04230741      -1.12498874       0.06028047
C       -0.33305838      -0.11696560       0.42065224
C        0.98080628       0.00523711      -0.07877647
C        2.16134977       0.18076058      -0.22679910
C       -1.98949973       0.12513848       0.03782874
N       -3.00307858       0.68176367       0.03358625
H        3.22578803       0.24905449      -0.24677214
7
Frame=10 idx=004965 GeodesicLength=0.4412236785861056 rxn_smarts="[O:1]=[C:2]([C:3]#[C:4][H:7])[C:5]#[N:6]>>[O+:1](=[C-:2][C:3]#[C:4][H:7])[C:5]#[N:6]"
O       -1.03565122      -1.13698064       0.05968482
C       -0.33127623      -0.13636460       0.44179646
C        0.97533692       0.00513945      -0.07596301
C        2.15399930       0.18700195      -0.23027493
C       -1.98696565       0.13012019       0.03366555
N       -2.99384782       0.69654930       0.02410016
H        3.21840470       0.25453434      -0.25300906
7
Frame=11 idx=004965 GeodesicLength=0.4855596144162168 rxn_smarts="[O:1]=[C:2]([C:3]#[C:4][H:7])[C:5]#[N:6]>>[O+:1](=[C-:2][C:3]#[C:4][H:7])[C:5]#[N:6]"
O       -1.02912939      -1.14931346       0.05951498
C       -0.32964007      -0.15589608       0.46158053
C        0.96992496       0.00413706      -0.07282967
C        2.14655299       0.19279060      -0.23345647
C       -1.98434671       0.13527335       0.02982749
N       -2.98416580       0.71183625       0.01465908
H        3.21080402       0.26117228      -0.25929594
7
Frame=12 idx=004965 GeodesicLength=0.5299185137996486 rxn_smarts="[O:1]=[C:2]([C:3]#[C:4][H:7])[C:5]#[N:6]>>[O+:1](=[C-:2][C:3]#[C:4][H:7])[C:5]#[N:6]"
O       -1.02296123      -1.16210379       0.05991095
C       -0.32811244      -0.17577436       0.48017877
C        0.96458730       0.00166106      -0.06959736
C        2.13897410       0.19755754      -0.23686312
C       -1.98157924       0.14067934       0.02638500
N       -2.97376954       0.72799590       0.00517023
H        3.20286104       0.26998431      -0.26518446
7
Frame=13 idx=004965 GeodesicLength=0.5743119547473723 rxn_smarts="[O:1]=[C:2]([C:3]#[C:4][H:7])[C:5]#[N:6]>>[O+:1](=[C-:2][C:3]#[C:4][H:7])[C:5]#[N:6]"
O       -1.01720950      -1.17542982       0.06075107
C       -0.32673105      -0.19619565       0.49792232
C        0.95934700      -0.00244335      -0.06599255
C        2.13120825       0.20141606      -0.24030781
C       -1.97862109       0.14633672       0.02340150
N       -2.96246059       0.74519928      -0.00465921
H        3.19446698       0.28111675      -0.27111532
7
Frame=14 idx=004965 GeodesicLength=0.6187509340846319 rxn_smarts="[O:1]=[C:2]([C:3]#[C:4][H:7])[C:5]#[N:6]>>[O+:1](=[C-:2][C:3]#[C:4][H:7])[C:5]#[N:6]"
O       -1.01200984      -1.18937149       0.06214063
C       -0.32548699      -0.21727115       0.51491831
C        0.95422066      -0.00850340      -0.06215903
C        2.12323699       0.20400238      -0.24404456
C       -1.97540922       0.15230241       0.02087643
N       -2.95001855       0.76365004      -0.01487175
H        3.18546695       0.29519122      -0.27686003
7
Frame=15 idx=004965 GeodesicLength=0.6631983170098404 rxn_smarts="[O:1]=[C:2]([C:3]#[C:4][H:7])[C:5]#[N:6]>>[O+:1](=[C-:2][C:3]#[C:4][H:7])[C:5]#[N:6]"
O       -1.00658464      -1.20346291       0.06383281
C       -0.32437031      -0.23790626       0.53087839
C        0.94908315      -0.01444775      -0.05850117
C        2.11520133       0.20688493      -0.24733177
C       -1.97220519       0.15829701       0.01832969
N       -2.93746108       0.78186698      -0.02469409
H        3.17633674       0.30876800      -0.28251385
7
Frame=16 idx=004965 GeodesicLength=0.7076379868314171 rxn_smarts="[O:1]=[C:2]([C:3]#[C:4][H:7])[C:5]#[N:6]>>[O+:1](=[C-:2][C:3]#[C:4][H:7])[C:5]#[N:6]"
O       -1.00073115      -1.21753605       0.06574730
C       -0.32337232      -0.25776135       0.54578532
C        0.94390894      -0.01972805      -0.05511084
C        2.10718511       0.21028847      -0.25005121
C       -1.96907144       0.16431977       0.01550838
N       -2.92520884       0.79938433      -0.03382629
H        3.16728970       0.32103288      -0.28805267
