14
Frame=0 idx=005741 GeodesicLength=0.0 rxn_smarts="[C:1]([O:2][C@@:3]([C:4]([H:11])([H:12])[H:13])([C:5](=[O:6])[H:14])[H:10])([H:7])([H:8])[H:9]>>[C:1](=[O:2])([H:7])[H:9].[C:3](\[C:4]([H:11])([H:12])[H:13])(=[C:5](/[O:6][H:8])[H:14])[H:10]"
C        1.97767071       0.03538721      -0.29502835
O        0.98513237      -0.74812583      -0.06564743
C       -0.77343918       0.03662396      -0.30245067
C       -1.68082364      -1.06135044       0.12398264
C       -0.41871248       1.09070805       0.52058078
O        0.45315255       1.93452890       0.10300968
H        2.34175190       0.11679789      -1.32812137
H        1.41926287       1.27801883      -0.14944376
H        2.72092604       0.13304676       0.50402447
H       -0.63481023       0.18048708      -1.36760794
H       -1.27329548      -2.02055125      -0.19850088
H       -1.80380675      -1.08393880       1.20687569
H       -2.66281639      -0.94474835      -0.34038533
H       -0.65019228       1.05311596       1.58871252
14
Frame=1 idx=005741 GeodesicLength=0.08301901128681036 rxn_smarts="[C:1]([O:2][C@@:3]([C:4]([H:11])([H:12])[H:13])([C:5](=[O:6])[H:14])[H:10])([H:7])([H:8])[H:9]>>[C:1](=[O:2])([H:7])[H:9].[C:3](\[C:4]([H:11])([H:12])[H:13])(=[C:5](/[O:6][H:8])[H:14])[H:10]"
C        1.99331793       0.03929479      -0.29949569
O        0.99825735      -0.75114902      -0.10670756
C       -0.77111017       0.02897137      -0.29805972
C       -1.68946474      -1.06111046       0.12814249
C       -0.42612320       1.08829715       0.52611805
O        0.43460953       1.94179113       0.10597963
H        2.40656035       0.10099042      -1.31511084
H        1.41117742       1.28381851      -0.18897779
H        2.69912360       0.15251200       0.53118817
H       -0.64451078       0.18047238      -1.36416118
H       -1.29796618      -2.02357042      -0.20449073
H       -1.80226035      -1.09175927       1.21203891
H       -2.67464164      -0.92844407      -0.32489767
H       -0.63696912       1.03988549       1.59843392
14
Frame=2 idx=005741 GeodesicLength=0.1656949975886398 rxn_smarts="[C:1]([O:2][C@@:3]([C:4]([H:11])([H:12])[H:13])([C:5](=[O:6])[H:14])[H:10])([H:7])([H:8])[H:9]>>[C:1](=[O:2])([H:7])[H:9].[C:3](\[C:4]([H:11])([H:12])[H:13])(=[C:5](/[O:6][H:8])[H:14])[H:10]"
C        2.00859348       0.04343448      -0.30419456
O        1.01139917      -0.75321939      -0.15014192
C       -0.76844264       0.02117130      -0.29377671
C       -1.69755770      -1.06091447       0.13264147
C       -0.43368381       1.08617039       0.53115337
O        0.41634922       1.94878865       0.10863042
H        2.47214698       0.08615321      -1.29864500
H        1.40286242       1.28890744      -0.22782390
H        2.67490501       0.16997652       0.55696386
H       -0.65493372       0.18056343      -1.36073145
H       -1.32242249      -2.02636371      -0.21017607
H       -1.79984438      -1.09970252       1.21741099
H       -2.68577986      -0.91232847      -0.30853496
H       -0.62359171       1.02736314       1.60722446
14
Frame=3 idx=005741 GeodesicLength=0.24801859866700676 rxn_smarts="[C:1]([O:2][C@@:3]([C:4]([H:11])([H:12])[H:13])([C:5](=[O:6])[H:14])[H:10])([H:7])([H:8])[H:9]>>[C:1](=[O:2])([H:7])[H:9].[C:3](\[C:4]([H:11])([H:12])[H:13])(=[C:5](/[O:6][H:8])[H:14])[H:10]"
C        2.02344929       0.04771276      -0.30918713
O        1.02454314      -0.75416202      -0.19585095
C       -0.76535360       0.01323678      -0.28961479
C       -1.70500820      -1.06078127       0.13745546
C       -0.44143144       1.08437837       0.53566280
O        0.39823756       1.95565717       0.11085538
H        2.53777916       0.07221923      -1.27877502
H        1.39464935       1.29343498      -0.26542860
H        2.64852598       0.18504505       0.58107587
H       -0.66597868       0.18072232      -1.35730056
H       -1.34649319      -2.02895457      -0.21545510
H       -1.79657846      -1.10771588       1.22295414
H       -2.69609252      -0.89651660      -0.29143760
H       -0.61024837       1.01572366       1.61504611
14
Frame=4 idx=005741 GeodesicLength=0.33000101178688457 rxn_smarts="[C:1]([O:2][C@@:3]([C:4]([H:11])([H:12])[H:13])([C:5](=[O:6])[H:14])[H:10])([H:7])([H:8])[H:9]>>[C:1](=[O:2])([H:7])[H:9].[C:3](\[C:4]([H:11])([H:12])[H:13])(=[C:5](/[O:6][H:8])[H:14])[H:10]"
C        2.03785335       0.05204062      -0.31451168
O        1.03767318      -0.75379191      -0.24370309
C       -0.76176509       0.00519870      -0.28556598
C       -1.71172630      -1.06072331       0.14254460
C       -0.44939802       1.08294947       0.53967395
O        0.38012391       1.96253749       0.11264787
H        2.60282412       0.05889761      -1.25557623
H        1.38678907       1.29758776      -0.30153057
H        2.62020618       0.19750490       0.60333424
H       -0.67752685       0.18094056      -1.35381986
H       -1.37002538      -2.03134759      -0.22030754
H       -1.79244725      -1.11579646       1.22861652
H       -2.70546676      -0.88107966      -0.27372327
H       -0.59711415       1.00508182       1.62192105
14
Frame=5 idx=005741 GeodesicLength=0.4116522928190807 rxn_smarts="[C:1]([O:2][C@@:3]([C:4]([H:11])([H:12])[H:13])([C:5](=[O:6])[H:14])[H:10])([H:7])([H:8])[H:9]>>[C:1](=[O:2])([H:7])[H:9].[C:3](\[C:4]([H:11])([H:12])[H:13])(=[C:5](/[O:6][H:8])[H:14])[H:10]"
C        2.05178056       0.05634946      -0.32020970
O        1.05077143      -0.75191088      -0.29355002
C       -0.75759779      -0.00289590      -0.28159957
C       -1.71762265      -1.06074349       0.14786154
C       -0.45760658       1.08189325       0.54326330
O        0.36187210       1.96955513       0.11409736
H        2.66670480       0.04575866      -1.22917404
H        1.37945339       1.30156261      -0.33606057
H        2.59012958       0.20725929       0.62358055
H       -0.68943812       0.18123890      -1.35021559
H       -1.39282968      -2.03354165      -0.22468753
H       -1.78749694      -1.12391507       1.23433968
H       -2.71377180      -0.86610465      -0.25557706
H       -0.58434828       0.99549433       1.62793166
14
Frame=6 idx=005741 GeodesicLength=0.493034379146472 rxn_smarts="[C:1]([O:2][C@@:3]([C:4]([H:11])([H:12])[H:13])([C:5](=[O:6])[H:14])[H:10])([H:7])([H:8])[H:9]>>[C:1](=[O:2])([H:7])[H:9].[C:3](\[C:4]([H:11])([H:12])[H:13])(=[C:5](/[O:6][H:8])[H:14])[H:10]"
C        2.06522109       0.06057951      -0.32630169
O        1.06382792      -0.74833909      -0.34519737
C       -0.75278010      -0.01099816      -0.27768672
C       -1.72262325      -1.06085396       0.15334946
C       -0.46608165       1.08122273       0.54651179
O        0.34336593       1.97683512       0.11532831
H        2.72892070       0.03226654      -1.19968597
H        1.37275815       1.30555693      -0.36905765
H        2.55848224       0.21437119       0.64168387
H       -0.70156080       0.18162772      -1.34642139
H       -1.41478180      -2.03553986      -0.22865848
H       -1.78169850      -1.13211748       1.24006528
H       -2.72093479      -0.85162667      -0.23710574
H       -0.57211513       0.98701548       1.63317632
14
Frame=7 idx=005741 GeodesicLength=0.5741607574235775 rxn_smarts="[C:1]([O:2][C@@:3]([C:4]([H:11])([H:12])[H:13])([C:5](=[O:6])[H:14])[H:10])([H:7])([H:8])[H:9]>>[C:1](=[O:2])([H:7])[H:9].[C:3](\[C:4]([H:11])([H:12])[H:13])(=[C:5](/[O:6][H:8])[H:14])[H:10]"
C        2.07816577       0.06469316      -0.33282191
O        1.07683350      -0.74289942      -0.39842025
C       -0.74723771      -0.01905968      -0.27378529
C       -1.72665713      -1.06105378       0.15895076
C       -0.47483910       1.08092777       0.54951400
O        0.32450587       1.98446240       0.11649958
H        2.78897518       0.01788972      -1.16727405
H        1.36677198       1.30974526      -0.40059681
H        2.52545108       0.21895455       0.65750156
H       -0.71372356       0.18211039      -1.34235678
H       -1.43572523      -2.03733744      -0.23222614
H       -1.77509455      -1.14039137       1.24572999
H       -2.72686437      -0.83770105      -0.21848526
H       -0.56056172       0.97965949       1.63777058
14
Frame=8 idx=005741 GeodesicLength=0.6551117884844706 rxn_smarts="[C:1]([O:2][C@@:3]([C:4]([H:11])([H:12])[H:13])([C:5](=[O:6])[H:14])[H:10])([H:7])([H:8])[H:9]>>[C:1](=[O:2])([H:7])[H:9].[C:3](\[C:4]([H:11])([H:12])[H:13])(=[C:5](/[O:6][H:8])[H:14])[H:10]"
C        2.09062848       0.06867476      -0.33979949
O        1.08979111      -0.73544040      -0.45295474
C       -0.74090577      -0.02703362      -0.26985531
C       -1.72967641      -1.06135261       0.16460490
C       -0.48390051       1.08100456       0.55236494
O        0.30520460       1.99252469       0.11777320
H        2.84642869       0.00204666      -1.13211154
H        1.36153784       1.31430244      -0.43078781
H        2.49123741       0.22123599       0.67090459
H       -0.72573852       0.18267362      -1.33795605
H       -1.45555832      -2.03894349      -0.23546155
H       -1.76770274      -1.14877199       1.25127584
H       -2.73151660      -0.82435737      -0.19984031
H       -0.54982925       0.97343676       1.64184333
14
Frame=9 idx=005741 GeodesicLength=0.7358904305822029 rxn_smarts="[C:1]([O:2][C@@:3]([C:4]([H:11])([H:12])[H:13])([C:5](=[O:6])[H:14])[H:10])([H:7])([H:8])[H:9]>>[C:1](=[O:2])([H:7])[H:9].[C:3](\[C:4]([H:11])([H:12])[H:13])(=[C:5](/[O:6][H:8])[H:14])[H:10]"
C        2.10261108       0.07253064      -0.34725945
O        1.10268674      -0.72578734      -0.50853962
C       -0.73371828      -0.03485303      -0.26585071
C       -1.73160197      -1.06174096       0.17025018
C       -0.49327769       1.08143057       0.55516725
O        0.28536953       2.00107611       0.11931550
H        2.90077023      -0.01590860      -1.09442906
H        1.35705746       1.31939041      -0.45972986
H        2.45598763       0.22146389       0.68179038
H       -0.73742306       0.18334038      -1.33315438
H       -1.47407756      -2.04035382      -0.23834391
H       -1.75958369      -1.15722481       1.25664784
H       -2.73478789      -0.81166630      -0.18140001
H       -0.54001253       0.96830286       1.64553585
14
Frame=10 idx=005741 GeodesicLength=0.81659328191412 rxn_smarts="[C:1]([O:2][C@@:3]([C:4]([H:11])([H:12])[H:13])([C:5](=[O:6])[H:14])[H:10])([H:7])([H:8])[H:9]>>[C:1](=[O:2])([H:7])[H:9].[C:3](\[C:4]([H:11])([H:12])[H:13])(=[C:5](/[O:6][H:8])[H:14])[H:10]"
C        2.11416946       0.07626013      -0.35522646
O        1.11554994      -0.71388743      -0.56480334
C       -0.72562084      -0.04249769      -0.26172571
C       -1.73244026      -1.06222770       0.17582437
C       -0.50297699       1.08217637       0.55800981
O        0.26493605       2.01016197       0.12127231
H        2.95157803      -0.03641157      -1.05447319
H        1.35334914       1.32513097      -0.48753483
H        2.41998585       0.22001196       0.69003935
H       -0.74854884       0.18403471      -1.32790212
H       -1.49125800      -2.04159322      -0.24095834
H       -1.75081899      -1.16576813       1.26179163
H       -2.73669935      -0.79962725      -0.16329119
H       -0.53120520       0.96423687       1.64897773
14
Frame=11 idx=005741 GeodesicLength=0.8972231332313256 rxn_smarts="[C:1]([O:2][C@@:3]([C:4]([H:11])([H:12])[H:13])([C:5](=[O:6])[H:14])[H:10])([H:7])([H:8])[H:9]>>[C:1](=[O:2])([H:7])[H:9].[C:3](\[C:4]([H:11])([H:12])[H:13])(=[C:5](/[O:6][H:8])[H:14])[H:10]"
C        2.12534607       0.07988804      -0.36371060
O        1.12838663      -0.69966372      -0.62142400
C       -0.71656601      -0.04992850      -0.25743305
C       -1.73216636      -1.06280058       0.18127264
C       -0.51299243       1.08318846       0.56097241
O        0.24382556       2.01978647       0.12376212
H        2.99839095      -0.05991725      -1.01249787
H        1.35040168       1.33162745      -0.51430731
H        2.38343426       0.21723511       0.69558635
H       -0.75892289       0.18472374      -1.32214986
H       -1.50698603      -2.04266151      -0.24330295
H       -1.74150222      -1.17435861       1.26665795
H       -2.73722245      -0.78827617      -0.14570734
H       -0.52342678       0.96115708       1.65228152
14
Frame=12 idx=005741 GeodesicLength=0.9779531330806174 rxn_smarts="[C:1]([O:2][C@@:3]([C:4]([H:11])([H:12])[H:13])([C:5](=[O:6])[H:14])[H:10])([H:7])([H:8])[H:9]>>[C:1](=[O:2])([H:7])[H:9].[C:3](\[C:4]([H:11])([H:12])[H:13])(=[C:5](/[O:6][H:8])[H:14])[H:10]"
C        2.13623386       0.08345160      -0.37272021
O        1.14124045      -0.68314893      -0.67803375
C       -0.70652390      -0.05713469      -0.25293951
C       -1.73082633      -1.06348294       0.18653974
C       -0.52331721       1.08443912       0.56414080
O        0.22197935       2.02999405       0.12687919
H        3.04084795      -0.08681230      -0.96874446
H        1.34822642       1.33898006      -0.54020019
H        2.34660422       0.21363434       0.69840339
H       -0.76832406       0.18531565      -1.31590692
H       -1.52133072      -2.04360426      -0.24552697
H       -1.73169532      -1.18306206       1.27122065
H       -2.73643337      -0.77759327      -0.12870541
H       -0.51668134       0.95902363       1.65559362
14
Frame=13 idx=005741 GeodesicLength=1.0585301504813256 rxn_smarts="[C:1]([O:2][C@@:3]([C:4]([H:11])([H:12])[H:13])([C:5](=[O:6])[H:14])[H:10])([H:7])([H:8])[H:9]>>[C:1](=[O:2])([H:7])[H:9].[C:3](\[C:4]([H:11])([H:12])[H:13])(=[C:5](/[O:6][H:8])[H:14])[H:10]"
C        2.14683253       0.08694313      -0.38219425
O        1.15407704      -0.66430636      -0.73419419
C       -0.69544035      -0.06404205      -0.24817706
C       -1.72830127      -1.06420205       0.19156047
C       -0.53391597       1.08582331       0.56756666
O        0.19927078       2.04069432       0.13070009
H        3.07820373      -0.11751268      -0.92362058
H        1.34671543       1.34720350      -0.56525597
H        2.30966399       0.20957027       0.69848909
H       -0.77656511       0.18585745      -1.30910292
H       -1.53396759      -2.04435792      -0.24748177
H       -1.72148928      -1.19172205       1.27540510
H       -2.73416344      -0.76760278      -0.11265717
H       -0.51092048       0.95765391       1.65896251
14
Frame=14 idx=005741 GeodesicLength=1.1393099699028462 rxn_smarts="[C:1]([O:2][C@@:3]([C:4]([H:11])([H:12])[H:13])([C:5](=[O:6])[H:14])[H:10])([H:7])([H:8])[H:9]>>[C:1](=[O:2])([H:7])[H:9].[C:3](\[C:4]([H:11])([H:12])[H:13])(=[C:5](/[O:6][H:8])[H:14])[H:10]"
C        2.15734207       0.09036012      -0.39211781
O        1.16701778      -0.64340447      -0.78950034
C       -0.68332239      -0.07070478      -0.24310261
C       -1.72479012      -1.06499626       0.19629373
C       -0.54475924       1.08729427       0.57135466
O        0.17569674       2.05189757       0.13529232
H        3.11027531      -0.15190543      -0.87750304
H        1.34594763       1.35628753      -0.58968452
H        2.27302901       0.20565127       0.69589930
H       -0.78339573       0.18616397      -1.30177960
H       -1.54517030      -2.04501958      -0.24934692
H       -1.71113199      -1.20038819       1.27921729
H       -2.73065381      -0.75824683      -0.09758173
H       -0.50608496       0.95701080       1.66255927
14
Frame=15 idx=005741 GeodesicLength=1.2203697261647486 rxn_smarts="[C:1]([O:2][C@@:3]([C:4]([H:11])([H:12])[H:13])([C:5](=[O:6])[H:14])[H:10])([H:7])([H:8])[H:9]>>[C:1](=[O:2])([H:7])[H:9].[C:3](\[C:4]([H:11])([H:12])[H:13])(=[C:5](/[O:6][H:8])[H:14])[H:10]"
C        2.16785725       0.09369992      -0.40243068
O        1.18010876      -0.62058633      -0.84368854
C       -0.67017533      -0.07710983      -0.23769595
C       -1.72033873      -1.06587069       0.20072892
C       -0.55581506       1.08878208       0.57549825
O        0.15117784       2.06357908       0.14058183
H        3.13675914      -0.19001095      -0.83049621
H        1.34593853       1.36623856      -0.61366995
H        2.23688735       0.20227726       0.69073722
H       -0.78868649       0.18621898      -1.29396152
H       -1.55506772      -2.04557603      -0.25125375
H       -1.70058360      -1.20918243       1.28264328
H       -2.72599830      -0.74942698      -0.08338439
H       -0.50206365       0.95696733       1.66639148
14
Frame=16 idx=005741 GeodesicLength=1.3013029812352608 rxn_smarts="[C:1]([O:2][C@@:3]([C:4]([H:11])([H:12])[H:13])([C:5](=[O:6])[H:14])[H:10])([H:7])([H:8])[H:9]>>[C:1](=[O:2])([H:7])[H:9].[C:3](\[C:4]([H:11])([H:12])[H:13])(=[C:5](/[O:6][H:8])[H:14])[H:10]"
C        2.17825994       0.09692983      -0.41303261
O        1.19317546      -0.59583887      -0.89658993
C       -0.65598152      -0.08315705      -0.23195252
C       -1.71472497      -1.06672902       0.20480504
C       -0.56698210       1.09019725       0.58002391
O        0.12563985       2.07555524       0.14660636
H        3.15679497      -0.23210255      -0.78282978
H        1.34658609       1.37695092      -0.63721039
H        2.20115438       0.19972727       0.68318057
H       -0.79239280       0.18606849      -1.28568484
H       -1.56322297      -2.04591639      -0.25306846
H       -1.68972461      -1.21783371       1.28564671
H       -2.71992964      -0.74127763      -0.07039152
H       -0.49865208       0.95742623       1.67049745
