11
Frame=0 idx=002687 GeodesicLength=0.0 rxn_smarts="[C:1]([C:2]([C:3](=[O:4])[C:5]#[N:6])([H:10])[H:11])([H:7])([H:8])[H:9]>>[C:1]([C@:2]([C:3](=[O:4])[H:11])([C:5]#[N:6])[H:10])([H:7])([H:8])[H:9]"
C       -1.36130364       0.58872536      -0.28322988
C       -0.13308703      -0.08628293      -0.59447598
C        0.58058220      -0.73489231       0.52172532
O        0.07769183      -0.75891445       1.68921662
C        1.88054890       0.07811318       0.31629737
N        2.84465206       0.69786097       0.23255070
H       -1.19789739       1.12065078       0.66907879
H       -2.05124620      -0.20275689       0.05850964
H       -1.80096430       1.18772872      -1.07322988
H        0.27456007      -0.16459766      -1.59969852
H        0.88646351      -1.72563479       0.06325582
11
Frame=1 idx=002687 GeodesicLength=0.10049947605008426 rxn_smarts="[C:1]([C:2]([C:3](=[O:4])[C:5]#[N:6])([H:10])[H:11])([H:7])([H:8])[H:9]>>[C:1]([C@:2]([C:3](=[O:4])[H:11])([C:5]#[N:6])[H:10])([H:7])([H:8])[H:9]"
C       -1.35533741       0.58297166      -0.27934077
C       -0.12056350      -0.09535184      -0.57883080
C        0.58165746      -0.73286799       0.55092305
O        0.08026228      -0.75491012       1.71236992
C        1.87896650       0.09896870       0.29895408
N        2.85104477       0.70498516       0.20838586
H       -1.22531312       1.10223640       0.68385438
H       -2.06172462      -0.20913120       0.02169978
H       -1.76306953       1.20815559      -1.06650644
H        0.27463900      -0.18395500      -1.58814743
H        0.85943817      -1.72110135       0.03663837
11
Frame=2 idx=002687 GeodesicLength=0.20100028007441828 rxn_smarts="[C:1]([C:2]([C:3](=[O:4])[C:5]#[N:6])([H:10])[H:11])([H:7])([H:8])[H:9]>>[C:1]([C@:2]([C:3](=[O:4])[H:11])([C:5]#[N:6])[H:10])([H:7])([H:8])[H:9]"
C       -1.34937864       0.57700192      -0.27537305
C       -0.10810800      -0.10448226      -0.56338682
C        0.58328545      -0.73129992       0.57922574
O        0.08311030      -0.75031818       1.73485967
C        1.87666171       0.12016505       0.28172385
N        2.85700739       0.71129232       0.18311517
H       -1.25344815       1.08244983       0.69796521
H       -2.07109554      -0.21493772      -0.01693713
H       -1.72477777       1.22863562      -1.05750700
H        0.27480619      -0.20208120      -1.57661541
H        0.83193707      -1.71642547       0.01292977
11
Frame=3 idx=002687 GeodesicLength=0.3015276161494714 rxn_smarts="[C:1]([C:2]([C:3](=[O:4])[C:5]#[N:6])([H:10])[H:11])([H:7])([H:8])[H:9]>>[C:1]([C@:2]([C:3](=[O:4])[H:11])([C:5]#[N:6])[H:10])([H:7])([H:8])[H:9]"
C       -1.34342583       0.57084622      -0.27133667
C       -0.09571928      -0.11366057      -0.54817417
C        0.58537298      -0.73005455       0.60669393
O        0.08623192      -0.74515799       1.75672576
C        1.87369622       0.14163204       0.26453965
N        2.86243431       0.71688795       0.15691699
H       -1.28223623       1.06136000       0.71128795
H       -2.07925559      -0.21997262      -0.05729506
H       -1.68624369       1.24905908      -1.04615789
H        0.27508533      -0.21910469      -1.56515096
H        0.80405986      -1.71183486      -0.00804953
11
Frame=4 idx=002687 GeodesicLength=0.4025660589844607 rxn_smarts="[C:1]([C:2]([C:3](=[O:4])[C:5]#[N:6])([H:10])[H:11])([H:7])([H:8])[H:9]>>[C:1]([C@:2]([C:3](=[O:4])[H:11])([C:5]#[N:6])[H:10])([H:7])([H:8])[H:9]"
C       -1.33760722       0.56453989      -0.26723778
C       -0.08332437      -0.12278543      -0.53321075
C        0.58784938      -0.72898110       0.63356574
O        0.08949914      -0.73941686       1.77836200
C        1.87017862       0.16357613       0.24738312
N        2.86763555       0.72159842       0.12948055
H       -1.31212383       1.03886097       0.72398060
H       -2.08623324      -0.22430980      -0.09957711
H       -1.64747715       1.26970138      -1.03238340
H        0.27563858      -0.23518154      -1.55394032
H        0.77596456      -1.70760205      -0.02642265
11
Frame=5 idx=002687 GeodesicLength=0.5027432384921345 rxn_smarts="[C:1]([C:2]([C:3](=[O:4])[C:5]#[N:6])([H:10])[H:11])([H:7])([H:8])[H:9]>>[C:1]([C@:2]([C:3](=[O:4])[H:11])([C:5]#[N:6])[H:10])([H:7])([H:8])[H:9]"
C       -1.33168732       0.55799855      -0.26309522
C       -0.07109651      -0.13200101      -0.51834681
C        0.59076426      -0.72791530       0.65962288
O        0.09340777      -0.73298837       1.79900424
C        1.86616465       0.18525908       0.23006510
N        2.87174254       0.72598226       0.10176733
H       -1.34221976       1.01476883       0.73535676
H       -2.09178317      -0.22709191      -0.14357984
H       -1.60857720       1.28980057      -1.01599045
H        0.27590979      -0.25051685      -1.54240056
H        0.74737497      -1.70329586      -0.04240344
11
Frame=6 idx=002687 GeodesicLength=0.6032848439039644 rxn_smarts="[C:1]([C:2]([C:3](=[O:4])[C:5]#[N:6])([H:10])[H:11])([H:7])([H:8])[H:9]>>[C:1]([C@:2]([C:3](=[O:4])[H:11])([C:5]#[N:6])[H:10])([H:7])([H:8])[H:9]"
C       -1.32583788       0.55133560      -0.25890656
C       -0.05888609      -0.14131915      -0.50376270
C        0.59396703      -0.72694252       0.68517069
O        0.09745587      -0.72609397       1.81941599
C        1.86164751       0.20717977       0.21256650
N        2.87519275       0.73002302       0.07333659
H       -1.37297678       0.98947287       0.74574162
H       -2.09595085      -0.22859143      -0.18910710
H       -1.56962938       1.30982200      -0.99707924
H        0.27639241      -0.26529349      -1.53113421
H        0.71862541      -1.69959270      -0.05624157
11
Frame=7 idx=002687 GeodesicLength=0.7038893382978749 rxn_smarts="[C:1]([C:2]([C:3](=[O:4])[C:5]#[N:6])([H:10])[H:11])([H:7])([H:8])[H:9]>>[C:1]([C@:2]([C:3](=[O:4])[H:11])([C:5]#[N:6])[H:10])([H:7])([H:8])[H:9]"
C       -1.32001724       0.54449292      -0.25469589
C       -0.04671622      -0.15073040      -0.48939202
C        0.59744457      -0.72591193       0.71024509
O        0.10175835      -0.71862490       1.83948604
C        1.85664934       0.22922260       0.19484038
N        2.87787738       0.73373546       0.04437013
H       -1.40423206       0.96280630       0.75494222
H       -2.09859662      -0.22855459      -0.23619206
H       -1.53068780       1.32953956      -0.97551275
H        0.27692166      -0.27964366      -1.51997988
H        0.68959865      -1.69633136      -0.06811127
11
Frame=8 idx=002687 GeodesicLength=0.8046400114051488 rxn_smarts="[C:1]([C:2]([C:3](=[O:4])[C:5]#[N:6])([H:10])[H:11])([H:7])([H:8])[H:9]>>[C:1]([C@:2]([C:3](=[O:4])[H:11])([C:5]#[N:6])[H:10])([H:7])([H:8])[H:9]"
C       -1.31419557       0.53750093      -0.25046867
C       -0.03456815      -0.16031814      -0.47524160
C        0.60118126      -0.72484536       0.73492445
O        0.10629852      -0.71060052       1.85931079
C        1.85123150       0.25123907       0.17670858
N        2.87964394       0.73750742       0.01503464
H       -1.43591125       0.93480545       0.76289059
H       -2.09964346      -0.22672412      -0.28473750
H       -1.49174348       1.34892361      -0.95125277
H        0.27746548      -0.29382179      -1.50898769
H        0.66024121      -1.69366655      -0.07818083
11
Frame=9 idx=002687 GeodesicLength=0.9052288649638994 rxn_smarts="[C:1]([C:2]([C:3](=[O:4])[C:5]#[N:6])([H:10])[H:11])([H:7])([H:8])[H:9]>>[C:1]([C@:2]([C:3](=[O:4])[H:11])([C:5]#[N:6])[H:10])([H:7])([H:8])[H:9]"
C       -1.30840196       0.53024478      -0.24628266
C       -0.02245977      -0.17001812      -0.46124260
C        0.60515899      -0.72354862       0.75921590
O        0.11111888      -0.70191369       1.87870623
C        1.84530589       0.27333216       0.15829136
N        2.88059063       0.74091567      -0.01461461
H       -1.46780911       0.90536455       0.76928565
H       -2.09894232      -0.22294469      -0.33465669
H       -1.45305452       1.36761546      -0.92414370
H        0.27795423      -0.30775897      -1.49795155
H        0.63053906      -1.69128852      -0.08660733
11
Frame=10 idx=002687 GeodesicLength=1.0059462961571075 rxn_smarts="[C:1]([C:2]([C:3](=[O:4])[C:5]#[N:6])([H:10])[H:11])([H:7])([H:8])[H:9]>>[C:1]([C@:2]([C:3](=[O:4])[H:11])([C:5]#[N:6])[H:10])([H:7])([H:8])[H:9]"
C       -1.30259994       0.52279783      -0.24212221
C       -0.01033856      -0.17998982      -0.44741826
C        0.60936705      -0.72210814       0.78322708
O        0.11611190      -0.69256669       1.89787609
C        1.83892230       0.29532542       0.13929582
N        2.88051557       0.74453147      -0.04455311
H       -1.50005083       0.87448502       0.77419010
H       -2.09641998      -0.21692053      -0.38593952
H       -1.41444513       1.38577663      -0.89407794
H        0.27845049      -0.32184148      -1.48699602
H        0.60048714      -1.68948970      -0.09348204
11
Frame=11 idx=002687 GeodesicLength=1.1068241549863127 rxn_smarts="[C:1]([C:2]([C:3](=[O:4])[C:5]#[N:6])([H:10])[H:11])([H:7])([H:8])[H:9]>>[C:1]([C@:2]([C:3](=[O:4])[H:11])([C:5]#[N:6])[H:10])([H:7])([H:8])[H:9]"
C       -1.29683779       0.51510752      -0.23806363
C        0.00184652      -0.19012200      -0.43376912
C        0.61375700      -0.72044379       0.80705475
O        0.12119141      -0.68252957       1.91691910
C        1.83205295       0.31739211       0.11984850
N        2.87963916       0.74799585      -0.07485289
H       -1.53252864       0.84221415       0.77746797
H       -2.09188072      -0.20867747      -0.43837970
H       -1.37629694       1.40319693      -0.86106932
H        0.27902806      -0.33594768      -1.47615911
H        0.57002899      -1.68818603      -0.09899656
11
Frame=12 idx=002687 GeodesicLength=1.2076313973993442 rxn_smarts="[C:1]([C:2]([C:3](=[O:4])[C:5]#[N:6])([H:10])[H:11])([H:7])([H:8])[H:9]>>[C:1]([C@:2]([C:3](=[O:4])[H:11])([C:5]#[N:6])[H:10])([H:7])([H:8])[H:9]"
C       -1.29091270       0.50712713      -0.23409425
C        0.01398882      -0.20069810      -0.42025107
C        0.61832539      -0.71861491       0.83054939
O        0.12645340      -0.67186410       1.93544500
C        1.82463432       0.33909050       0.09970823
N        2.87741281       0.75226241      -0.10493417
H       -1.56460655       0.80874379       0.77879016
H       -2.08531497      -0.19762866      -0.49157892
H       -1.33826244       1.41932787      -0.82511320
H        0.27936098      -0.35046238      -1.46522043
H        0.53892095      -1.68728355      -0.10330076
11
Frame=13 idx=002687 GeodesicLength=1.308887734630223 rxn_smarts="[C:1]([C:2]([C:3](=[O:4])[C:5]#[N:6])([H:10])[H:11])([H:7])([H:8])[H:9]>>[C:1]([C@:2]([C:3](=[O:4])[H:11])([C:5]#[N:6])[H:10])([H:7])([H:8])[H:9]"
C       -1.28500582       0.49899047      -0.23027541
C        0.02626313      -0.21165619      -0.40697077
C        0.62302863      -0.71674804       0.85402628
O        0.13154706      -0.66071257       1.95412134
C        1.81668450       0.36073900       0.07882398
N        2.87423780       0.75705505      -0.13522979
H       -1.59671010       0.77431281       0.77846159
H       -2.07654580      -0.18396064      -0.54541276
H       -1.30083109       1.43458883      -0.78639218
H        0.27989775      -0.36538912      -1.45462833
H        0.50743395      -1.68721961      -0.10652396
11
Frame=14 idx=002687 GeodesicLength=1.4097921153188313 rxn_smarts="[C:1]([C:2]([C:3](=[O:4])[C:5]#[N:6])([H:10])[H:11])([H:7])([H:8])[H:9]>>[C:1]([C@:2]([C:3](=[O:4])[H:11])([C:5]#[N:6])[H:10])([H:7])([H:8])[H:9]"
C       -1.27904860       0.49036598      -0.22669814
C        0.03858616      -0.22271860      -0.39366928
C        0.62793542      -0.71429318       0.87717444
O        0.13687834      -0.64854498       1.97197033
C        1.80809829       0.38227083       0.05751426
N        2.87019322       0.76136251      -0.16546013
H       -1.62830529       0.73829791       0.77569623
H       -2.06537801      -0.16742003      -0.59979375
H       -1.26435545       1.44788172      -0.74445029
H        0.28022637      -0.38037980      -1.44354671
H        0.47516955      -1.68682236      -0.10873696
11
Frame=15 idx=002687 GeodesicLength=1.511150404056425 rxn_smarts="[C:1]([C:2]([C:3](=[O:4])[C:5]#[N:6])([H:10])[H:11])([H:7])([H:8])[H:9]>>[C:1]([C@:2]([C:3](=[O:4])[H:11])([C:5]#[N:6])[H:10])([H:7])([H:8])[H:9]"
C       -1.27302722       0.48157685      -0.22333899
C        0.05109710      -0.23430498      -0.38058296
C        0.63289931      -0.71183944       0.90033047
O        0.14180720      -0.63597190       1.98988904
C        1.79892469       0.40360973       0.03528450
N        2.86511590       0.76661030      -0.19574227
H       -1.65954495       0.70162330       0.77106227
H       -2.05181037      -0.14786981      -0.65412187
H       -1.22868460       1.45980008      -0.69989991
H        0.28081492      -0.39601880      -1.43275713
H        0.44240802      -1.68721533      -0.11012316
11
Frame=16 idx=002687 GeodesicLength=1.6126043064483329 rxn_smarts="[C:1]([C:2]([C:3](=[O:4])[C:5]#[N:6])([H:10])[H:11])([H:7])([H:8])[H:9]>>[C:1]([C@:2]([C:3](=[O:4])[H:11])([C:5]#[N:6])[H:10])([H:7])([H:8])[H:9]"
C       -1.26674184       0.47243225      -0.22029756
C        0.06365733      -0.24641041      -0.36757200
C        0.63801023      -0.70905998       0.92335954
O        0.14675953      -0.62268458       2.00735349
C        1.78886822       0.42459027       0.01227791
N        2.85858669       0.77256355      -0.22577583
H       -1.68990318       0.66397343       0.76410682
H       -2.03558099      -0.12502584      -0.70841274
H       -1.19364127       1.46964094      -0.65247475
H        0.28114299      -0.41231270      -1.42181812
H        0.40884229      -1.68770693      -0.11074676
