14
Frame=0 idx=009409 GeodesicLength=0.0 rxn_smarts="[O:1]([C@@:2]1([H:9])[C:3]([H:10])([H:11])[O:4][C:5]([H:12])=[N:6][C:7]1([H:13])[H:14])[H:8]>>[O:1]([C:2]([C:7](/[N:6]=[C:5](\[O+:4]=[C-:3][H:10])[H:12])([H:13])[H:14])([H:9])[H:11])[H:8]"
O       -1.11426202      -0.59472611       1.47338721
C       -1.16415364      -0.07736856       0.19501179
C        0.18552165       1.70654222       0.19747042
O        1.19110413       0.98000550       0.78153782
C        1.71945067      -0.07338840       0.06567379
N        1.09689087      -0.86510025      -0.67500054
C       -0.34968628      -0.82524275      -0.83325058
H       -0.21429941      -0.53149576       1.81157564
H       -2.20983219       0.00230870      -0.10602834
H        0.29343506       1.61983409      -0.89728357
H       -0.95958719       1.15565327       0.39127504
H        2.78693027      -0.17566054       0.23899174
H       -0.57833401      -0.45340845      -1.83505309
H       -0.68317796      -1.86795295      -0.80830732
14
Frame=1 idx=009409 GeodesicLength=0.07060988274106278 rxn_smarts="[O:1]([C@@:2]1([H:9])[C:3]([H:10])([H:11])[O:4][C:5]([H:12])=[N:6][C:7]1([H:13])[H:14])[H:8]>>[O:1]([C:2]([C:7](/[N:6]=[C:5](\[O+:4]=[C-:3][H:10])[H:12])([H:13])[H:14])([H:9])[H:11])[H:8]"
O       -1.12811316      -0.59695482       1.47014452
C       -1.16359758      -0.07385215       0.19118188
C        0.19601007       1.70675826       0.20637795
O        1.18875693       0.96604090       0.79152736
C        1.71849271      -0.08311546       0.06892039
N        1.09591989      -0.87714357      -0.66860273
C       -0.35016494      -0.83488945      -0.82976779
H       -0.23224416      -0.53268199       1.81811503
H       -2.20768770      -0.00000839      -0.11807514
H        0.32072718       1.64578784      -0.88850959
H       -0.97378725       1.17007962       0.40027468
H        2.79625650      -0.14223793       0.19249756
H       -0.57501761      -0.47103877      -1.83544780
H       -0.68555089      -1.87674410      -0.79863632
14
Frame=2 idx=009409 GeodesicLength=0.14110149004852607 rxn_smarts="[O:1]([C@@:2]1([H:9])[C:3]([H:10])([H:11])[O:4][C:5]([H:12])=[N:6][C:7]1([H:13])[H:14])[H:8]>>[O:1]([C:2]([C:7](/[N:6]=[C:5](\[O+:4]=[C-:3][H:10])[H:12])([H:13])[H:14])([H:9])[H:11])[H:8]"
O       -1.14095745      -0.59925165       1.46680198
C       -1.16254212      -0.07048670       0.18736644
C        0.20624037       1.70713363       0.21498055
O        1.18652428       0.95258795       0.80045155
C        1.71796953      -0.09196124       0.07078701
N        1.09512759      -0.88858906      -0.66310699
C       -0.35056184      -0.84467763      -0.82644758
H       -0.24917415      -0.53366996       1.82418039
H       -2.20509403      -0.00256611      -0.12965172
H        0.34859791       1.67291167      -0.87910338
H       -0.98806199       1.18433608       0.40940978
H        2.80165177      -0.11081938       0.14893140
H       -0.57230392      -0.48918878      -1.83589899
H       -0.68741595      -1.88575882      -0.78870044
14
Frame=3 idx=009409 GeodesicLength=0.21148880282674765 rxn_smarts="[O:1]([C@@:2]1([H:9])[C:3]([H:10])([H:11])[O:4][C:5]([H:12])=[N:6][C:7]1([H:13])[H:14])[H:8]>>[O:1]([C:2]([C:7](/[N:6]=[C:5](\[O+:4]=[C-:3][H:10])[H:12])([H:13])[H:14])([H:9])[H:11])[H:8]"
O       -1.15297824      -0.60156958       1.46333610
C       -1.16106701      -0.06725747       0.18352595
C        0.21621946       1.70763834       0.22330891
O        1.18436106       0.93957712       0.80841926
C        1.71775734      -0.10001644       0.07139642
N        1.09445886      -0.89955414      -0.65839058
C       -0.35091333      -0.85464321      -0.82325304
H       -0.26529537      -0.53444191       1.82980846
H       -2.20210349      -0.00530901      -0.14086692
H        0.37711101       1.70121450      -0.86891935
H       -1.00246828       1.19841392       0.41865884
H        2.80391943      -0.08114000       0.10783466
H       -0.57015030      -0.50790991      -1.83637539
H       -0.68885115      -1.89500221      -0.77848334
14
Frame=4 idx=009409 GeodesicLength=0.28182898768249637 rxn_smarts="[O:1]([C@@:2]1([H:9])[C:3]([H:10])([H:11])[O:4][C:5]([H:12])=[N:6][C:7]1([H:13])[H:14])[H:8]>>[O:1]([C:2]([C:7](/[N:6]=[C:5](\[O+:4]=[C-:3][H:10])[H:12])([H:13])[H:14])([H:9])[H:11])[H:8]"
O       -1.16432058      -0.60388511       1.45974671
C       -1.15924603      -0.06415997       0.17963104
C        0.22595889       1.70825727       0.23136966
O        1.18224512       0.92696203       0.81550481
C        1.71776873      -0.10734868       0.07083994
N        1.09388714      -0.91012026      -0.65437269
C       -0.35125083      -0.86481590      -0.82015680
H       -0.28075822      -0.53499254       1.83504287
H       -2.19878358      -0.00820389      -0.15180556
H        0.40636138       1.73072484      -0.85782542
H       -1.01706846       1.21230527       0.42799232
H        2.80365923      -0.05299390       0.06885315
H       -0.56853623      -0.52724056      -1.83686361
H       -0.68991655      -1.90448861      -0.76795641
14
Frame=5 idx=009409 GeodesicLength=0.35214370854602584 rxn_smarts="[O:1]([C@@:2]1([H:9])[C:3]([H:10])([H:11])[O:4][C:5]([H:12])=[N:6][C:7]1([H:13])[H:14])[H:8]>>[O:1]([C:2]([C:7](/[N:6]=[C:5](\[O+:4]=[C-:3][H:10])[H:12])([H:13])[H:14])([H:9])[H:11])[H:8]"
O       -1.17509408      -0.60617698       1.45603291
C       -1.15713327      -0.06119308       0.17565702
C        0.23546708       1.70897755       0.23915603
O        1.18016150       0.91470981       0.82175956
C        1.71793558      -0.11401783       0.06919594
N        1.09339517      -0.92034596      -0.65099581
C       -0.35159768      -0.87521945      -0.81713700
H       -0.29567895      -0.53531230       1.83992429
H       -2.19518402      -0.01123025      -0.16253404
H        0.43642937       1.76146319      -0.84568591
H       -1.03191509       1.22600474       0.43737597
H        2.80132115      -0.02621754       0.03169572
H       -0.56744861      -0.54721206      -1.83734949
H       -0.69065814      -1.91422984      -0.75709519
14
Frame=6 idx=009409 GeodesicLength=0.422455672300714 rxn_smarts="[O:1]([C@@:2]1([H:9])[C:3]([H:10])([H:11])[O:4][C:5]([H:12])=[N:6][C:7]1([H:13])[H:14])[H:8]>>[O:1]([C:2]([C:7](/[N:6]=[C:5](\[O+:4]=[C-:3][H:10])[H:12])([H:13])[H:14])([H:9])[H:11])[H:8]"
O       -1.18539311      -0.60841840       1.45219332
C       -1.15477578      -0.05835895       0.17157809
C        0.24475790       1.70978283       0.24664342
O        1.17809208       0.90278975       0.82722249
C        1.71819117      -0.12008430       0.06653499
N        1.09296085      -0.93029022      -0.64820870
C       -0.35197476      -0.88588473      -0.81417137
H       -0.31015821      -0.53538253       1.84447922
H       -2.19134771      -0.01437789      -0.17311323
H        0.46743364       1.79346717      -0.83230569
H       -1.04705586       1.23950405       0.44676438
H        2.79725569      -0.00063464      -0.00393446
H       -0.56687436      -0.56787008      -1.83781480
H       -0.69111155      -1.92424206      -0.74586766
14
Frame=7 idx=009409 GeodesicLength=0.4927716527039594 rxn_smarts="[O:1]([C@@:2]1([H:9])[C:3]([H:10])([H:11])[O:4][C:5]([H:12])=[N:6][C:7]1([H:13])[H:14])[H:8]>>[O:1]([C:2]([C:7](/[N:6]=[C:5](\[O+:4]=[C-:3][H:10])[H:12])([H:13])[H:14])([H:9])[H:11])[H:8]"
O       -1.19527117      -0.61058725       1.44822898
C       -1.15220705      -0.05566235       0.16737472
C        0.25383822       1.71067059       0.25379613
O        1.17602491       0.89119190       0.83190187
C        1.71848441      -0.12558037       0.06289068
N        1.09256771      -0.93998264      -0.64599272
C       -0.35239748      -0.89683130      -0.81124543
H       -0.32425291      -0.53517978       1.84872146
H       -2.18730617      -0.01765220      -0.18357914
H        0.49945046       1.82676380      -0.81751482
H       -1.06253861       1.25279594       0.45611567
H        2.79171830       0.02383479      -0.03820628
H       -0.56681656      -0.58924646      -1.83824194
H       -0.69129407      -1.93453469      -0.73424917
14
Frame=8 idx=009409 GeodesicLength=0.563092895114286 rxn_smarts="[O:1]([C@@:2]1([H:9])[C:3]([H:10])([H:11])[O:4][C:5]([H:12])=[N:6][C:7]1([H:13])[H:14])[H:8]>>[O:1]([C:2]([C:7](/[N:6]=[C:5](\[O+:4]=[C-:3][H:10])[H:12])([H:13])[H:14])([H:9])[H:11])[H:8]"
O       -1.20478064      -0.61265600       1.44413271
C       -1.14945894      -0.05310957       0.16302255
C        0.26271443       1.71163320       0.26056352
O        1.17393929       0.87990579       0.83580461
C        1.71875905      -0.13054261       0.05829920
N        1.09218925      -0.94946200      -0.64432117
C       -0.35288231      -0.90808652      -0.80833951
H       -0.33802123      -0.53467323       1.85265763
H       -2.18308682      -0.02106190      -0.19397241
H        0.53259407       1.86138541      -0.80108298
H       -1.07840519       1.26587603       0.46538013
H        2.78493482       0.04730270      -0.07133252
H       -0.56727888      -0.61138617      -1.83860105
H       -0.69121688      -1.94512512      -0.72221070
14
Frame=9 idx=009409 GeodesicLength=0.6334132363804025 rxn_smarts="[O:1]([C@@:2]1([H:9])[C:3]([H:10])([H:11])[O:4][C:5]([H:12])=[N:6][C:7]1([H:13])[H:14])[H:8]>>[O:1]([C:2]([C:7](/[N:6]=[C:5](\[O+:4]=[C-:3][H:10])[H:12])([H:13])[H:14])([H:9])[H:11])[H:8]"
O       -1.21400610      -0.61454334       1.43991494
C       -1.14655406      -0.05068637       0.15847325
C        0.27145753       1.71265623       0.26687951
O        1.17184511       0.86887567       0.83896941
C        1.71900844      -0.13497417       0.05270373
N        1.09184591      -0.95874423      -0.64322123
C       -0.35343095      -0.91969924      -0.80543001
H       -0.35152483      -0.53384408       1.85630439
H       -2.17872020      -0.02459766      -0.20438604
H        0.56696801       1.89736912      -0.78249587
H       -1.09467957       1.27875486       0.47439400
H        2.77693965       0.06992188      -0.10359436
H       -0.56827453      -0.63445545      -1.83889791
H       -0.69087442      -1.95603321      -0.70961381
14
Frame=10 idx=009409 GeodesicLength=0.7037308487658467 rxn_smarts="[O:1]([C@@:2]1([H:9])[C:3]([H:10])([H:11])[O:4][C:5]([H:12])=[N:6][C:7]1([H:13])[H:14])[H:8]>>[O:1]([C:2]([C:7](/[N:6]=[C:5](\[O+:4]=[C-:3][H:10])[H:12])([H:13])[H:14])([H:9])[H:11])[H:8]"
O       -1.22297198      -0.61625536       1.43555626
C       -1.14351545      -0.04841228       0.15372011
C        0.28004906       1.71373566       0.27271559
O        1.16972196       0.85811865       0.84137843
C        1.71917141      -0.13894744       0.04621227
N        1.09149016      -0.96789243      -0.64260775
C       -0.35405946      -0.93167526      -0.80249856
H       -0.36481895      -0.53263722       1.85966376
H       -2.17421316      -0.02827898      -0.21482546
H        0.60262968       1.93467586      -0.76171232
H       -1.11140369       1.29142455       0.48318124
H        2.76798369       0.09180125      -0.13519307
H       -0.56977072      -0.65839621      -1.83907568
H       -0.69029255      -1.96726078      -0.69651481
14
Frame=11 idx=009409 GeodesicLength=0.7740333517709941 rxn_smarts="[O:1]([C@@:2]1([H:9])[C:3]([H:10])([H:11])[O:4][C:5]([H:12])=[N:6][C:7]1([H:13])[H:14])[H:8]>>[O:1]([C:2]([C:7](/[N:6]=[C:5](\[O+:4]=[C-:3][H:10])[H:12])([H:13])[H:14])([H:9])[H:11])[H:8]"
O       -1.23171581      -0.61775159       1.43105738
C       -1.14035571      -0.04628699       0.14873708
C        0.28852317       1.71486471       0.27801819
O        1.16757621       0.84761535       0.84302892
C        1.71923504      -0.14249007       0.03882179
N        1.09112551      -0.97694002      -0.64246668
C       -0.35476855      -0.94403648      -0.79952739
H       -0.37794009      -0.53101445       1.86274188
H       -2.16957770      -0.03211068      -0.22533358
H        0.63960928       1.97329646      -0.73845109
H       -1.12859960       1.30388993       0.49166328
H        2.75812286       0.11303535      -0.16631168
H       -0.57175677      -0.68326138      -1.83911368
H       -0.68947783      -1.97881013      -0.68286442
14
Frame=12 idx=009409 GeodesicLength=0.8443233421519565 rxn_smarts="[O:1]([C@@:2]1([H:9])[C:3]([H:10])([H:11])[O:4][C:5]([H:12])=[N:6][C:7]1([H:13])[H:14])[H:8]>>[O:1]([C:2]([C:7](/[N:6]=[C:5](\[O+:4]=[C-:3][H:10])[H:12])([H:13])[H:14])([H:9])[H:11])[H:8]"
O       -1.24027601      -0.61898499       1.42641070
C       -1.13708692      -0.04431134       0.14349264
C        0.29691607       1.71604477       0.28272531
O        1.16540476       0.83735101       0.84391599
C        1.71917347      -0.14562712       0.03053151
N        1.09074066      -0.98592417      -0.64277621
C       -0.35556121      -0.95681247      -0.79649230
H       -0.39093032      -0.52892695       1.86553595
H       -2.16482092      -0.03610179      -0.23595824
H        0.67795564       2.01320735      -0.71237108
H       -1.14629297       1.31616177       0.49975511
H        2.74743125       0.13373274      -0.19717929
H       -0.57422491      -0.70911760      -1.83897932
H       -0.68842858      -1.99069122      -0.66861077
14
Frame=13 idx=009409 GeodesicLength=0.9145626628837962 rxn_smarts="[O:1]([C@@:2]1([H:9])[C:3]([H:10])([H:11])[O:4][C:5]([H:12])=[N:6][C:7]1([H:13])[H:14])[H:8]>>[O:1]([C:2]([C:7](/[N:6]=[C:5](\[O+:4]=[C-:3][H:10])[H:12])([H:13])[H:14])([H:9])[H:11])[H:8]"
O       -1.24866323      -0.61990290       1.42161286
C       -1.13371618      -0.04248435       0.13796217
C        0.30526007       1.71726898       0.28673510
O        1.16322051       0.82731731       0.84399429
C        1.71897890      -0.14835439       0.02129377
N        1.09034251      -0.99486291      -0.64354591
C       -0.35643797      -0.97001907      -0.79337791
H       -0.40379248      -0.52631607       1.86803206
H       -2.15995593      -0.04026449      -0.24672088
H        0.71768155       2.05432445      -0.68310510
H       -1.16451097       1.32824799       0.50736073
H        2.73591472       0.15395579      -0.22789779
H       -0.57718179      -0.73601484      -1.83864550
H       -0.68713973      -2.00289550      -0.65369788
14
Frame=14 idx=009409 GeodesicLength=0.984748493781246 rxn_smarts="[O:1]([C@@:2]1([H:9])[C:3]([H:10])([H:11])[O:4][C:5]([H:12])=[N:6][C:7]1([H:13])[H:14])[H:8]>>[O:1]([C:2]([C:7](/[N:6]=[C:5](\[O+:4]=[C-:3][H:10])[H:12])([H:13])[H:14])([H:9])[H:11])[H:8]"
O       -1.25690610      -0.62044167       1.41664493
C       -1.13024589      -0.04080002       0.13210080
C        0.31360579       1.71854922       0.28997040
O        1.16101879       0.81750760       0.84325239
C        1.71862392      -0.15070302       0.01110031
N        1.08991379      -1.00380157      -0.64474767
C       -0.35739352      -0.98368750      -0.79015269
H       -0.41656426      -0.52311169       1.87021693
H       -2.15497457      -0.04460592      -0.25768248
H        0.75875828       2.09659564      -0.65021576
H       -1.18326337       1.34017425       0.51437485
H        2.72362871       0.17378828      -0.25874185
H       -0.58060942      -0.76403385      -1.83805929
H       -0.68559213      -2.01542973      -0.63806087
14
Frame=15 idx=009409 GeodesicLength=1.0548421514264001 rxn_smarts="[O:1]([C@@:2]1([H:9])[C:3]([H:10])([H:11])[O:4][C:5]([H:12])=[N:6][C:7]1([H:13])[H:14])[H:8]>>[O:1]([C:2]([C:7](/[N:6]=[C:5](\[O+:4]=[C-:3][H:10])[H:12])([H:13])[H:14])([H:9])[H:11])[H:8]"
O       -1.26501393      -0.62052231       1.41149149
C       -1.12666991      -0.03924857       0.12586603
C        0.32201022       1.71988747       0.29231376
O        1.15880989       0.80791149       0.84164250
C        1.71809978      -0.15268196      -0.00009987
N        1.08945772      -1.01277356      -0.64637501
C       -0.35841873      -0.99784289      -0.78678785
H       -0.42925490      -0.51922341       1.87206760
H       -2.14986646      -0.04913006      -0.26888896
H        0.80111177       2.13989488      -0.61319006
H       -1.20255375       1.35197090       0.52066837
H        2.71055391       0.19329755      -0.28991113
H       -0.58449758      -0.79325112      -1.83717364
H       -0.68376803      -2.02828840      -0.62162324
14
Frame=16 idx=009409 GeodesicLength=1.1248587174990305 rxn_smarts="[O:1]([C@@:2]1([H:9])[C:3]([H:10])([H:11])[O:4][C:5]([H:12])=[N:6][C:7]1([H:13])[H:14])[H:8]>>[O:1]([C:2]([C:7](/[N:6]=[C:5](\[O+:4]=[C-:3][H:10])[H:12])([H:13])[H:14])([H:9])[H:11])[H:8]"
O       -1.27299718      -0.62006097       1.40614818
C       -1.12298351      -0.03782410       0.11920565
C        0.33054992       1.72130365       0.29362119
O        1.15661210       0.79853647       0.83910957
C        1.71739784      -0.15429160      -0.01238083
N        1.08897813      -1.02181278      -0.64842490
C       -0.35950623      -1.01251955      -0.78325412
H       -0.44187062      -0.51454399       1.87357769
H       -2.14463043      -0.05385881      -0.28040024
H        0.84467725       2.18408961      -0.57141140
H       -1.22238436       1.36367577       0.52608418
H        2.69665191       0.21254995      -0.32163784
H       -0.58884164      -0.82376579      -1.83594601
H       -0.68165319      -2.04147784      -0.60429112
