13
Frame=0 idx=009836 GeodesicLength=0.0 rxn_smarts="[C:1]1([H:8])([H:9])[O:2][C@@:3]2([H:10])[C@@:4]3([H:11])[O:5][C@:6]1([H:12])[C@@:7]23[H:13]>>[C:1]1([H:8])([H:9])[O:2][C:3]([H:10])=[C:7]2[C:4]([H:11])([H:13])[O:5][C@@:6]12[H:12]"
C        0.57455127       0.61466071       1.26598281
O        0.47812044      -0.81045741       1.17407467
C        0.35958282      -1.10573126      -0.19206621
C       -0.95857584      -0.64132178      -0.82148483
O       -1.30553224       0.55030543      -0.16271681
C        0.04594082       1.05590427      -0.08147405
C        0.76477679       0.05235349      -1.05468057
H        1.61232945       0.91968009       1.44589382
H       -0.06228824       0.96444776       2.07837362
H        0.70730639      -2.10757433      -0.41883621
H       -1.76155634      -1.33432441      -1.05514374
H        0.08801516       2.11667495      -0.31512001
H       -0.54267049      -0.27461752      -1.86280250
13
Frame=1 idx=009836 GeodesicLength=0.10667888353568497 rxn_smarts="[C:1]1([H:8])([H:9])[O:2][C@@:3]2([H:10])[C@@:4]3([H:11])[O:5][C@:6]1([H:12])[C@@:7]23[H:13]>>[C:1]1([H:8])([H:9])[O:2][C:3]([H:10])=[C:7]2[C:4]([H:11])([H:13])[O:5][C@@:6]12[H:12]"
C        0.57745039       0.61546568       1.26836537
O        0.49644357      -0.81114731       1.17965373
C        0.36522312      -1.11299416      -0.18233825
C       -0.96162077      -0.63262156      -0.83036603
O       -1.31147991       0.55461485      -0.16147324
C        0.04283046       1.05312254      -0.07792720
C        0.74121041       0.04149170      -1.05110293
H        1.61192848       0.93143114       1.44687479
H       -0.06180982       0.95764701       2.08227637
H        0.71190809      -2.11502241      -0.40921326
H       -1.76298560      -1.32852539      -1.06025354
H        0.09150927       2.11257117      -0.31696089
H       -0.54060769      -0.26603326      -1.88753491
13
Frame=2 idx=009836 GeodesicLength=0.21335781711663857 rxn_smarts="[C:1]1([H:8])([H:9])[O:2][C@@:3]2([H:10])[C@@:4]3([H:11])[O:5][C@:6]1([H:12])[C@@:7]23[H:13]>>[C:1]1([H:8])([H:9])[O:2][C:3]([H:10])=[C:7]2[C:4]([H:11])([H:13])[O:5][C@@:6]12[H:12]"
C        0.58039014       0.61628523       1.27068523
O        0.51539066      -0.81167596       1.18509494
C        0.37083533      -1.12024529      -0.17249706
C       -0.96517427      -0.62387534      -0.83920424
O       -1.31758717       0.55890773      -0.16002770
C        0.03962541       1.05015092      -0.07443135
C        0.71756840       0.03034567      -1.04714021
H        1.61135844       0.94346477       1.44778166
H       -0.06124605       0.95063746       2.08616173
H        0.71637091      -2.12249303      -0.39950042
H       -1.76464632      -1.32279374      -1.06569804
H        0.09502207       2.10815273      -0.31908556
H       -0.53790754      -0.25686115      -1.91213898
13
Frame=3 idx=009836 GeodesicLength=0.3200363872464954 rxn_smarts="[C:1]1([H:8])([H:9])[O:2][C@@:3]2([H:10])[C@@:4]3([H:11])[O:5][C@:6]1([H:12])[C@@:7]23[H:13]>>[C:1]1([H:8])([H:9])[O:2][C:3]([H:10])=[C:7]2[C:4]([H:11])([H:13])[O:5][C@@:6]12[H:12]"
C        0.58337011       0.61712012       1.27293591
O        0.53498281      -0.81202332       1.19036928
C        0.37642491      -1.12748141      -0.16255042
C       -0.96927881      -0.61508361      -0.84798679
O       -1.32386632       0.56319629      -0.15838199
C        0.03631706       1.04698995      -0.07098749
C        0.69382807       0.01891326      -1.04279663
H        1.61060910       0.95578171       1.44860410
H       -0.06059025       0.94340569       2.09003024
H        0.72068026      -2.12999328      -0.38970439
H       -1.76657722      -1.31713964      -1.07146595
H        0.09854803       2.10341689      -0.32149098
H       -0.53444774      -0.24710266      -1.93657492
13
Frame=4 idx=009836 GeodesicLength=0.4266914313339836 rxn_smarts="[C:1]1([H:8])([H:9])[O:2][C@@:3]2([H:10])[C@@:4]3([H:11])[O:5][C@:6]1([H:12])[C@@:7]23[H:13]>>[C:1]1([H:8])([H:9])[O:2][C:3]([H:10])=[C:7]2[C:4]([H:11])([H:13])[O:5][C@@:6]12[H:12]"
C        0.58638003       0.61795617       1.27510467
O        0.55522506      -0.81218622       1.19542259
C        0.38201177      -1.13469009      -0.15251150
C       -0.97395974      -0.60621024      -0.85672102
O       -1.33031312       0.56750599      -0.15655644
C        0.03289649       1.04364013      -0.06759928
C        0.66996686       0.00721013      -1.03806994
H        1.60965846       0.96836419       1.44933927
H       -0.05984917       0.93591816       2.09386754
H        0.72483287      -2.13750739      -0.37982099
H       -1.76880272      -1.31155015      -1.07746393
H        0.10207596       2.09835339      -0.32417136
H       -0.53012274      -0.23680407      -1.96081960
13
Frame=5 idx=009836 GeodesicLength=0.5333190511454073 rxn_smarts="[C:1]1([H:8])([H:9])[O:2][C@@:3]2([H:10])[C@@:4]3([H:11])[O:5][C@:6]1([H:12])[C@@:7]23[H:13]>>[C:1]1([H:8])([H:9])[O:2][C:3]([H:10])=[C:7]2[C:4]([H:11])([H:13])[O:5][C@@:6]12[H:12]"
C        0.58942083       0.61879756       1.27718688
O        0.57614420      -0.81213574       1.20022436
C        0.38760127      -1.14187344      -0.14238974
C       -0.97926053      -0.59725929      -0.86540332
O       -1.33694704       0.57184642      -0.15454460
C        0.02935549       1.04010357      -0.06426650
C        0.64595849      -0.00477394      -1.03296629
H        1.60849414       0.98122452       1.44997734
H       -0.05901432       0.92815750       2.09768014
H        0.72881326      -2.14505656      -0.36985783
H       -1.77136633      -1.30603777      -1.08368619
H        0.10560611       2.09296459      -0.32712688
H       -0.52480556      -0.22595743      -1.98482737
13
Frame=6 idx=009836 GeodesicLength=0.6399263813473103 rxn_smarts="[C:1]1([H:8])([H:9])[O:2][C@@:3]2([H:10])[C@@:4]3([H:11])[O:5][C@:6]1([H:12])[C@@:7]23[H:13]>>[C:1]1([H:8])([H:9])[O:2][C:3]([H:10])=[C:7]2[C:4]([H:11])([H:13])[O:5][C@@:6]12[H:12]"
C        0.59248874       0.61963847       1.27917187
O        0.59776209      -0.81185217       1.20472525
C        0.39320435      -1.14902500      -0.13219586
C       -0.98521555      -0.58820982      -0.87403375
O       -1.34377601       0.57623349      -0.15234744
C        0.02568214       1.03637916      -0.06098937
C        0.62176742      -0.01703990      -1.02748346
H        1.60709518       0.99436500       1.45051064
H       -0.05808008       0.92009018       2.10146237
H        0.73260756      -2.15264237      -0.35981095
H       -1.77429717      -1.30059286      -1.09008470
H        0.10912963       2.08724070      -0.33035732
H       -0.51836830      -0.21458488      -2.00856730
13
Frame=7 idx=009836 GeodesicLength=0.7465081141045519 rxn_smarts="[C:1]1([H:8])([H:9])[O:2][C@@:3]2([H:10])[C@@:4]3([H:11])[O:5][C@:6]1([H:12])[C@@:7]23[H:13]>>[C:1]1([H:8])([H:9])[O:2][C:3]([H:10])=[C:7]2[C:4]([H:11])([H:13])[O:5][C@@:6]12[H:12]"
C        0.59558130       0.62047444       1.28105011
O        0.62011026      -0.81131491       1.20887480
C        0.39883251      -1.15613994      -0.12194073
C       -0.99185762      -0.57903945      -0.88262125
O       -1.35081212       0.58068362      -0.14996548
C        0.02186319       1.03246775      -0.05776843
C        0.59735362      -0.02958929      -1.02161982
H        1.60544141       1.00779289       1.45092917
H       -0.05704072       0.91168028       2.10521460
H        0.73619914      -2.16026994      -0.34967765
H       -1.77763433      -1.29520421      -1.09661876
H        0.11263644       2.08117473      -0.33386335
H       -0.51067308      -0.20271598      -2.03199321
13
Frame=8 idx=009836 GeodesicLength=0.8530652539968764 rxn_smarts="[C:1]1([H:8])([H:9])[O:2][C@@:3]2([H:10])[C@@:4]3([H:11])[O:5][C@:6]1([H:12])[C@@:7]23[H:13]>>[C:1]1([H:8])([H:9])[O:2][C:3]([H:10])=[C:7]2[C:4]([H:11])([H:13])[O:5][C@@:6]12[H:12]"
C        0.59869534       0.62130053       1.28281060
O        0.64321625      -0.81049980       1.21261519
C        0.40449832      -1.16321242      -0.11163829
C       -0.99922015      -0.56972224      -0.89117557
O       -1.35806790       0.58521274      -0.14739597
C        0.01788426       1.02837029      -0.05460358
C        0.57267272      -0.04242492      -1.01537229
H        1.60351026       1.02151389       1.45122404
H       -0.05588799       0.90288956       2.10893464
H        0.73957141      -2.16794464      -0.33945520
H       -1.78141323      -1.28985847      -1.10323977
H        0.11611521       2.07475972      -0.33764545
H       -0.50157450      -0.19038425      -2.05505836
13
Frame=9 idx=009836 GeodesicLength=0.959597769879671 rxn_smarts="[C:1]1([H:8])([H:9])[O:2][C@@:3]2([H:10])[C@@:4]3([H:11])[O:5][C@:6]1([H:12])[C@@:7]23[H:13]>>[C:1]1([H:8])([H:9])[O:2][C:3]([H:10])=[C:7]2[C:4]([H:11])([H:13])[O:5][C@@:6]12[H:12]"
C        0.60182754       0.62211121       1.28444140
O        0.66710803      -0.80938019       1.21588230
C        0.41021578      -1.17023533      -0.10130490
C       -1.00733623      -0.56022818      -0.89971073
O       -1.36555725       0.58983672      -0.14463471
C        0.01372948       1.02408810      -0.05149470
C        0.54767524      -0.05555008      -1.00873632
H        1.60127747       1.03553312       1.45138617
H       -0.05461174       0.89367672       2.11261987
H        0.74270768      -2.17567120      -0.32914049
H       -1.78567019      -1.28453892      -1.10989567
H        0.11955268       2.06798844      -0.34170461
H       -0.49091849      -0.17763041      -2.07770760
13
Frame=10 idx=009836 GeodesicLength=1.0661031576552766 rxn_smarts="[C:1]1([H:8])([H:9])[O:2][C@@:3]2([H:10])[C@@:4]3([H:11])[O:5][C@:6]1([H:12])[C@@:7]23[H:13]>>[C:1]1([H:8])([H:9])[O:2][C:3]([H:10])=[C:7]2[C:4]([H:11])([H:13])[O:5][C@@:6]12[H:12]"
C        0.60497425       0.62290056       1.28592943
O        0.69181665      -0.80792904       1.21860404
C        0.41600068      -1.17720124      -0.09096019
C       -1.01623833      -0.55052175      -0.90824595
O       -1.37329565       0.59457224      -0.14167607
C        0.00938114       1.01962358      -0.04844174
C        0.52230640      -0.06896777      -1.00170562
H        1.59871683       1.04985741       1.45140600
H       -0.05320133       0.88399612       2.11626817
H        0.74559014      -2.18345450      -0.31873056
H       -1.79044327      -1.27922325      -1.11653115
H        0.12293319       2.06085455      -0.34604246
H       -0.47854072      -0.16450692      -2.09987390
13
Frame=11 idx=009836 GeodesicLength=1.1725863114931143 rxn_smarts="[C:1]1([H:8])([H:9])[O:2][C@@:3]2([H:10])[C@@:4]3([H:11])[O:5][C@:6]1([H:12])[C@@:7]23[H:13]>>[C:1]1([H:8])([H:9])[O:2][C:3]([H:10])=[C:7]2[C:4]([H:11])([H:13])[O:5][C@@:6]12[H:12]"
C        0.60813169       0.62366428       1.28726089
O        0.71737215      -0.80611968       1.22069660
C        0.42187133      -1.18410515      -0.08063062
C       -1.02596173      -0.54056304      -0.91680099
O       -1.38130307       0.59943872      -0.13850854
C        0.00481979       1.01498334      -0.04544276
C        0.49650679      -0.08268077      -0.99427217
H        1.59580330       1.06449771       1.45127484
H       -0.05164684       0.87380058       2.11987832
H        0.74820192      -2.19130488      -0.30822528
H       -1.79577459      -1.27388712      -1.12308789
H        0.12623991       2.05335818      -0.35065856
H       -0.46426065      -0.15108218      -2.12148385
13
Frame=12 idx=009836 GeodesicLength=1.2789422629650615 rxn_smarts="[C:1]1([H:8])([H:9])[O:2][C@@:3]2([H:10])[C@@:4]3([H:11])[O:5][C@:6]1([H:12])[C@@:7]23[H:13]>>[C:1]1([H:8])([H:9])[O:2][C:3]([H:10])=[C:7]2[C:4]([H:11])([H:13])[O:5][C@@:6]12[H:12]"
C        0.61129193       0.62438424       1.28841776
O        0.74376272      -0.80387089       1.22209516
C        0.42785252      -1.19090403      -0.07033415
C       -1.03652126      -0.53031320      -0.92543675
O       -1.38957656       0.60442337      -0.13514905
C        0.00003738       1.01014392      -0.04251085
C        0.47022719      -0.09671223      -0.98643009
H        1.59248595       1.07941326       1.45099327
H       -0.04991071       0.86303726       2.12342029
H        0.75054019      -2.19919611      -0.29760146
H       -1.80167168      -1.26851602      -1.12948818
H        0.12946746       2.04545472      -0.35556817
H       -0.44798512      -0.13734427      -2.14240777
13
Frame=13 idx=009836 GeodesicLength=1.3854181333206532 rxn_smarts="[C:1]1([H:8])([H:9])[O:2][C@@:3]2([H:10])[C@@:4]3([H:11])[O:5][C@:6]1([H:12])[C@@:7]23[H:13]>>[C:1]1([H:8])([H:9])[O:2][C:3]([H:10])=[C:7]2[C:4]([H:11])([H:13])[O:5][C@@:6]12[H:12]"
C        0.61446656       0.62507099       1.28938393
O        0.77112903      -0.80119692       1.22265060
C        0.43394126      -1.19762333      -0.06011157
C       -1.04800029      -0.51972833      -0.93411030
O       -1.39817677       0.60957174      -0.13153582
C       -0.00502214       1.00513646      -0.03962492
C        0.44334127      -0.11104620      -0.97815358
H        1.58875278       1.09470382       1.45052806
H       -0.04798039       0.85162663       2.12693503
H        0.75253261      -2.20716416      -0.28687415
H       -1.80824909      -1.26303499      -1.13573201
H        0.13255313       2.03717274      -0.36076483
H       -0.42928796      -0.12348844      -2.16259042
13
Frame=14 idx=009836 GeodesicLength=1.4917403584656872 rxn_smarts="[C:1]1([H:8])([H:9])[O:2][C@@:3]2([H:10])[C@@:4]3([H:11])[O:5][C@:6]1([H:12])[C@@:7]23[H:13]>>[C:1]1([H:8])([H:9])[O:2][C:3]([H:10])=[C:7]2[C:4]([H:11])([H:13])[O:5][C@@:6]12[H:12]"
C        0.61763351       0.62570034       1.29013492
O        0.79940271      -0.79802112       1.22229920
C        0.44020321      -1.20421928      -0.05000048
C       -1.06037048      -0.50871850      -0.94293173
O       -1.40709113       0.61488571      -0.12769652
C       -0.01035656       0.99995199      -0.03680345
C        0.41582169      -0.12570169      -0.96944087
H        1.58455636       1.11028385       1.44988718
H       -0.04584622       0.83952465       2.13036581
H        0.75422577      -2.21518753      -0.27602821
H       -1.81548307      -1.25740898      -1.14172049
H        0.13549852       2.02849191      -0.36625197
H       -0.40819432      -0.10958135      -2.18181338
13
Frame=15 idx=009836 GeodesicLength=1.5980898240043326 rxn_smarts="[C:1]1([H:8])([H:9])[O:2][C@@:3]2([H:10])[C@@:4]3([H:11])[O:5][C@:6]1([H:12])[C@@:7]23[H:13]>>[C:1]1([H:8])([H:9])[O:2][C:3]([H:10])=[C:7]2[C:4]([H:11])([H:13])[O:5][C@@:6]12[H:12]"
C        0.62080144       0.62627094       1.29064756
O        0.82868103      -0.79429792       1.22087347
C        0.44664084      -1.21067427      -0.04005010
C       -1.07371371      -0.49726058      -0.95189669
O       -1.41636782       0.62036459      -0.12359096
C       -0.01601466       0.99458770      -0.03404064
C        0.38754188      -0.14068487      -0.96026580
H        1.57985024       1.12621893       1.44904340
H       -0.04345150       0.82664138       2.13373492
H        0.75554390      -2.22327150      -0.26504566
H       -1.82346960      -1.25158243      -1.14741768
H        0.13825281       2.01939277      -0.37205017
H       -0.38429485      -0.09570474      -2.19994165
13
Frame=16 idx=009836 GeodesicLength=1.704441277325029 rxn_smarts="[C:1]1([H:8])([H:9])[O:2][C@@:3]2([H:10])[C@@:4]3([H:11])[O:5][C@:6]1([H:12])[C@@:7]23[H:13]>>[C:1]1([H:8])([H:9])[O:2][C:3]([H:10])=[C:7]2[C:4]([H:11])([H:13])[O:5][C@@:6]12[H:12]"
C        0.62396718       0.62677317       1.29089381
O        0.85902276      -0.78995430       1.21821852
C        0.45330162      -1.21696000      -0.03032077
C       -1.08805260      -0.48526057      -0.96105809
O       -1.42603361       0.62602221      -0.11919510
C       -0.02203195       0.98904968      -0.03133534
C        0.35840822      -0.15600604      -0.95060070
H        1.57458287       1.14252323       1.44799074
H       -0.04076366       0.81287383       2.13702151
H        0.75645572      -2.23142272      -0.25390451
H       -1.83225961      -1.24545978      -1.15279699
H        0.14076541       2.00987036      -0.37815763
H       -0.35736235      -0.08204906      -2.21675545
