16
Frame=0 idx=004729 GeodesicLength=0.0 rxn_smarts="[C:1]([C:2]1([C:3]([H:10])([H:11])[H:12])[C:4]([H:13])([H:14])[C@:5]1([O:6][H:16])[H:15])([H:7])([H:8])[H:9]>>[C:1]1([H:7])([H:9])[C:2]2([C:3]([H:10])([H:11])[H:12])[C:4]([H:13])([H:14])[C:5]12[H:15].[O:6]([H:8])[H:16]"
C       -0.78602132      -0.25037157      -1.03884396
C        0.47532013      -0.03987295      -0.25921614
C        1.75406297      -0.80129540      -0.45688240
C        0.40661581       1.35568415       0.33792103
C       -0.23234149       0.20440784       0.97424524
O       -2.26358194       0.25392731       1.03074324
H       -0.97254353      -1.30507943      -1.23458552
H       -1.93492466       0.05587240       0.01335746
H       -0.91758806       0.39942911      -1.90392781
H        2.48717144      -0.58472802       0.32393601
H        2.19190812      -0.53858936      -1.42289396
H        1.56130650      -1.87614595      -0.45937180
H        1.27380968       1.72327056       0.88131404
H       -0.17337875       2.12358885      -0.15833037
H       -0.23434948      -0.15588535       1.98865892
H       -2.63546544      -0.56421212       1.38387597
16
Frame=1 idx=004729 GeodesicLength=0.06383397032203117 rxn_smarts="[C:1]([C:2]1([C:3]([H:10])([H:11])[H:12])[C:4]([H:13])([H:14])[C@:5]1([O:6][H:16])[H:15])([H:7])([H:8])[H:9]>>[C:1]1([H:7])([H:9])[C:2]2([C:3]([H:10])([H:11])[H:12])[C:4]([H:13])([H:14])[C:5]12[H:15].[O:6]([H:8])[H:16]"
C       -0.78543193      -0.25892969      -1.03248407
C        0.47958792      -0.03759530      -0.26330790
C        1.75872335      -0.79746223      -0.45920057
C        0.40295592       1.35228178       0.34147815
C       -0.23775599       0.19463489       0.96944800
O       -2.26802927       0.27283659       1.03664398
H       -0.96579784      -1.31484916      -1.22827090
H       -1.94554784       0.07303601      -0.00011498
H       -0.92041297       0.38502860      -1.90146611
H        2.48817371      -0.58043667       0.32483647
H        2.19859245      -0.53272386      -1.42374035
H        1.56809354      -1.87273556      -0.46373179
H        1.26900926       1.72067138       0.88574022
H       -0.18010800       2.11977896      -0.15226229
H       -0.21840072      -0.17942161       1.97898612
H       -2.64365160      -0.54411412       1.38744603
16
Frame=2 idx=004729 GeodesicLength=0.1276443710244693 rxn_smarts="[C:1]([C:2]1([C:3]([H:10])([H:11])[H:12])[C:4]([H:13])([H:14])[C@:5]1([O:6][H:16])[H:15])([H:7])([H:8])[H:9]>>[C:1]1([H:7])([H:9])[C:2]2([C:3]([H:10])([H:11])[H:12])[C:4]([H:13])([H:14])[C:5]12[H:15].[O:6]([H:8])[H:16]"
C       -0.78489601      -0.26741044      -1.02605276
C        0.48366633      -0.03530076      -0.26728668
C        1.76318564      -0.79363718      -0.46146200
C        0.39927431       1.34883241       0.34510317
C       -0.24321161       0.18489510       0.96473103
O       -2.27220219       0.29161400       1.04260487
H       -0.95896157      -1.32448339      -1.22215322
H       -1.95576558       0.08981420      -0.01383811
H       -0.92319836       0.37069013      -1.89889375
H        2.48900365      -0.57623017       0.32575907
H        2.20505609      -0.52687079      -1.42452918
H        1.57466080      -1.86932174      -0.46803354
H        1.26423686       1.71800309       0.89016600
H       -0.18676886       2.11596647      -0.14613177
H       -0.20263606      -0.20236904       1.96897139
H       -2.65144344      -0.52419190       1.39104547
16
Frame=3 idx=004729 GeodesicLength=0.1914473215570529 rxn_smarts="[C:1]([C:2]1([C:3]([H:10])([H:11])[H:12])[C:4]([H:13])([H:14])[C@:5]1([O:6][H:16])[H:15])([H:7])([H:8])[H:9]>>[C:1]1([H:7])([H:9])[C:2]2([C:3]([H:10])([H:11])[H:12])[C:4]([H:13])([H:14])[C:5]12[H:15].[O:6]([H:8])[H:16]"
C       -0.78441364      -0.27583292      -1.01955303
C        0.48755454      -0.03300697      -0.27114662
C        1.76746409      -0.78981219      -0.46367781
C        0.39556693       1.34532237       0.34879982
C       -0.24871004       0.17517358       0.96010349
O       -2.27610783       0.31029875       1.04864573
H       -0.95204415      -1.33400218      -1.21621133
H       -1.96559204       0.10623336      -0.02782673
H       -0.92593284       0.35638664      -1.89622370
H        2.48967766      -0.57209528       0.32669225
H        2.21130867      -0.52100023      -1.42526939
H        1.58104033      -1.86589953      -0.47230160
H        1.25948354       1.71525817       0.89460192
H       -0.19336873       2.11213570      -0.13993670
H       -0.18703776      -0.22475641       1.95864392
H       -2.65888874      -0.50440287       1.39465981
16
Frame=4 idx=004729 GeodesicLength=0.2552540171622625 rxn_smarts="[C:1]([C:2]1([C:3]([H:10])([H:11])[H:12])[C:4]([H:13])([H:14])[C@:5]1([O:6][H:16])[H:15])([H:7])([H:8])[H:9]>>[C:1]1([H:7])([H:9])[C:2]2([C:3]([H:10])([H:11])[H:12])[C:4]([H:13])([H:14])[C:5]12[H:15].[O:6]([H:8])[H:16]"
C       -0.78398230      -0.28421811      -1.01298508
C        0.49125025      -0.03072858      -0.27488405
C        1.77156807      -0.78597548      -0.46585790
C        0.39182925       1.34173949       0.35257123
C       -0.25425071       0.16545687       0.95557241
O       -2.27974418       0.32893798       1.05478164
H       -0.94504713      -1.34342758      -1.21041828
H       -1.97503729       0.12230662      -0.04209717
H       -0.92860927       0.34208755      -1.89346393
H        2.49020217      -0.56802162       0.32762981
H        2.21735768      -0.51507342      -1.42596383
H        1.58726075      -1.86245924      -0.47656343
H        1.25473769       1.71242987       0.89905787
H       -0.19991067       2.10827292      -0.13367934
H       -0.17159973      -0.24663800       1.94801412
H       -2.66602458      -0.48468927       1.39828592
16
Frame=5 idx=004729 GeodesicLength=0.3190547666384985 rxn_smarts="[C:1]([C:2]1([C:3]([H:10])([H:11])[H:12])[C:4]([H:13])([H:14])[C@:5]1([O:6][H:16])[H:15])([H:7])([H:8])[H:9]>>[C:1]1([H:7])([H:9])[C:2]2([C:3]([H:10])([H:11])[H:12])[C:4]([H:13])([H:14])[C:5]12[H:15].[O:6]([H:8])[H:16]"
C       -0.78359778      -0.29254415      -1.00636455
C        0.49475335      -0.02846304      -0.27849674
C        1.77548850      -0.78214217      -0.46799106
C        0.38806321       1.33809485       0.35640744
C       -0.25983256       0.15575997       0.95114133
O       -2.28310864       0.34748771       1.06104519
H       -0.93798142      -1.35273265      -1.20479781
H       -1.98410550       0.13803664      -0.05666219
H       -0.93121602       0.32783405      -1.89061959
H        2.49057704      -0.56401087       0.32857144
H        2.22318858      -0.50913641      -1.42661290
H        1.59329861      -1.85901472      -0.48078180
H        1.25001039       1.70953251       0.90350777
H       -0.20640120       2.10438992      -0.12735927
H       -0.15630225      -0.26796315       1.93711937
H       -2.67283431      -0.46512849       1.40189337
16
Frame=6 idx=004729 GeodesicLength=0.38286296103566364 rxn_smarts="[C:1]([C:2]1([C:3]([H:10])([H:11])[H:12])[C:4]([H:13])([H:14])[C@:5]1([O:6][H:16])[H:15])([H:7])([H:8])[H:9]>>[C:1]1([H:7])([H:9])[C:2]2([C:3]([H:10])([H:11])[H:12])[C:4]([H:13])([H:14])[C:5]12[H:15].[O:6]([H:8])[H:16]"
C       -0.78326019      -0.30083606      -0.99968725
C        0.49806342      -0.02622665      -0.28197973
C        1.77924103      -0.77829976      -0.47009027
C        0.38426416       1.33437569       0.36031357
C       -0.26545561       0.14606830       0.94681866
O       -2.28620160       0.36600047       1.06745225
H       -0.93085400      -1.36194457      -1.19931454
H       -1.99280848       0.15343663      -0.07153911
H       -0.93374915       0.31358760      -1.88769677
H        2.49081051      -0.56006232       0.32951589
H        2.22882087      -0.50313544      -1.42721596
H        1.59918915      -1.85555563      -0.48500703
H        1.24529039       1.70655909       0.90796470
H       -0.21284306       2.10047024      -0.12098411
H       -0.14114563      -0.28878493       1.92596824
H       -2.67936183      -0.44565267       1.40548146
16
Frame=7 idx=004729 GeodesicLength=0.4466846659584062 rxn_smarts="[C:1]([C:2]1([C:3]([H:10])([H:11])[H:12])[C:4]([H:13])([H:14])[C@:5]1([O:6][H:16])[H:15])([H:7])([H:8])[H:9]>>[C:1]1([H:7])([H:9])[C:2]2([C:3]([H:10])([H:11])[H:12])[C:4]([H:13])([H:14])[C:5]12[H:15].[O:6]([H:8])[H:16]"
C       -0.78296870      -0.30911499      -0.99295071
C        0.50117964      -0.02403152      -0.28533011
C        1.78283356      -0.77443429      -0.47216613
C        0.38042964       1.33057109       0.36429254
C       -0.27112204       0.13636841       0.94260864
O       -2.28901466       0.38451699       1.07402174
H       -0.92366688      -1.37108757      -1.19393764
H       -2.00114667       0.16852125      -0.08674325
H       -0.93620010       0.29931387      -1.88470249
H        2.49090514      -0.55616792       0.33045833
H        2.23425937      -0.49703047      -1.42777594
H        1.60495407      -1.85206941      -0.48926954
H        1.24056666       1.70350206       0.91244197
H       -0.21923513       2.09650065      -0.11455517
H       -0.12613286      -0.30914875       1.91456395
H       -2.68564103      -0.42620941       1.40904380
16
Frame=8 idx=004729 GeodesicLength=0.5105271382530618 rxn_smarts="[C:1]([C:2]1([C:3]([H:10])([H:11])[H:12])[C:4]([H:13])([H:14])[C@:5]1([O:6][H:16])[H:15])([H:7])([H:8])[H:9]>>[C:1]1([H:7])([H:9])[C:2]2([C:3]([H:10])([H:11])[H:12])[C:4]([H:13])([H:14])[C:5]12[H:15].[O:6]([H:8])[H:16]"
C       -0.78272262      -0.31737961      -0.98616143
C        0.50410298      -0.02188192      -0.28854603
C        1.78627013      -0.77055002      -0.47422009
C        0.37655855       1.32668339       0.36834224
C       -0.27683102       0.12666244       0.93851811
O       -2.29154441       0.40303387       1.08078452
H       -0.91642732      -1.38015958      -1.18866517
H       -2.00912727       0.18330258      -0.10229336
H       -0.93856283       0.28501556      -1.88164712
H        2.49086673      -0.55233202       0.33139818
H        2.23950614      -0.49082467      -1.42829714
H        1.61059863      -1.84856097      -0.49357189
H        1.23583971       1.70036659       0.91693460
H       -0.22558400       2.09248386      -0.10807497
H       -0.11126248      -0.32904668       1.90293393
H       -2.69168092      -0.40681281       1.41256563
16
Frame=9 idx=004729 GeodesicLength=0.5743846052233131 rxn_smarts="[C:1]([C:2]1([C:3]([H:10])([H:11])[H:12])[C:4]([H:13])([H:14])[C@:5]1([O:6][H:16])[H:15])([H:7])([H:8])[H:9]>>[C:1]1([H:7])([H:9])[C:2]2([C:3]([H:10])([H:11])[H:12])[C:4]([H:13])([H:14])[C:5]12[H:15].[O:6]([H:8])[H:16]"
C       -0.78252256      -0.32562956      -0.97932077
C        0.50683308      -0.01978242      -0.29162512
C        1.78954901      -0.76664685      -0.47625227
C        0.37265292       1.32270976       0.37245858
C       -0.28258028       0.11695018       0.93454804
O       -2.29378190       0.42154017       1.08776856
H       -0.90914600      -1.38915417      -1.18348627
H       -2.01674823       0.19779992      -0.11820924
H       -0.94082858       0.27069027      -1.87853317
H        2.49069534      -0.54855446       0.33233208
H        2.24455716      -0.48451640      -1.42877692
H        1.61611956      -1.84502723      -0.49791630
H        1.23111312       1.69715341       0.92143336
H       -0.23189075       2.08841428      -0.10154389
H       -0.09653355      -0.34846418       1.89110166
H       -2.69748835      -0.38748272       1.41602168
16
Frame=10 idx=004729 GeodesicLength=0.6382723777891396 rxn_smarts="[C:1]([C:2]1([C:3]([H:10])([H:11])[H:12])[C:4]([H:13])([H:14])[C@:5]1([O:6][H:16])[H:15])([H:7])([H:8])[H:9]>>[C:1]1([H:7])([H:9])[C:2]2([C:3]([H:10])([H:11])[H:12])[C:4]([H:13])([H:14])[C:5]12[H:15].[O:6]([H:8])[H:16]"
C       -0.78236761      -0.33388201      -0.97242758
C        0.50937197      -0.01773859      -0.29456783
C        1.79268170      -0.76271344      -0.47827143
C        0.36870833       1.31864554       0.37664602
C       -0.28837120       0.10722279       0.93070426
O       -2.29571645       0.44008070       1.09500242
H       -0.90182688      -1.39809820      -1.17836769
H       -2.02401629       0.21201934      -0.13450665
H       -0.94299192       0.25630639      -1.87537134
H        2.49040036      -0.54482289       0.33325513
H        2.24942127      -0.47807353      -1.42922031
H        1.62154242      -1.84145915      -0.50232400
H        1.22637538       1.69385626       0.92595413
H       -0.23815861       2.08428618      -0.09496529
H       -0.08195468      -0.36746894       1.87905143
H       -2.70309779      -0.36816045       1.41940873
16
Frame=11 idx=004729 GeodesicLength=0.7021763605725908 rxn_smarts="[C:1]([C:2]1([C:3]([H:10])([H:11])[H:12])[C:4]([H:13])([H:14])[C@:5]1([O:6][H:16])[H:15])([H:7])([H:8])[H:9]>>[C:1]1([H:7])([H:9])[C:2]2([C:3]([H:10])([H:11])[H:12])[C:4]([H:13])([H:14])[C:5]12[H:15].[O:6]([H:8])[H:16]"
C       -0.78225699      -0.34211694      -0.96549124
C        0.51172074      -0.01574809      -0.29737605
C        1.79565931      -0.75876376      -0.48027091
C        0.36472855       1.31450228       0.38089399
C       -0.29420045       0.09749341       0.92698747
O       -2.29734114       0.45860560       1.10252563
H       -0.89447861      -1.40696470      -1.17332495
H       -2.03092239       0.22596961      -0.15120411
H       -0.94504218       0.24189590      -1.87216485
H        2.48997653      -0.54114957       0.33417022
H        2.25408915      -0.47153236      -1.42962672
H        1.62684287      -1.83786831      -0.50677258
H        1.22163763       1.69049322       0.93047189
H       -0.24439189       2.08011007      -0.08834207
H       -0.06752826      -0.38600489       1.86682367
H       -2.70849286      -0.34892148       1.42270060
16
Frame=12 idx=004729 GeodesicLength=0.7661000929528508 rxn_smarts="[C:1]([C:2]1([C:3]([H:10])([H:11])[H:12])[C:4]([H:13])([H:14])[C@:5]1([O:6][H:16])[H:15])([H:7])([H:8])[H:9]>>[C:1]1([H:7])([H:9])[C:2]2([C:3]([H:10])([H:11])[H:12])[C:4]([H:13])([H:14])[C:5]12[H:15].[O:6]([H:8])[H:16]"
C       -0.78219082      -0.35033305      -0.95851603
C        0.51388244      -0.01381087      -0.30005089
C        1.79848501      -0.75479897      -0.48225118
C        0.36071313       1.31028315       0.38519918
C       -0.30006599       0.08776444       0.92339957
O       -2.29864648       0.47711063       1.11037820
H       -0.88711000      -1.41575351      -1.16834737
H       -2.03746781       0.23966463      -0.16832145
H       -0.94697253       0.22745635      -1.86892296
H        2.48942809      -0.53753432       0.33507711
H        2.25856225      -0.46489580      -1.42999790
H        1.63202331      -1.83425531      -0.51126135
H        1.21689981       1.68706955       0.93498180
H       -0.25059657       2.07588686      -0.08167685
H       -0.05325884      -0.40407961       1.85442951
H       -2.71368503      -0.32977417       1.42588062
16
Frame=13 idx=004729 GeodesicLength=0.8300353110584395 rxn_smarts="[C:1]([C:2]1([C:3]([H:10])([H:11])[H:12])[C:4]([H:13])([H:14])[C@:5]1([O:6][H:16])[H:15])([H:7])([H:8])[H:9]>>[C:1]1([H:7])([H:9])[C:2]2([C:3]([H:10])([H:11])[H:12])[C:4]([H:13])([H:14])[C:5]12[H:15].[O:6]([H:8])[H:16]"
C       -0.78216991      -0.35852809      -0.95150235
C        0.51585912      -0.01192766      -0.30259204
C        1.80115769      -0.75081825      -0.48421262
C        0.35666450       1.30598855       0.38955767
C       -0.30596466       0.07803604       0.91994051
O       -2.29961811       0.49558378       1.11859605
H       -0.87973284      -1.42446057      -1.16342150
H       -2.04364798       0.25311477      -0.18588151
H       -0.94877211       0.21298428      -1.86565076
H        2.48875473      -0.53397593       0.33597276
H        2.26283790      -0.45816329      -1.43033284
H        1.63707939      -1.83061712      -0.51579104
H        1.21216465       1.68358850       0.93947575
H       -0.25677399       2.07161377      -0.07496999
H       -0.03915429      -0.42168825       1.84188395
H       -2.71868410      -0.31073054       1.42892796
16
Frame=14 idx=004729 GeodesicLength=0.8940122535827897 rxn_smarts="[C:1]([C:2]1([C:3]([H:10])([H:11])[H:12])[C:4]([H:13])([H:14])[C@:5]1([O:6][H:16])[H:15])([H:7])([H:8])[H:9]>>[C:1]1([H:7])([H:9])[C:2]2([C:3]([H:10])([H:11])[H:12])[C:4]([H:13])([H:14])[C:5]12[H:15].[O:6]([H:8])[H:16]"
C       -0.78219518      -0.36672103      -0.94444977
C        0.51765105      -0.01010622      -0.30500463
C        1.80368861      -0.74681236      -0.48616451
C        0.35257529       1.30161463       0.39396843
C       -0.31190048       0.06830003       0.91661176
O       -2.30024322       0.51405916       1.12722455
H       -0.87235052      -1.43311206      -1.15850788
H       -2.04945725       0.26634993      -0.20391156
H       -0.95043712       0.19844213      -1.86235978
H        2.48795649      -0.53047747       0.33686347
H        2.26693502      -0.45129419      -1.43062846
H        1.64203572      -1.82694584      -0.52040212
H        1.20741693       1.68004710       0.94396615
H       -0.26293287       2.06728536      -0.06822957
H       -0.02522965      -0.43888684       1.82918331
H       -2.72351282      -0.29174232       1.43184059
16
Frame=15 idx=004729 GeodesicLength=0.9580034154307377 rxn_smarts="[C:1]([C:2]1([C:3]([H:10])([H:11])[H:12])[C:4]([H:13])([H:14])[C@:5]1([O:6][H:16])[H:15])([H:7])([H:8])[H:9]>>[C:1]1([H:7])([H:9])[C:2]2([C:3]([H:10])([H:11])[H:12])[C:4]([H:13])([H:14])[C:5]12[H:15].[O:6]([H:8])[H:16]"
C       -0.78226646      -0.37488811      -0.93736638
C        0.51926303      -0.00833720      -0.30729010
C        1.80607023      -0.74279202      -0.48809942
C        0.34845087       1.29717330       0.39842508
C       -0.31786695       0.05856908       0.91341246
O       -2.30050790       0.53249003       1.13631118
H       -0.86497470      -1.44168174      -1.15362194
H       -2.05488915       0.27935926      -0.22243050
H       -0.95195262       0.18386042      -1.85905677
H        2.48703846      -0.52703394       0.33774126
H        2.27083646      -0.44433606      -1.43089171
H        1.64686814      -1.82324945      -0.52505121
H        1.20266969       1.67646068       0.94843143
H       -0.26907912       2.06291035      -0.06145077
H       -0.01149023      -0.45563828       1.81634845
H       -2.72816976      -0.27286633       1.43458893
16
Frame=16 idx=004729 GeodesicLength=1.0220030706569785 rxn_smarts="[C:1]([C:2]1([C:3]([H:10])([H:11])[H:12])[C:4]([H:13])([H:14])[C@:5]1([O:6][H:16])[H:15])([H:7])([H:8])[H:9]>>[C:1]1([H:7])([H:9])[C:2]2([C:3]([H:10])([H:11])[H:12])[C:4]([H:13])([H:14])[C:5]12[H:15].[O:6]([H:8])[H:16]"
C       -0.78238162      -0.38300864      -0.93026379
C        0.52070061      -0.00661275      -0.30945467
C        1.80829767      -0.73876996      -0.49000979
C        0.34429250       1.29267813       0.40291693
C       -0.32385877       0.04885431       0.91033926
O       -2.30040001       0.55082856       1.14591942
H       -0.85761611      -1.45014636      -1.14877361
H       -2.05993555       0.29215759      -0.24146179
H       -0.95330499       0.16926627      -1.85575182
H        2.48600292      -0.52364334       0.33860464
H        2.27453421      -0.43733397      -1.43112672
H        1.65155704      -1.81953971      -0.52970102
H        1.19793075       1.67284929       0.95284681
H       -0.27522584       2.05849832      -0.05463314
H        0.00205985      -0.47191799       1.80340354
H       -2.73265267      -0.25415978       1.43714575
