17
Frame=0 idx=011528 GeodesicLength=0.0 rxn_smarts="[C:1]([C@@:2]1([H:11])[N:3]([H:12])[C@:4]1([C@@:5]1([H:14])[C:6]([H:15])([H:16])[N:7]1[H:17])[H:13])([H:8])([H:9])[H:10]>>[C:1]([C:2][C@@:4]([N:3]([H:11])[H:12])([C@@:5]1([H:14])[C:6]([H:15])([H:16])[N:7]1[H:17])[H:13])([H:8])([H:9])[H:10]"
C       -2.06433911      -0.38085649       0.11830267
C       -1.17582039      -0.65487426      -1.06005449
N       -0.13610775       0.76252830      -1.43615006
C        0.28304051      -0.51706387      -0.84730771
C        0.91786207      -0.50614748       0.51587459
C        2.13453595       0.28466150       0.78666064
N        0.87385920       0.60509887       1.45728478
H       -2.96427668       0.16027671      -0.17697752
H       -1.60417748       0.11482621       0.98097440
H       -2.40318590      -1.36521005       0.45830397
H       -1.04129483       0.32935288      -2.02239453
H       -0.42211421       1.42838771      -0.72589135
H        0.91444544      -1.06881351      -1.54308134
H        0.83493798      -1.47093297       1.00851306
H        2.91139629      -0.10711945       1.43161831
H        2.47789796       0.94805863      -0.00005013
H        0.46334101       1.43782733       1.05437471
17
Frame=1 idx=011528 GeodesicLength=0.04143104334675155 rxn_smarts="[C:1]([C@@:2]1([H:11])[N:3]([H:12])[C@:4]1([C@@:5]1([H:14])[C:6]([H:15])([H:16])[N:7]1[H:17])[H:13])([H:8])([H:9])[H:10]>>[C:1]([C:2][C@@:4]([N:3]([H:11])[H:12])([C@@:5]1([H:14])[C:6]([H:15])([H:16])[N:7]1[H:17])[H:13])([H:8])([H:9])[H:10]"
C       -2.06551876      -0.38209801       0.11951848
C       -1.17551643      -0.64759055      -1.05866120
N       -0.13621425       0.76502902      -1.43331634
C        0.28331831      -0.51437963      -0.84518894
C        0.91757054      -0.50545305       0.51830245
C        2.13651229       0.28220114       0.78775995
N        0.87659968       0.60814346       1.45703783
H       -2.96865661       0.15518529      -0.17304483
H       -1.60653714       0.11314501       0.98293949
H       -2.39814564      -1.36993106       0.45607693
H       -1.04105191       0.32735104      -2.03871176
H       -0.42893885       1.43092275      -0.72599546
H        0.91283147      -1.06607123      -1.54261174
H        0.83079645      -1.46904654       1.01260119
H        2.91196345      -0.11076935       1.43371244
H        2.48190498       0.94298636      -0.00028751
H        0.46908241       1.44037534       1.04986901
17
Frame=2 idx=011528 GeodesicLength=0.08285086498000341 rxn_smarts="[C:1]([C@@:2]1([H:11])[N:3]([H:12])[C@:4]1([C@@:5]1([H:14])[C:6]([H:15])([H:16])[N:7]1[H:17])[H:13])([H:8])([H:9])[H:10]>>[C:1]([C:2][C@@:4]([N:3]([H:11])[H:12])([C@@:5]1([H:14])[C:6]([H:15])([H:16])[N:7]1[H:17])[H:13])([H:8])([H:9])[H:10]"
C       -2.06669364      -0.38335057       0.12074322
C       -1.17524972      -0.64021060      -1.05726526
N       -0.13632472       0.76757573      -1.43047516
C        0.28356350      -0.51167234      -0.84306003
C        0.91726371      -0.50474750       0.52073045
C        2.13846963       0.27973846       0.78884972
N        0.87934980       0.61118617       1.45678631
H       -2.97302378       0.15005096      -0.16907675
H       -1.60890608       0.11144317       0.98492378
H       -2.39306308      -1.37463574       0.45378761
H       -1.04072460       0.32519341      -2.05500664
H       -0.43568396       1.43349119      -0.72611647
H        0.91116230      -1.06331413      -1.54213731
H        0.82663780      -1.46713174       1.01668351
H        2.91251460      -0.11441632       1.43578980
H        2.48587795       0.93790456      -0.00053098
H        0.47483027       1.44289531       1.04537420
17
Frame=3 idx=011528 GeodesicLength=0.12425514515327829 rxn_smarts="[C:1]([C@@:2]1([H:11])[N:3]([H:12])[C@:4]1([C@@:5]1([H:14])[C:6]([H:15])([H:16])[N:7]1[H:17])[H:13])([H:8])([H:9])[H:10]>>[C:1]([C:2][C@@:4]([N:3]([H:11])[H:12])([C@@:5]1([H:14])[C:6]([H:15])([H:16])[N:7]1[H:17])[H:13])([H:8])([H:9])[H:10]"
C       -2.06786353      -0.38460636       0.12197547
C       -1.17501851      -0.63274068      -1.05586160
N       -0.13643391       0.77016214      -1.42762696
C        0.28377725      -0.50894866      -0.84092088
C        0.91694680      -0.50403615       0.52315684
C        2.14040535       0.27728080       0.78992753
N        0.88210621       0.61421459       1.45653624
H       -2.97736683       0.14489820      -0.16507787
H       -1.61128058       0.10971758       0.98692995
H       -2.38795901      -1.37930937       0.45143111
H       -1.04032065       0.32286735      -2.07127764
H       -0.44233973       1.43608982      -0.72625394
H        0.90943818      -1.06054998      -1.54165777
H        0.82248284      -1.46519898       1.02075128
H        2.91305552      -0.11804620       1.43784208
H        2.48980231       0.93283337      -0.00077766
H        0.48056829       1.44537253       1.04090384
17
Frame=4 idx=011528 GeodesicLength=0.16563995287976244 rxn_smarts="[C:1]([C@@:2]1([H:11])[N:3]([H:12])[C@:4]1([C@@:5]1([H:14])[C:6]([H:15])([H:16])[N:7]1[H:17])[H:13])([H:8])([H:9])[H:10]>>[C:1]([C:2][C@@:4]([N:3]([H:11])[H:12])([C@@:5]1([H:14])[C:6]([H:15])([H:16])[N:7]1[H:17])[H:13])([H:8])([H:9])[H:10]"
C       -2.06902824      -0.38585720       0.12321378
C       -1.17482086      -0.62518715      -1.05444532
N       -0.13653640       0.77278180      -1.42477227
C        0.28396090      -0.50621543      -0.83877146
C        0.91662529      -0.50332455       0.52557979
C        2.14231690       0.27483571       0.79099098
N        0.88486532       0.61721593       1.45629398
H       -2.98167444       0.13975257      -0.16105279
H       -1.61365664       0.10796525       0.98896066
H       -2.38285481      -1.38393723       0.44900256
H       -1.03984842       0.32035949      -2.08752337
H       -0.44889616       1.43871546      -0.72640753
H        0.90765957      -1.05778672      -1.54117290
H        0.81835283      -1.46325934       1.02479552
H        2.91359231      -0.12164460       1.43986087
H        2.49366343       0.92779382      -0.00102456
H        0.48627942       1.44779218       1.03647205
17
Frame=5 idx=011528 GeodesicLength=0.20700174111432967 rxn_smarts="[C:1]([C@@:2]1([H:11])[N:3]([H:12])[C@:4]1([C@@:5]1([H:14])[C:6]([H:15])([H:16])[N:7]1[H:17])[H:13])([H:8])([H:9])[H:10]>>[C:1]([C:2][C@@:4]([N:3]([H:11])[H:12])([C@@:5]1([H:14])[C:6]([H:15])([H:16])[N:7]1[H:17])[H:13])([H:8])([H:9])[H:10]"
C       -2.07018768      -0.38709480       0.12445669
C       -1.17465456      -0.61755642      -1.05301173
N       -0.13662654       0.77542820      -1.42191175
C        0.28411606      -0.50347950      -0.83661188
C        0.91630478      -0.50261842       0.52799746
C        2.14420200       0.27241085       0.79203782
N        0.88762337       0.62017733       1.45606609
H       -2.98593570       0.13464013      -0.15700613
H       -1.61603021       0.10618341       0.99101853
H       -2.37777219      -1.38850503       0.44649716
H       -1.03931721       0.31765608      -2.10374231
H       -0.45534333       1.44136495      -0.72657727
H        0.90582714      -1.05503228      -1.54068265
H        0.81426900      -1.46132445       1.02880718
H        2.91413140      -0.12519715       1.44183791
H        2.49744722       0.92280739      -0.00126844
H        0.49194644       1.45013970       1.03209332
17
Frame=6 idx=011528 GeodesicLength=0.2483259527110867 rxn_smarts="[C:1]([C@@:2]1([H:11])[N:3]([H:12])[C@:4]1([C@@:5]1([H:14])[C:6]([H:15])([H:16])[N:7]1[H:17])[H:13])([H:8])([H:9])[H:10]>>[C:1]([C:2][C@@:4]([N:3]([H:11])[H:12])([C@@:5]1([H:14])[C:6]([H:15])([H:16])[N:7]1[H:17])[H:13])([H:8])([H:9])[H:10]"
C       -2.07134179      -0.38831024       0.12570217
C       -1.17451713      -0.60985642      -1.05155559
N       -0.13670054       0.77809358      -1.41904584
C        0.28424432      -0.50074835      -0.83444220
C        0.91599099      -0.50192401       0.53040770
C        2.14605772       0.27001437       0.79306498
N        0.89037559       0.62308503       1.45585938
H       -2.99013888       0.12958979      -0.15294341
H       -1.61839712       0.10436871       0.99310536
H       -2.37273348      -1.39299741       0.44391182
H       -1.03873274       0.31474414      -2.11993251
H       -0.46166999       1.44403477      -0.72676118
H        0.90394199      -1.05229509      -1.54018670
H        0.81025403      -1.45940698       1.03277663
H        2.91467953      -0.12868856       1.44376348
H        2.50113780       0.91789704      -0.00150677
H        0.49754970       1.45239964       1.02778266
17
Frame=7 idx=011528 GeodesicLength=0.2896344117706507 rxn_smarts="[C:1]([C@@:2]1([H:11])[N:3]([H:12])[C@:4]1([C@@:5]1([H:14])[C:6]([H:15])([H:16])[N:7]1[H:17])[H:13])([H:8])([H:9])[H:10]>>[C:1]([C:2][C@@:4]([N:3]([H:11])[H:12])([C@@:5]1([H:14])[C:6]([H:15])([H:16])[N:7]1[H:17])[H:13])([H:8])([H:9])[H:10]"
C       -2.07248974      -0.38951064       0.12694988
C       -1.17440776      -0.60208250      -1.05007911
N       -0.13676143       0.78079005      -1.41616985
C        0.28434526      -0.49801088      -0.83226312
C        0.91567920      -0.50123410       0.53281221
C        2.14788958       0.26763710       0.79407682
N        0.89312851       0.62595187       1.45566984
H       -2.99429404       0.12457717      -0.14886364
H       -1.62076066       0.10252393       0.99521819
H       -2.36772151      -1.39742713       0.44124656
H       -1.03810480       0.31161459      -2.13610269
H       -0.46789312       1.44673340      -0.72695628
H        0.90200628      -1.04955922      -1.53968669
H        0.80628517      -1.45749563       1.03671156
H        2.91523287      -0.13213796       1.44564729
H        2.50475507       0.91304023      -0.00174080
H        0.50311111       1.45458973       1.02352984
17
Frame=8 idx=011528 GeodesicLength=0.3309202282125778 rxn_smarts="[C:1]([C@@:2]1([H:11])[N:3]([H:12])[C@:4]1([C@@:5]1([H:14])[C:6]([H:15])([H:16])[N:7]1[H:17])[H:13])([H:8])([H:9])[H:10]>>[C:1]([C:2][C@@:4]([N:3]([H:11])[H:12])([C@@:5]1([H:14])[C:6]([H:15])([H:16])[N:7]1[H:17])[H:13])([H:8])([H:9])[H:10]"
C       -2.07363157      -0.39070137       0.12819809
C       -1.17432544      -0.59423124      -1.04858318
N       -0.13681309       0.78352684      -1.41328021
C        0.28441852      -0.49525790      -0.83007489
C        0.91536595      -0.50054284       0.53521210
C        2.14970151       0.26527279       0.79507545
N        0.89588676       0.62878841       1.45549326
H       -2.99840734       0.11958712      -0.14476653
H       -1.62312298       0.10064483       0.99735524
H       -2.36272511      -1.40180327       0.43849632
H       -1.03744093       0.30825932      -2.15225181
H       -0.47402399       1.44946721      -0.72715763
H        0.90002270      -1.04681202      -1.53918295
H        0.80234513      -1.45558063       1.04061771
H        2.91578793      -0.13555545       1.44749852
H        2.50831611       0.90821370      -0.00197630
H        0.50864583       1.45672450       1.01932682
17
Frame=9 idx=011528 GeodesicLength=0.37219878687281416 rxn_smarts="[C:1]([C@@:2]1([H:11])[N:3]([H:12])[C@:4]1([C@@:5]1([H:14])[C:6]([H:15])([H:16])[N:7]1[H:17])[H:13])([H:8])([H:9])[H:10]>>[C:1]([C:2][C@@:4]([N:3]([H:11])[H:12])([C@@:5]1([H:14])[C:6]([H:15])([H:16])[N:7]1[H:17])[H:13])([H:8])([H:9])[H:10]"
C       -2.07476542      -0.39189001       0.12944738
C       -1.17427002      -0.58629930      -1.04706924
N       -0.13686052       0.78631489      -1.41037435
C        0.28446357      -0.49247939      -0.82787976
C        0.91504719      -0.49984402       0.53760789
C        2.15149818       0.26291295       0.79606524
N        0.89865534       0.63160725       1.45532422
H       -3.00248632       0.11459826      -0.14064803
H       -1.62548533       0.09873146       0.99951526
H       -2.35772627      -1.40613870       0.43566277
H       -1.03674876       0.30467334      -2.16839077
H       -0.48007678       1.45224533      -0.72736297
H        0.89799224      -1.04403941      -1.53867897
H        0.79841159      -1.45365112       1.04450341
H        2.91633747      -0.13896031       1.44933001
H        2.51183992       0.90339793      -0.00221301
H        0.51417391       1.45882085       1.01516093
17
Frame=10 idx=011528 GeodesicLength=0.4134677294770092 rxn_smarts="[C:1]([C@@:2]1([H:11])[N:3]([H:12])[C@:4]1([C@@:5]1([H:14])[C:6]([H:15])([H:16])[N:7]1[H:17])[H:13])([H:8])([H:9])[H:10]>>[C:1]([C:2][C@@:4]([N:3]([H:11])[H:12])([C@@:5]1([H:14])[C:6]([H:15])([H:16])[N:7]1[H:17])[H:13])([H:8])([H:9])[H:10]"
C       -2.07588906      -0.39308303       0.13069746
C       -1.17424039      -0.57827965      -1.04553867
N       -0.13690757       0.78916584      -1.40744684
C        0.28448029      -0.48966265      -0.82567916
C        0.91471578      -0.49912981       0.53999962
C        2.15328259       0.26054566       0.79704806
N        0.90143899       0.63442049       1.45515521
H       -3.00654310       0.10957460      -0.13651076
H       -1.62785349       0.09679494       1.00169079
H       -2.35269218      -1.41044360       0.43275472
H       -1.03603434       0.30085259      -2.18452023
H       -0.48606483       1.45507481      -0.72756668
H        0.89591803      -1.04122474      -1.53817614
H        0.79445709      -1.45169196       1.04837457
H        2.91687173      -0.14237608       1.45115015
H        2.51534418       0.89856795      -0.00245100
H        0.51971627       1.46089465       1.01101889
17
Frame=11 idx=011528 GeodesicLength=0.4547219741059943 rxn_smarts="[C:1]([C@@:2]1([H:11])[N:3]([H:12])[C@:4]1([C@@:5]1([H:14])[C:6]([H:15])([H:16])[N:7]1[H:17])[H:13])([H:8])([H:9])[H:10]>>[C:1]([C:2][C@@:4]([N:3]([H:11])[H:12])([C@@:5]1([H:14])[C:6]([H:15])([H:16])[N:7]1[H:17])[H:13])([H:8])([H:9])[H:10]"
C       -2.07700470      -0.39426376       0.13194496
C       -1.17423444      -0.57018115      -1.04398502
N       -0.13694564       0.79206715      -1.40450138
C        0.28447030      -0.48682124      -0.82347126
C        0.91438208      -0.49841220       0.54238566
C        2.15504978       0.25818648       0.79802024
N        0.90423117       0.63720318       1.45500244
H       -3.01055993       0.10456813      -0.13236196
H       -1.63022094       0.09482774       1.00388787
H       -2.34766585      -1.41469185       0.42976234
H       -1.03530366       0.29676905      -2.20064154
H       -0.49196620       1.45795049      -0.72777073
H        0.89379516      -1.03838709      -1.53767426
H        0.79052889      -1.44972887       1.05221513
H        2.91740655      -0.14577411       1.45293960
H        2.51879649       0.89376969      -0.00268386
H        0.52524092       1.46291838       1.00693178
17
Frame=12 idx=011528 GeodesicLength=0.49596996133319077 rxn_smarts="[C:1]([C@@:2]1([H:11])[N:3]([H:12])[C@:4]1([C@@:5]1([H:14])[C:6]([H:15])([H:16])[N:7]1[H:17])[H:13])([H:8])([H:9])[H:10]>>[C:1]([C:2][C@@:4]([N:3]([H:11])[H:12])([C@@:5]1([H:14])[C:6]([H:15])([H:16])[N:7]1[H:17])[H:13])([H:8])([H:9])[H:10]"
C       -2.07811215      -0.39543971       0.13318755
C       -1.17425213      -0.56199847      -1.04241158
N       -0.13698010       0.79503229      -1.40153266
C        0.28443296      -0.48394250      -0.82125726
C        0.91403944      -0.49768360       0.54476818
C        2.15680418       0.25582439       0.79898674
N        0.90703777       0.63996919       1.45486018
H       -3.01455098       0.09954441      -0.12820469
H       -1.63259343       0.09283812       1.00609864
H       -2.34261871      -1.41889549       0.42669387
H       -1.03456637       0.29241894      -2.21675930
H       -0.49779607       1.46088097      -0.72796872
H        0.89162727      -1.03550788      -1.53717499
H        0.78660240      -1.44774942       1.05603258
H        2.91793615      -0.14917536       1.45470962
H        2.52221771       0.88897278      -0.00291493
H        0.53077208       1.46491135       1.00288677
17
Frame=13 idx=011528 GeodesicLength=0.537215573160996 rxn_smarts="[C:1]([C@@:2]1([H:11])[N:3]([H:12])[C@:4]1([C@@:5]1([H:14])[C:6]([H:15])([H:16])[N:7]1[H:17])[H:13])([H:8])([H:9])[H:10]>>[C:1]([C:2][C@@:4]([N:3]([H:11])[H:12])([C@@:5]1([H:14])[C:6]([H:15])([H:16])[N:7]1[H:17])[H:13])([H:8])([H:9])[H:10]"
C       -2.07920992      -0.39661545       0.13442398
C       -1.17429270      -0.55372530      -1.04081939
N       -0.13701357       0.79807206      -1.39853628
C        0.28436814      -0.48101605      -0.81903814
C        0.91368379      -0.49693806       0.54714738
C        2.15854906       0.25345144       0.79994985
N        0.90986421       0.64272749       1.45472494
H       -3.01852600       0.09447495      -0.12404214
H       -1.63497666       0.09083533       1.00831762
H       -2.33752678      -1.42306205       0.42355390
H       -1.03382896       0.28779371      -2.23287674
H       -0.50356531       1.46387384      -0.72815622
H        0.88941349      -1.03257629      -1.53667989
H        0.78265734      -1.44574192       1.05983364
H        2.91845552      -0.15260097       1.45646376
H        2.52562213       0.88416190      -0.00314241
H        0.53632623       1.46688534       0.99887613
17
Frame=14 idx=011528 GeodesicLength=0.5784588845147149 rxn_smarts="[C:1]([C@@:2]1([H:11])[N:3]([H:12])[C@:4]1([C@@:5]1([H:14])[C:6]([H:15])([H:16])[N:7]1[H:17])[H:13])([H:8])([H:9])[H:10]>>[C:1]([C:2][C@@:4]([N:3]([H:11])[H:12])([C@@:5]1([H:14])[C:6]([H:15])([H:16])[N:7]1[H:17])[H:13])([H:8])([H:9])[H:10]"
C       -2.08029785      -0.39778888       0.13565277
C       -1.17435491      -0.54536138      -1.03920701
N       -0.13704529       0.80118889      -1.39551031
C        0.28427668      -0.47804013      -0.81681431
C        0.91331617      -0.49617576       0.54952278
C        2.16028492       0.25106788       0.80090982
N        0.91271106       0.64547581       1.45459874
H       -3.02248308       0.08936380      -0.11987703
H       -1.63737045       0.08881848       1.01054482
H       -2.33239321      -1.42718802       0.42033977
H       -1.03309932       0.28287742      -2.24899535
H       -0.50927386       1.46693173      -0.72833058
H        0.88715490      -1.02958925      -1.53619007
H        0.77869635      -1.44370773       1.06361611
H        2.91896597      -0.15605149       1.45820094
H        2.52900916       0.87933958      -0.00336496
H        0.54190275       1.46883906       0.99490389
17
Frame=15 idx=011528 GeodesicLength=0.6197000580245391 rxn_smarts="[C:1]([C@@:2]1([H:11])[N:3]([H:12])[C@:4]1([C@@:5]1([H:14])[C:6]([H:15])([H:16])[N:7]1[H:17])[H:13])([H:8])([H:9])[H:10]>>[C:1]([C:2][C@@:4]([N:3]([H:11])[H:12])([C@@:5]1([H:14])[C:6]([H:15])([H:16])[N:7]1[H:17])[H:13])([H:8])([H:9])[H:10]"
C       -2.08137542      -0.39895785       0.13687229
C       -1.17443753      -0.53690612      -1.03757305
N       -0.13707456       0.80438538      -1.39245250
C        0.28415928      -0.47501273      -0.81458624
C        0.91293737      -0.49539679       0.55189373
C        2.16201205       0.24867375       0.80186689
N        0.91557892       0.64821191       1.45448356
H       -3.02642016       0.08421416      -0.11571227
H       -1.63977447       0.08678735       1.01277981
H       -2.32721990      -1.43126980       0.41704898
H       -1.03238573       0.27765339      -2.26511643
H       -0.51492146       1.47005726      -0.72848879
H        0.88485236      -1.02654339      -1.53570661
H        0.77472143      -1.44164805       1.06737759
H        2.91946841      -0.15952785       1.45992003
H        2.53237814       0.87450806      -0.00358109
H        0.54750126       1.47077131       0.99097409
17
Frame=16 idx=011528 GeodesicLength=0.6609392490975575 rxn_smarts="[C:1]([C@@:2]1([H:11])[N:3]([H:12])[C@:4]1([C@@:5]1([H:14])[C:6]([H:15])([H:16])[N:7]1[H:17])[H:13])([H:8])([H:9])[H:10]>>[C:1]([C:2][C@@:4]([N:3]([H:11])[H:12])([C@@:5]1([H:14])[C:6]([H:15])([H:16])[N:7]1[H:17])[H:13])([H:8])([H:9])[H:10]"
C       -2.08244218      -0.40012020       0.13808087
C       -1.17453930      -0.52835871      -1.03591621
N       -0.13710068       0.80766439      -1.38936062
C        0.28401674      -0.47193167      -0.81235441
C        0.91254820      -0.49460121       0.55425959
C        2.16373083       0.24626912       0.80282138
N        0.91846836       0.65093353       1.45438146
H       -3.03033533       0.07902944      -0.11155071
H       -1.64218846       0.08474161       1.01502222
H       -2.32200883      -1.43530386       0.41367878
H       -1.03169669       0.27210395      -2.28124111
H       -0.52050789       1.47325331      -0.72862774
H        0.88250686      -1.02343510      -1.53523070
H        0.77073459      -1.43956416       1.07111561
H        2.91996382      -0.16303112       1.46161994
H        2.53572857       0.86966971      -0.00378922
H        0.55312140       1.47268098       0.98709087
