14
Frame=0 idx=011714 GeodesicLength=0.0 rxn_smarts="[C:1]([c:2]1[c:3]([H:11])[o:4][c:5]([H:12])[c:6]1[N:7]([H:13])[H:14])([H:8])([H:9])[H:10]>>[C:1]([C:2]1=[C:6]([N:7]([H:13])[H:14])[C@@:5]2([H:12])[C@:3]1([H:11])[O:4]2)([H:8])([H:9])[H:10]"
C       -1.76787112       0.23380067       0.64555035
C       -0.45801606      -0.20727746       0.08690459
C        0.03597008      -1.55533541      -0.13442804
O        0.66797882      -1.79257217      -1.24424564
C        1.63646368      -0.66895395      -0.81894292
C        0.66890066       0.40974227      -0.34046130
N        1.07416644       1.68210567      -0.33719920
H       -2.55856433       0.27549318      -0.10971236
H       -1.69547593       1.22135517       1.10590067
H       -2.10353624      -0.45539069       1.42510213
H       -0.07355382      -2.38552711       0.57478039
H        2.18390767      -1.08760911       0.03692005
H        0.46346725       2.43010164      -0.06578656
H        1.92616295       1.90006724      -0.82438217
14
Frame=1 idx=011714 GeodesicLength=0.05700004600776578 rxn_smarts="[C:1]([c:2]1[c:3]([H:11])[o:4][c:5]([H:12])[c:6]1[N:7]([H:13])[H:14])([H:8])([H:9])[H:10]>>[C:1]([C:2]1=[C:6]([N:7]([H:13])[H:14])[C@@:5]2([H:12])[C@:3]1([H:11])[O:4]2)([H:8])([H:9])[H:10]"
C       -1.76774108       0.23505548       0.64534038
C       -0.45734020      -0.20876369       0.09125503
C        0.03359355      -1.55556746      -0.13608219
O        0.66198157      -1.78229110      -1.25637739
C        1.62225145      -0.67300752      -0.81531764
C        0.67297888       0.40997563      -0.33133293
N        1.08409015       1.68316160      -0.30711622
H       -2.56958700       0.21468018      -0.09880539
H       -1.71554153       1.24969404       1.04555915
H       -2.07563539      -0.41381898       1.46962932
H       -0.08734853      -2.39733540       0.55561560
H        2.20659698      -1.09533261       0.01171207
H        0.45409901       2.43108050      -0.08291311
H        1.93760214       1.90246932      -0.79116668
14
Frame=2 idx=011714 GeodesicLength=0.11393182231478341 rxn_smarts="[C:1]([c:2]1[c:3]([H:11])[o:4][c:5]([H:12])[c:6]1[N:7]([H:13])[H:14])([H:8])([H:9])[H:10]>>[C:1]([C:2]1=[C:6]([N:7]([H:13])[H:14])[C@@:5]2([H:12])[C@:3]1([H:11])[O:4]2)([H:8])([H:9])[H:10]"
C       -1.76779520       0.23638370       0.64492692
C       -0.45738795      -0.21032635       0.09424604
C        0.03115844      -1.55589140      -0.13753738
O        0.65683249      -1.77242085      -1.26763397
C        1.60831969      -0.67703919      -0.81082969
C        0.67646004       0.41012825      -0.32322201
N        1.09239630       1.68417426      -0.27884807
H       -2.57994464       0.15426971      -0.08347555
H       -1.73658796       1.27404048       0.98352744
H       -2.04732984      -0.36911622       1.51121613
H       -0.10165057      -2.40837421       0.53681805
H        2.22939027      -1.10141357      -0.01436947
H        0.44726500       2.43111917      -0.09749760
H        1.94887394       1.90446621      -0.75732084
14
Frame=3 idx=011714 GeodesicLength=0.1707075323311896 rxn_smarts="[C:1]([c:2]1[c:3]([H:11])[o:4][c:5]([H:12])[c:6]1[N:7]([H:13])[H:14])([H:8])([H:9])[H:10]>>[C:1]([C:2]1=[C:6]([N:7]([H:13])[H:14])[C@@:5]2([H:12])[C@:3]1([H:11])[O:4]2)([H:8])([H:9])[H:10]"
C       -1.76798165       0.23772758       0.64422499
C       -0.45819936      -0.21213619       0.09565212
C        0.02864811      -1.55648163      -0.13898105
O        0.65303334      -1.76310292      -1.27795753
C        1.59497457      -0.68122866      -0.80496117
C        0.67940065       0.41007211      -0.31603156
N        1.09930405       1.68498747      -0.25211112
H       -2.58944453       0.09576368      -0.06408094
H       -1.75781889       1.29407531       0.92060698
H       -2.01902898      -0.32158750       1.54937262
H       -0.11650729      -2.41884014       0.51820619
H        2.25224809      -1.10592485      -0.04061511
H        0.44256873       2.43036229      -0.10852674
H        1.95880315       1.90631346      -0.72479768
14
Frame=4 idx=011714 GeodesicLength=0.22736487062522548 rxn_smarts="[C:1]([c:2]1[c:3]([H:11])[o:4][c:5]([H:12])[c:6]1[N:7]([H:13])[H:14])([H:8])([H:9])[H:10]>>[C:1]([C:2]1=[C:6]([N:7]([H:13])[H:14])[C@@:5]2([H:12])[C@:3]1([H:11])[O:4]2)([H:8])([H:9])[H:10]"
C       -1.76825564       0.23933122       0.64324045
C       -0.45933177      -0.21403459       0.09649197
C        0.02608945      -1.55724095      -0.14001217
O        0.64992597      -1.75414746      -1.28737286
C        1.58200680      -0.68567417      -0.79804370
C        0.68211054       0.40982944      -0.30926424
N        1.10534789       1.68558884      -0.22643706
H       -2.59754260       0.03900865      -0.04128602
H       -1.77982379       1.31004879       0.85721661
H       -1.99131606      -0.27171078       1.58354425
H       -0.13173364      -2.42878400       0.50003914
H        2.27542554      -1.10909828      -0.06799321
H        0.43945630       2.42890140      -0.11647865
H        1.96764100       1.90798190      -0.69364450
14
Frame=5 idx=011714 GeodesicLength=0.2837083675395685 rxn_smarts="[C:1]([c:2]1[c:3]([H:11])[o:4][c:5]([H:12])[c:6]1[N:7]([H:13])[H:14])([H:8])([H:9])[H:10]>>[C:1]([C:2]1=[C:6]([N:7]([H:13])[H:14])[C@@:5]2([H:12])[C@:3]1([H:11])[O:4]2)([H:8])([H:9])[H:10]"
C       -1.76844530       0.24107196       0.64223759
C       -0.46051168      -0.21626749       0.09740674
C        0.02349190      -1.55835523      -0.14078072
O        0.64791074      -1.74531060      -1.29589903
C        1.56978533      -0.69048892      -0.78931981
C        0.68485452       0.40923868      -0.30216676
N        1.11038849       1.68606082      -0.20210861
H       -2.60366341      -0.01350877      -0.01637850
H       -1.80110380       1.32172413       0.79559057
H       -1.96550620      -0.22090204       1.61318120
H       -0.14747067      -2.43866805       0.48174345
H        2.29885049      -1.11113647      -0.09566486
H        0.43696816       2.42678493      -0.12229551
H        1.97445142       1.90975706      -0.66554576
14
Frame=6 idx=011714 GeodesicLength=0.3398650915695896 rxn_smarts="[C:1]([c:2]1[c:3]([H:11])[o:4][c:5]([H:12])[c:6]1[N:7]([H:13])[H:14])([H:8])([H:9])[H:10]>>[C:1]([C:2]1=[C:6]([N:7]([H:13])[H:14])[C@@:5]2([H:12])[C@:3]1([H:11])[O:4]2)([H:8])([H:9])[H:10]"
C       -1.76867956       0.24307679       0.64086132
C       -0.46181128      -0.21873181       0.09817626
C        0.02082598      -1.55979839      -0.14108062
O        0.64681704      -1.73685361      -1.30337696
C        1.55816279      -0.69582363      -0.77902800
C        0.68758817       0.40829875      -0.29505646
N        1.11489856       1.68624629      -0.17881020
H       -2.60827480      -0.06261656       0.01033837
H       -1.82207403       1.32969360       0.73503177
H       -1.94125906      -0.16899703       1.63851042
H       -0.16350555      -2.44828485       0.46383623
H        2.32267539      -1.11192076      -0.12431857
H        0.43534140       2.42400496      -0.12416655
H        1.97929495       1.91170626      -0.64091702
14
Frame=7 idx=011714 GeodesicLength=0.3959123504413563 rxn_smarts="[C:1]([c:2]1[c:3]([H:11])[o:4][c:5]([H:12])[c:6]1[N:7]([H:13])[H:14])([H:8])([H:9])[H:10]>>[C:1]([C:2]1=[C:6]([N:7]([H:13])[H:14])[C@@:5]2([H:12])[C@:3]1([H:11])[O:4]2)([H:8])([H:9])[H:10]"
C       -1.76895257       0.24538587       0.63911160
C       -0.46310122      -0.22141557       0.09916935
C        0.01806907      -1.56156711      -0.14080466
O        0.64640934      -1.72869146      -1.30983199
C        1.54703756      -0.70173714      -0.76722797
C        0.69038812       0.40698754      -0.28774033
N        1.11904704       1.68612490      -0.15629596
H       -2.61138678      -0.10856251       0.03852885
H       -1.84275012       1.33431213       0.67547991
H       -1.91868504      -0.11613530       1.65973895
H       -0.17978774      -2.45769275       0.44634420
H        2.34695387      -1.11139186      -0.15462819
H        0.43420464       2.42060980      -0.12270584
H        1.98255383       1.91377345      -0.61913793
14
Frame=8 idx=011714 GeodesicLength=0.45194054241431003 rxn_smarts="[C:1]([c:2]1[c:3]([H:11])[o:4][c:5]([H:12])[c:6]1[N:7]([H:13])[H:14])([H:8])([H:9])[H:10]>>[C:1]([C:2]1=[C:6]([N:7]([H:13])[H:14])[C@@:5]2([H:12])[C@:3]1([H:11])[O:4]2)([H:8])([H:9])[H:10]"
C       -1.76920886       0.24797585       0.63712764
C       -0.46429790      -0.22434146       0.10060050
C        0.01512005      -1.56366885      -0.14015987
O        0.64662272      -1.72061238      -1.31548879
C        1.53641604      -0.70827264      -0.75387765
C        0.69328700       0.40529074      -0.28016536
N        1.12291756       1.68567393      -0.13422565
H       -2.61309404      -0.15222348       0.06868987
H       -1.86342003       1.33576599       0.61593850
H       -1.89731105      -0.06162072       1.67753218
H       -0.19657630      -2.46704129       0.42877306
H        2.37151876      -1.10941870      -0.18691882
H        0.43327559       2.41663129      -0.11875333
H        1.98475046       1.91586173      -0.59907229
14
Frame=9 idx=011714 GeodesicLength=0.5077736375914141 rxn_smarts="[C:1]([c:2]1[c:3]([H:11])[o:4][c:5]([H:12])[c:6]1[N:7]([H:13])[H:14])([H:8])([H:9])[H:10]>>[C:1]([C:2]1=[C:6]([N:7]([H:13])[H:14])[C@@:5]2([H:12])[C@:3]1([H:11])[O:4]2)([H:8])([H:9])[H:10]"
C       -1.76932120       0.25076401       0.63518019
C       -0.46534006      -0.22759712       0.10261991
C        0.01182967      -1.56617310      -0.13947875
O        0.64799576      -1.71230164      -1.32034765
C        1.52667635      -0.71556938      -0.73803997
C        0.69654026       0.40308373      -0.27163687
N        1.12632077       1.68508508      -0.11314090
H       -2.61343064      -0.19210050       0.09991268
H       -1.88297257       1.33423662       0.55839488
H       -1.87761819      -0.00688709       1.69181881
H       -0.21424035      -2.47657418       0.41036344
H        2.39620426      -1.10612099      -0.22029198
H        0.43190701       2.41204660      -0.11364263
H        1.98544894       1.91810795      -0.58171115
14
Frame=10 idx=011714 GeodesicLength=0.5635253383185296 rxn_smarts="[C:1]([c:2]1[c:3]([H:11])[o:4][c:5]([H:12])[c:6]1[N:7]([H:13])[H:14])([H:8])([H:9])[H:10]>>[C:1]([C:2]1=[C:6]([N:7]([H:13])[H:14])[C@@:5]2([H:12])[C@:3]1([H:11])[O:4]2)([H:8])([H:9])[H:10]"
C       -1.76936526       0.25385649       0.63313574
C       -0.46614993      -0.23112504       0.10554979
C        0.00820190      -1.56905994      -0.13840611
O        0.65019044      -1.70387360      -1.32420492
C        1.51759150      -0.72375528      -0.71990866
C        0.70011567       0.40035399      -0.26226757
N        1.12952230       1.68425215      -0.09271833
H       -2.61242798      -0.22883466       0.13196433
H       -1.90182554       1.33004910       0.50231897
H       -1.85976311       0.04806866       1.70270473
H       -0.23266950      -2.48618889       0.39152749
H        2.42111195      -1.10089752      -0.25606862
H        0.43033185       2.40685058      -0.10730514
H        1.98513569       1.92030396      -0.56632172
14
Frame=11 idx=011714 GeodesicLength=0.6191038086727232 rxn_smarts="[C:1]([c:2]1[c:3]([H:11])[o:4][c:5]([H:12])[c:6]1[N:7]([H:13])[H:14])([H:8])([H:9])[H:10]>>[C:1]([C:2]1=[C:6]([N:7]([H:13])[H:14])[C@@:5]2([H:12])[C@:3]1([H:11])[O:4]2)([H:8])([H:9])[H:10]"
C       -1.76921004       0.25710314       0.63131502
C       -0.46675527      -0.23502262       0.10932765
C        0.00399556      -1.57237105      -0.13758848
O        0.65393713      -1.69475011      -1.32721642
C        1.50961268      -0.73297657      -0.69831325
C        0.70432737       0.39693388      -0.25112301
N        1.13226281       1.68339465      -0.07333321
H       -2.61038512      -0.26198211       0.16482954
H       -1.91926978       1.32342818       0.44852925
H       -1.84336010       0.10284766       1.71071361
H       -0.25256135      -2.49613982       0.37087858
H        2.44591720      -1.09392680      -0.29332843
H        0.42794398       2.40096953      -0.10137688
H        1.98354492       1.92249203      -0.55331395
14
Frame=12 idx=011714 GeodesicLength=0.6745371756141646 rxn_smarts="[C:1]([c:2]1[c:3]([H:11])[o:4][c:5]([H:12])[c:6]1[N:7]([H:13])[H:14])([H:8])([H:9])[H:10]>>[C:1]([C:2]1=[C:6]([N:7]([H:13])[H:14])[C@@:5]2([H:12])[C@:3]1([H:11])[O:4]2)([H:8])([H:9])[H:10]"
C       -1.76885979       0.26056881       0.62973415
C       -0.46717243      -0.23927236       0.11399310
C       -0.00093787      -1.57612265      -0.13711444
O        0.65937194      -1.68488480      -1.32925402
C        1.50274317      -0.74349332      -0.67287224
C        0.70920396       0.39274514      -0.23815532
N        1.13470802       1.68243834      -0.05481238
H       -2.60740658      -0.29222954       0.19889851
H       -1.93571435       1.31452727       0.39635887
H       -1.82809104       0.15780515       1.71611602
H       -0.27421266      -2.50640271       0.34805175
H        2.47045860      -1.08447457      -0.33268325
H        0.42491603       2.39434709      -0.09599521
H        1.98099299       1.92444815      -0.54226556
14
Frame=13 idx=011714 GeodesicLength=0.7298929320240604 rxn_smarts="[C:1]([c:2]1[c:3]([H:11])[o:4][c:5]([H:12])[c:6]1[N:7]([H:13])[H:14])([H:8])([H:9])[H:10]>>[C:1]([C:2]1=[C:6]([N:7]([H:13])[H:14])[C@@:5]2([H:12])[C@:3]1([H:11])[O:4]2)([H:8])([H:9])[H:10]"
C       -1.76827897       0.26430327       0.62844229
C       -0.46740916      -0.24390812       0.11963650
C       -0.00677051      -1.58033815      -0.13703759
O        0.66679842      -1.67428619      -1.33001299
C        1.49700378      -0.75569135      -0.64295080
C        0.71476369       0.38761688      -0.22330206
N        1.13694887       1.68122939      -0.03716674
H       -2.60350936      -0.31964424       0.23408674
H       -1.95117494       1.30353307       0.34587610
H       -1.81395908       0.21272918       1.71906577
H       -0.29791498      -2.51689411       0.32270728
H        2.49440848      -1.07128108      -0.37479033
H        0.42137266       2.38682789      -0.09159480
H        1.97772111       1.92580358      -0.53295937
14
Frame=14 idx=011714 GeodesicLength=0.7849632880036692 rxn_smarts="[C:1]([c:2]1[c:3]([H:11])[o:4][c:5]([H:12])[c:6]1[N:7]([H:13])[H:14])([H:8])([H:9])[H:10]>>[C:1]([C:2]1=[C:6]([N:7]([H:13])[H:14])[C@@:5]2([H:12])[C@:3]1([H:11])[O:4]2)([H:8])([H:9])[H:10]"
C       -1.76738235       0.26812276       0.62774590
C       -0.46718766      -0.24903865       0.12708836
C       -0.01358424      -1.58498657      -0.13769784
O        0.67686808      -1.66173045      -1.32932812
C        1.49290240      -0.76984767      -0.60679850
C        0.72181028       0.38121597      -0.20417336
N        1.13880739       1.68013144      -0.02100830
H       -2.59882760      -0.34360910       0.26953253
H       -1.96468334       1.29084523       0.29827872
H       -1.80134813       0.26660390       1.71997342
H       -0.32432517      -2.52781411       0.29311726
H        2.51696511      -1.05444896      -0.41967391
H        0.41673582       2.37813501      -0.09034738
H        1.97324940       1.92642120      -0.52670878
14
Frame=15 idx=011714 GeodesicLength=0.8396301254960012 rxn_smarts="[C:1]([c:2]1[c:3]([H:11])[o:4][c:5]([H:12])[c:6]1[N:7]([H:13])[H:14])([H:8])([H:9])[H:10]>>[C:1]([C:2]1=[C:6]([N:7]([H:13])[H:14])[C@@:5]2([H:12])[C@:3]1([H:11])[O:4]2)([H:8])([H:9])[H:10]"
C       -1.76586683       0.27202951       0.62821044
C       -0.46679161      -0.25461647       0.13537586
C       -0.02177326      -1.58997438      -0.14011168
O        0.69074676      -1.64742407      -1.32699683
C        1.49053431      -0.78657598      -0.56362807
C        0.73009894       0.37340490      -0.18164319
N        1.14023079       1.67892651      -0.00713176
H       -2.59346928      -0.36397582       0.30548187
H       -1.97619508       1.27708330       0.25508941
H       -1.78935139       0.31810873       1.71970497
H       -0.35396380      -2.53878880       0.25778722
H        2.53651127      -1.03180934      -0.46466636
H        0.41118044       2.36805618      -0.09395894
H        1.96810875       1.92555574      -0.52351293
14
Frame=16 idx=011714 GeodesicLength=0.8939552929980225 rxn_smarts="[C:1]([c:2]1[c:3]([H:11])[o:4][c:5]([H:12])[c:6]1[N:7]([H:13])[H:14])([H:8])([H:9])[H:10]>>[C:1]([C:2]1=[C:6]([N:7]([H:13])[H:14])[C@@:5]2([H:12])[C@:3]1([H:11])[O:4]2)([H:8])([H:9])[H:10]"
C       -1.76365680       0.27583746       0.62920778
C       -0.46536084      -0.26072394       0.14598185
C       -0.03017556      -1.59505090      -0.14325680
O        0.70703158      -1.63069741      -1.32313155
C        1.48954051      -0.80536537      -0.51568681
C        0.74008835       0.36421258      -0.15506350
N        1.14179494       1.67742743       0.00502978
H       -2.58699689      -0.38173684       0.34113456
H       -1.98551672       1.26186722       0.21418678
H       -1.77853205       0.36839342       1.71785838
H       -0.38507975      -2.54927046       0.21766498
H        2.55010989      -1.00456121      -0.50987179
H        0.40513309       2.35627857      -0.09954762
H        1.96162027       1.92338944      -0.52450603
