19
Frame=0 idx=008290 GeodesicLength=0.0 rxn_smarts="[C:1]([C:2]([C:3]([H:12])([H:13])[H:14])([C@@:4]1([H:15])[C:5]([H:16])([H:17])[C@:6]1([O:7][H:19])[H:18])[H:11])([H:8])([H:9])[H:10]>>[C:1]([C:2]([C:3]([H:12])([H:13])[H:14])([C@@:4]([C:5]([H:16])([H:17])[H:18])([C:6][O:7][H:19])[H:15])[H:11])([H:8])([H:9])[H:10]"
C        1.60562195       1.09082386       0.23556041
C        0.71437563      -0.14720720       0.19045354
C        1.42805418      -1.31446268      -0.48554242
C       -0.58465802       0.17011138      -0.52933714
C       -1.75972874      -0.73517032      -0.36863064
C       -1.61510633       1.05617921       0.12992985
O       -1.44612039       1.04906768       1.49516090
H        1.10322687       1.91742008       0.73937329
H        2.53694234       0.88310946       0.76667157
H        1.86510515       1.41738456      -0.77585396
H        0.47289295      -0.43328250       1.21757348
H        2.36597879      -1.54726957       0.02345196
H        1.66684129      -1.07474153      -1.52604217
H        0.81203752      -2.21637214      -0.48441864
H       -0.40769036       0.45455653      -1.56609919
H       -2.25234526      -1.11583632      -1.25689500
H       -1.77172418      -1.37043213       0.50904152
H       -2.60703599       0.30101373      -0.17565348
H       -2.12666737       1.61510790       1.86125604
19
Frame=1 idx=008290 GeodesicLength=0.044182846793621514 rxn_smarts="[C:1]([C:2]([C:3]([H:12])([H:13])[H:14])([C@@:4]1([H:15])[C:5]([H:16])([H:17])[C@:6]1([O:7][H:19])[H:18])[H:11])([H:8])([H:9])[H:10]>>[C:1]([C:2]([C:3]([H:12])([H:13])[H:14])([C@@:4]([C:5]([H:16])([H:17])[H:18])([C:6][O:7][H:19])[H:15])[H:11])([H:8])([H:9])[H:10]"
C        1.60470944       1.09017681       0.23789402
C        0.71296680      -0.14755900       0.19147858
C        1.42521924      -1.31389809      -0.48751328
C       -0.58654241       0.17213324      -0.52654974
C       -1.76000302      -0.73860542      -0.36909785
C       -1.62020085       1.04844673       0.13798970
O       -1.45173540       1.04555010       1.50167412
H        1.10271839       1.91658915       0.74263969
H        2.53622758       0.88122500       0.76817418
H        1.86427092       1.41787249      -0.77313672
H        0.47276708      -0.43545168       1.21847510
H        2.36418629      -1.54674966       0.01956338
H        1.66242697      -1.07278423      -1.52807398
H        0.80908849      -2.21565876      -0.48679151
H       -0.41186035       0.46332279      -1.56183864
H       -2.23142130      -1.13322946      -1.26261507
H       -1.76843758      -1.37725963       0.50645153
H       -2.62195295       0.29652701      -0.19074636
H       -2.10242733       1.64935262       1.86202284
19
Frame=2 idx=008290 GeodesicLength=0.08833526318893133 rxn_smarts="[C:1]([C:2]([C:3]([H:12])([H:13])[H:14])([C@@:4]1([H:15])[C:5]([H:16])([H:17])[C@:6]1([O:7][H:19])[H:18])[H:11])([H:8])([H:9])[H:10]>>[C:1]([C:2]([C:3]([H:12])([H:13])[H:14])([C@@:4]([C:5]([H:16])([H:17])[H:18])([C:6][O:7][H:19])[H:15])[H:11])([H:8])([H:9])[H:10]"
C        1.60362167       1.08960570       0.24026930
C        0.71139673      -0.14784063       0.19258497
C        1.42224363      -1.31325539      -0.48935703
C       -0.58857538       0.17417859      -0.52369813
C       -1.76042695      -0.74204157      -0.36967664
C       -1.62551537       1.04056493       0.14608363
O       -1.45758970       1.04206841       1.50820713
H        1.10203077       1.91587098       0.74586324
H        2.53531905       0.87946108       0.76975816
H        1.86329517       1.41838078      -0.77037850
H        0.47245566      -0.43752704       1.21944580
H        2.36227021      -1.54608750       0.01578339
H        1.65783648      -1.07079054      -1.52998461
H        0.80604921      -2.21489893      -0.48897370
H       -0.41618690       0.47215785      -1.55744228
H       -2.21019290      -1.15050279      -1.26799473
H       -1.76527880      -1.38402757       0.50376565
H       -2.63676857       0.29208300      -0.20656968
H       -2.07598400       1.68260065       1.86231402
19
Frame=3 idx=008290 GeodesicLength=0.13247426323968542 rxn_smarts="[C:1]([C:2]([C:3]([H:12])([H:13])[H:14])([C@@:4]1([H:15])[C:5]([H:16])([H:17])[C@:6]1([O:7][H:19])[H:18])[H:11])([H:8])([H:9])[H:10]>>[C:1]([C:2]([C:3]([H:12])([H:13])[H:14])([C@@:4]([C:5]([H:16])([H:17])[H:18])([C:6][O:7][H:19])[H:15])[H:11])([H:8])([H:9])[H:10]"
C        1.60240688       1.08912879       0.24262844
C        0.70969192      -0.14803544       0.19376665
C        1.41914466      -1.31258089      -0.49105756
C       -0.59073353       0.17628750      -0.52079607
C       -1.76099635      -0.74541983      -0.37034260
C       -1.63102030       1.03263374       0.15419898
O       -1.46363783       1.03875698       1.51476670
H        1.10121955       1.91532609       0.74897705
H        2.53426938       0.87782198       0.77136770
H        1.86222940       1.41890001      -0.76767180
H        0.47197971      -0.43946285       1.22051265
H        2.36024436      -1.54534649       0.01214322
H        1.65309867      -1.06884055      -1.53178857
H        0.80292011      -2.21413895      -0.49090954
H       -0.42063847       0.48107070      -1.55295589
H       -2.18869271      -1.16758091      -1.27299220
H       -1.76225918      -1.39066649       0.50104623
H       -2.65144504       0.28779872      -0.22313047
H       -2.04778121       1.71434790       1.86223709
19
Frame=4 idx=008290 GeodesicLength=0.1765463175949579 rxn_smarts="[C:1]([C:2]([C:3]([H:12])([H:13])[H:14])([C@@:4]1([H:15])[C:5]([H:16])([H:17])[C@:6]1([O:7][H:19])[H:18])[H:11])([H:8])([H:9])[H:10]>>[C:1]([C:2]([C:3]([H:12])([H:13])[H:14])([C@@:4]([C:5]([H:16])([H:17])[H:18])([C:6][O:7][H:19])[H:15])[H:11])([H:8])([H:9])[H:10]"
C        1.60109249       1.08872181       0.24494894
C        0.70785942      -0.14811834       0.19501894
C        1.41587666      -1.31182454      -0.49257913
C       -0.59301122       0.17846517      -0.51782802
C       -1.76170629      -0.74869965      -0.37108528
C       -1.63666974       1.02463573       0.16231339
O       -1.46977090       1.03563436       1.52127559
H        1.10034826       1.91491479       0.75192441
H        2.53310707       0.87629990       0.77296727
H        1.86108116       1.41936616      -0.76500968
H        0.47137245      -0.44120167       1.22163978
H        2.35806828      -1.54445522       0.00865812
H        1.64812916      -1.06692274      -1.53342174
H        0.79964452      -2.21329453      -0.49253613
H       -0.42523083       0.49003825      -1.54832989
H       -2.16692182      -1.18441594      -1.27755992
H       -1.75936626      -1.39709279       0.49828367
H       -2.66592304       0.28368561      -0.24045366
H       -2.01797938       1.74426365       1.86177333
19
Frame=5 idx=008290 GeodesicLength=0.22067825542620065 rxn_smarts="[C:1]([C:2]([C:3]([H:12])([H:13])[H:14])([C@@:4]1([H:15])[C:5]([H:16])([H:17])[C@:6]1([O:7][H:19])[H:18])[H:11])([H:8])([H:9])[H:10]>>[C:1]([C:2]([C:3]([H:12])([H:13])[H:14])([C@@:4]([C:5]([H:16])([H:17])[H:18])([C:6][O:7][H:19])[H:15])[H:11])([H:8])([H:9])[H:10]"
C        1.59967755       1.08841819       0.24723036
C        0.70590803      -0.14811077       0.19634452
C        1.41249204      -1.31105836      -0.49396297
C       -0.59539935       0.18071924      -0.51481001
C       -1.76255159      -0.75190884      -0.37189955
C       -1.64248843       1.01662576       0.17044558
O       -1.47606397       1.03276009       1.52781237
H        1.09938970       1.91470579       0.75474154
H        2.53183219       0.87490456       0.77456556
H        1.85986715       1.41984575      -0.76243769
H        0.47061459      -0.44278849       1.22287613
H        2.35579353      -1.54351126       0.00529859
H        1.64301047      -1.06508059      -1.53497017
H        0.79628194      -2.21247821      -0.49390109
H       -0.42993165       0.49908917      -1.54362742
H       -2.14489395      -1.20102006      -1.28170314
H       -1.75660839      -1.40337053       0.49552466
H       -2.68020032       0.27977798      -0.25851314
H       -1.98672957       1.77248060       1.86098586
19
Frame=6 idx=008290 GeodesicLength=0.26481292906001663 rxn_smarts="[C:1]([C:2]([C:3]([H:12])([H:13])[H:14])([C@@:4]1([H:15])[C:5]([H:16])([H:17])[C@:6]1([O:7][H:19])[H:18])[H:11])([H:8])([H:9])[H:10]>>[C:1]([C:2]([C:3]([H:12])([H:13])[H:14])([C@@:4]([C:5]([H:16])([H:17])[H:18])([C:6][O:7][H:19])[H:15])[H:11])([H:8])([H:9])[H:10]"
C        1.59816458       1.08817794       0.24948472
C        0.70383693      -0.14799999       0.19774260
C        1.40895702      -1.31020068      -0.49518426
C       -0.59790464       0.18302493      -0.51171860
C       -1.76353175      -0.75503499      -0.37277551
C       -1.64844123       1.00853183       0.17857855
O       -1.48246255       1.03009407       1.53430070
H        1.09837632       1.91461028       0.75742522
H        2.53045357       0.87361679       0.77615244
H        1.85855596       1.42029017      -0.75989285
H        0.46973094      -0.44419511       1.22416961
H        2.35338909      -1.54241182       0.00207163
H        1.63768366      -1.06323785      -1.53635554
H        0.79279791      -2.21157054      -0.49500008
H       -0.43477705       0.50817929      -1.53877584
H       -2.12268154      -1.21734535      -1.28535250
H       -1.75396567      -1.40944737       0.49274204
H       -2.69423408       0.27603631      -0.27730114
H       -1.95394745       1.79888210       1.85968882
19
Frame=7 idx=008290 GeodesicLength=0.30903044303738497 rxn_smarts="[C:1]([C:2]([C:3]([H:12])([H:13])[H:14])([C@@:4]1([H:15])[C:5]([H:16])([H:17])[C@:6]1([O:7][H:19])[H:18])[H:11])([H:8])([H:9])[H:10]>>[C:1]([C:2]([C:3]([H:12])([H:13])[H:14])([C@@:4]([C:5]([H:16])([H:17])[H:18])([C:6][O:7][H:19])[H:15])[H:11])([H:8])([H:9])[H:10]"
C        1.59658318       1.08803029       0.25167376
C        0.70166412      -0.14778702       0.19920569
C        1.40529610      -1.30932304      -0.49625699
C       -0.60050647       0.18541546      -0.50857325
C       -1.76463593      -0.75806271      -0.37370679
C       -1.65452519       1.00044162       0.18671366
O       -1.48895272       1.02772885       1.54077568
H        1.09732969       1.91470593       0.75994330
H        2.52899692       0.87244652       0.77770258
H        1.85719961       1.42071735      -0.75745843
H        0.46872378      -0.44541688       1.22555773
H        2.35088413      -1.54123913      -0.00103618
H        1.63217458      -1.06148447      -1.53764112
H        0.78921426      -2.21066890      -0.49580201
H       -0.43972632       0.51734059      -1.53383616
H       -2.10024273      -1.23338471      -1.28852221
H       -1.75144764      -1.41532203       0.48998376
H       -2.70799593       0.27252952      -0.29681763
H       -1.92003343       1.82333276       1.85809461
19
Frame=8 idx=008290 GeodesicLength=0.3533505106777006 rxn_smarts="[C:1]([C:2]([C:3]([H:12])([H:13])[H:14])([C@@:4]1([H:15])[C:5]([H:16])([H:17])[C@:6]1([O:7][H:19])[H:18])[H:11])([H:8])([H:9])[H:10]>>[C:1]([C:2]([C:3]([H:12])([H:13])[H:14])([C@@:4]([C:5]([H:16])([H:17])[H:18])([C:6][O:7][H:19])[H:15])[H:11])([H:8])([H:9])[H:10]"
C        1.59493400       1.08796327       0.25380768
C        0.69939137      -0.14747243       0.20073357
C        1.40150480      -1.30840430      -0.49718443
C       -0.60320625       0.18788049      -0.50536735
C       -1.76585923      -0.76099799      -0.37468733
C       -1.66073077       0.99233150       0.19484789
O       -1.49551578       1.02566931       1.54721857
H        1.09626204       1.91496437       0.76231452
H        2.52746932       0.87138177       0.77921148
H        1.85577994       1.42112756      -0.75511079
H        0.46760158      -0.44645547       1.22702762
H        2.34827373      -1.53997185      -0.00403196
H        1.62647092      -1.05979230      -1.53881627
H        0.78552992      -2.20974584      -0.49632193
H       -0.44479252       0.52656380      -1.52878980
H       -2.07760995      -1.24912867      -1.29118051
H       -1.74903916      -1.42099090       0.48725002
H       -2.72145844       0.26924056      -0.31705223
H       -1.88500553       1.84583713       1.85613125
19
Frame=9 idx=008290 GeodesicLength=0.3978145763181734 rxn_smarts="[C:1]([C:2]([C:3]([H:12])([H:13])[H:14])([C@@:4]1([H:15])[C:5]([H:16])([H:17])[C@:6]1([O:7][H:19])[H:18])[H:11])([H:8])([H:9])[H:10]>>[C:1]([C:2]([C:3]([H:12])([H:13])[H:14])([C@@:4]([C:5]([H:16])([H:17])[H:18])([C:6][O:7][H:19])[H:15])[H:11])([H:8])([H:9])[H:10]"
C        1.59322628       1.08797698       0.25588039
C        0.69702390      -0.14705516       0.20232440
C        1.39758543      -1.30744689      -0.49796999
C       -0.60600121       0.19042253      -0.50209902
C       -1.76719770      -0.76384204      -0.37571713
C       -1.66705607       0.98420161       0.20298458
O       -1.50214338       1.02392734       1.55362635
H        1.09518363       1.91539086       0.76452779
H        2.52587860       0.87042203       0.78067605
H        1.85431013       1.42151632      -0.75285686
H        0.46636919      -0.44730904       1.22857810
H        2.34556367      -1.53861140      -0.00692565
H        1.62056459      -1.05816806      -1.53988763
H        0.78174727      -2.20880496      -0.49655361
H       -0.44997358       0.53585529      -1.52363344
H       -2.05478570      -1.26456803      -1.29331832
H       -1.74673740      -1.42645623       0.48454136
H       -2.73459988       0.26616818      -0.33799719
H       -1.84895778       1.86638065       1.85381979
19
Frame=10 idx=008290 GeodesicLength=0.4424646558215103 rxn_smarts="[C:1]([C:2]([C:3]([H:12])([H:13])[H:14])([C@@:4]1([H:15])[C:5]([H:16])([H:17])[C@:6]1([O:7][H:19])[H:18])[H:11])([H:8])([H:9])[H:10]>>[C:1]([C:2]([C:3]([H:12])([H:13])[H:14])([C@@:4]([C:5]([H:16])([H:17])[H:18])([C:6][O:7][H:19])[H:15])[H:11])([H:8])([H:9])[H:10]"
C        1.59144910       1.08806919       0.25789900
C        0.69455607      -0.14653423       0.20398182
C        1.39353245      -1.30644151      -0.49861227
C       -0.60889584       0.19303698      -0.49876784
C       -1.76864530      -0.76660311      -0.37680363
C       -1.67350342       0.97603732       0.21112149
O       -1.50884440       1.02249954       1.55999328
H        1.09408765       1.91597908       0.76659088
H        2.52421332       0.86956825       0.78210439
H        1.85277116       1.42188571      -0.75068800
H        0.46502407      -0.44797803       1.23021140
H        2.34275375      -1.53714093      -0.00972569
H        1.61443551      -1.05660221      -1.54085473
H        0.77787150      -2.20783939      -0.49648887
H       -0.45527804       0.54521916      -1.51836261
H       -2.03177194      -1.27970227      -1.29493175
H       -1.74453549      -1.43172481       0.48185181
H       -2.74739628       0.26329889      -0.35965533
H       -1.81182388       1.88497236       1.85113666
19
Frame=11 idx=008290 GeodesicLength=0.4872796074129995 rxn_smarts="[C:1]([C:2]([C:3]([H:12])([H:13])[H:14])([C@@:4]1([H:15])[C:5]([H:16])([H:17])[C@:6]1([O:7][H:19])[H:18])[H:11])([H:8])([H:9])[H:10]>>[C:1]([C:2]([C:3]([H:12])([H:13])[H:14])([C@@:4]([C:5]([H:16])([H:17])[H:18])([C:6][O:7][H:19])[H:15])[H:11])([H:8])([H:9])[H:10]"
C        1.58966275       1.08823673       0.25982301
C        0.69203134      -0.14591377       0.20569222
C        1.38936581      -1.30542131      -0.49912439
C       -0.61185336       0.19573557      -0.49537597
C       -1.77018399      -0.76925146      -0.37791952
C       -1.68000961       0.96788896       0.21926686
O       -1.51552580       1.02146679       1.56632566
H        1.09304281       1.91674366       0.76846038
H        2.52253561       0.86881054       0.78345465
H        1.85122502       1.42221243      -0.74865797
H        0.46361740      -0.44845561       1.23192592
H        2.33986623      -1.53560445      -0.01245046
H        1.60810295      -1.05514092      -1.54173989
H        0.77390143      -2.20687545      -0.49612429
H       -0.46067107       0.55465156      -1.51299150
H       -2.00864298      -1.29446376      -1.29598415
H       -1.74242207      -1.43676236       0.47922170
H       -2.75979615       0.26068850      -0.38197189
H       -1.77424633       1.90145432       1.84816963
19
Frame=12 idx=008290 GeodesicLength=0.5322867661225903 rxn_smarts="[C:1]([C:2]([C:3]([H:12])([H:13])[H:14])([C@@:4]1([H:15])[C:5]([H:16])([H:17])[C@:6]1([O:7][H:19])[H:18])[H:11])([H:8])([H:9])[H:10]>>[C:1]([C:2]([C:3]([H:12])([H:13])[H:14])([C@@:4]([C:5]([H:16])([H:17])[H:18])([C:6][O:7][H:19])[H:15])[H:11])([H:8])([H:9])[H:10]"
C        1.58785798       1.08847152       0.26164354
C        0.68944064      -0.14518555       0.20745439
C        1.38507594      -1.30436402      -0.49949030
C       -0.61488091       0.19851694      -0.49191727
C       -1.77181466      -0.77178501      -0.37907679
C       -1.68658558       0.95973264       0.22741732
O       -1.52221915       1.02076963       1.57259502
H        1.09203847       1.91767050       0.77010545
H        2.52083055       0.86814937       0.78472057
H        1.84966806       1.42247416      -0.74676352
H        0.46213973      -0.44872567       1.23370749
H        2.33689436      -1.53396632      -0.01509586
H        1.60154639      -1.05377408      -1.54251647
H        0.76983516      -2.20588339      -0.49542726
H       -0.46615617       0.56415303      -1.50749630
H       -1.98537300      -1.30883707      -1.29647709
H       -1.74040275      -1.44156392       0.47662271
H       -2.77178350       0.25831516      -0.40495449
H       -1.73611158       1.91583208       1.84494885
19
Frame=13 idx=008290 GeodesicLength=0.5774534676867695 rxn_smarts="[C:1]([C:2]([C:3]([H:12])([H:13])[H:14])([C@@:4]1([H:15])[C:5]([H:16])([H:17])[C@:6]1([O:7][H:19])[H:18])[H:11])([H:8])([H:9])[H:10]>>[C:1]([C:2]([C:3]([H:12])([H:13])[H:14])([C@@:4]([C:5]([H:16])([H:17])[H:18])([C:6][O:7][H:19])[H:15])[H:11])([H:8])([H:9])[H:10]"
C        1.58608119       1.08876493       0.26335118
C        0.68682540      -0.14436801       0.20925566
C        1.38069128      -1.30330317      -0.49974738
C       -0.61794303       0.20137827      -0.48839880
C       -1.77351017      -0.77419782      -0.38024111
C       -1.69316783       0.95160813       0.23557733
O       -1.52882787       1.02050646       1.57881689
H        1.09113190       1.91875471       0.77154701
H        2.51915246       0.86755961       0.78588050
H        1.84812975       1.42267895      -0.74502750
H        0.46063988      -0.44881196       1.23555858
H        2.33386312      -1.53228239      -0.01769612
H        1.59479957      -1.05251942      -1.54323099
H        0.76568900      -2.20489786      -0.49445319
H       -0.47170740       0.57370573      -1.50190628
H       -1.96206108      -1.32278799      -1.29637411
H       -1.73845127      -1.44611602       0.47411537
H       -2.78331035       0.25620855      -0.42853478
H       -1.69802454       1.92811930       1.84150776
19
Frame=14 idx=008290 GeodesicLength=0.6227692840998978 rxn_smarts="[C:1]([C:2]([C:3]([H:12])([H:13])[H:14])([C@@:4]1([H:15])[C:5]([H:16])([H:17])[C@:6]1([O:7][H:19])[H:18])[H:11])([H:8])([H:9])[H:10]>>[C:1]([C:2]([C:3]([H:12])([H:13])[H:14])([C@@:4]([C:5]([H:16])([H:17])[H:18])([C:6][O:7][H:19])[H:15])[H:11])([H:8])([H:9])[H:10]"
C        1.58434698       1.08911262       0.26492849
C        0.68419924      -0.14346216       0.21108868
C        1.37622139      -1.30224262      -0.49989130
C       -0.62102948       0.20431700      -0.48482299
C       -1.77526394      -0.77648384      -0.38141529
C       -1.69973274       0.94351880       0.24374806
O       -1.53534009       1.02064682       1.58498325
H        1.09033703       1.91998945       0.77276302
H        2.51751953       0.86704178       0.78691259
H        1.84661935       1.42281429      -0.74346715
H        0.45913763      -0.44870985       1.23747088
H        2.33078095      -1.53055461      -0.02024483
H        1.58787211      -1.05138912      -1.54387613
H        0.76146992      -2.20391764      -0.49319046
H       -0.47731499       0.58329835      -1.49622307
H       -1.93874994      -1.33627458      -1.29568697
H       -1.73656068      -1.45041985       0.47168749
H       -2.79435728       0.25436622      -0.45267844
H       -1.66015501       1.93834892       1.83791417
19
Frame=15 idx=008290 GeodesicLength=0.6682072114559218 rxn_smarts="[C:1]([C:2]([C:3]([H:12])([H:13])[H:14])([C@@:4]1([H:15])[C:5]([H:16])([H:17])[C@:6]1([O:7][H:19])[H:18])[H:11])([H:8])([H:9])[H:10]>>[C:1]([C:2]([C:3]([H:12])([H:13])[H:14])([C@@:4]([C:5]([H:16])([H:17])[H:18])([C:6][O:7][H:19])[H:15])[H:11])([H:8])([H:9])[H:10]"
C        1.58267393       1.08950586       0.26636676
C        0.68158121      -0.14247727       0.21294431
C        1.37168364      -1.30119093      -0.49993411
C       -0.62412366       0.20732573      -0.48119237
C       -1.77706317      -0.77864295      -0.38258984
C       -1.70624926       0.93546943       0.25193352
O       -1.54172782       1.02118960       1.59109248
H        1.08967204       1.92136013       0.77375375
H        2.51595378       0.86658583       0.78780016
H        1.84514923       1.42287600      -0.74209124
H        0.45765538      -0.44843040       1.23943576
H        2.32766175      -1.52879702      -0.02275228
H        1.58078762      -1.05038719      -1.54446088
H        0.75719068      -2.20294755      -0.49165830
H       -0.48296301       0.59291562      -1.49045252
H       -1.91550256      -1.34926536      -1.29441745
H       -1.73471962      -1.45447873       0.46934652
H       -2.80490366       0.25278345      -0.47733631
H       -1.62275650       1.94660575       1.83421203
19
Frame=16 idx=008290 GeodesicLength=0.7137321082027381 rxn_smarts="[C:1]([C:2]([C:3]([H:12])([H:13])[H:14])([C@@:4]1([H:15])[C:5]([H:16])([H:17])[C@:6]1([O:7][H:19])[H:18])[H:11])([H:8])([H:9])[H:10]>>[C:1]([C:2]([C:3]([H:12])([H:13])[H:14])([C@@:4]([C:5]([H:16])([H:17])[H:18])([C:6][O:7][H:19])[H:15])[H:11])([H:8])([H:9])[H:10]"
C        1.58107921       1.08993293       0.26766218
C        0.67899045      -0.14142536       0.21481277
C        1.36709565      -1.30015557      -0.49989235
C       -0.62720934       0.21039556      -0.47750913
C       -1.77889429      -0.78067684      -0.38375261
C       -1.71268624       0.92746289       0.26013748
O       -1.54795711       1.02213543       1.59714114
H        1.08915348       1.92284586       0.77452816
H        2.51447604       0.86617691       0.78853066
H        1.84372927       1.42286116      -0.74090186
H        0.45621663      -0.44799069       1.24144254
H        2.32451961      -1.52702440      -0.02523356
H        1.57356985      -1.04951219      -1.54499708
H        0.75286463      -2.20199078      -0.48988524
H       -0.48863721       0.60254078      -1.48459995
H       -1.89237789      -1.36173722      -1.29256875
H       -1.73291486      -1.45829633       0.46710292
H       -2.81493385       0.25144875      -0.50245570
H       -1.58608403       1.95300912       1.83043838
