13
Frame=0 idx=000051 GeodesicLength=0.0 rxn_smarts="[C:1]([O:2][C:3]([C:4]([C:5]#[N:6])([H:12])[H:13])([H:10])[H:11])([H:7])([H:8])[H:9]>>[C:1]([O:2][C:3]([N:6]=[C:5]=[C:4]([H:12])[H:13])([H:10])[H:11])([H:7])([H:8])[H:9]"
C        2.20984627       0.82819444      -0.53460988
O        1.36608888       0.77005653       0.62456179
C        0.16249567       0.33800726       0.45090484
C       -1.93662660      -1.48156301       0.33215094
C       -2.24337180      -0.18305860       0.04967907
N       -2.18726761       0.97596501      -0.14332924
H        1.81752693       1.56955981      -1.23054595
H        3.19369975       1.12421563      -0.18363471
H        2.25497675      -0.15375278      -1.00661506
H       -0.44267147       0.30607784       1.33589835
H       -0.13351697      -0.02846852      -0.51506864
H       -2.19655398      -1.87730065       1.30512142
H       -1.86462584      -2.18793300      -0.48451298
13
Frame=1 idx=000051 GeodesicLength=0.07290865630971004 rxn_smarts="[C:1]([O:2][C:3]([C:4]([C:5]#[N:6])([H:12])[H:13])([H:10])[H:11])([H:7])([H:8])[H:9]>>[C:1]([O:2][C:3]([N:6]=[C:5]=[C:4]([H:12])[H:13])([H:10])[H:11])([H:7])([H:8])[H:9]"
C        2.20596025       0.83404626      -0.53184973
O        1.36943183       0.71058801       0.62386328
C        0.15409738       0.29837151       0.44071551
C       -1.94174065      -1.46486718       0.33656762
C       -2.25116327      -0.16637456       0.04990572
N       -2.15543206       0.99151176      -0.13726188
H        1.77422196       1.53296318      -1.24847784
H        3.15971001       1.21526182      -0.17807494
H        2.33389058      -0.14667526      -0.99076227
H       -0.42547667       0.27481051       1.34505657
H       -0.12282657      -0.04997729      -0.53939581
H       -2.21188152      -1.85560629       1.30901391
H       -1.88879128      -2.17405248      -0.47930014
13
Frame=2 idx=000051 GeodesicLength=0.14567181762950224 rxn_smarts="[C:1]([O:2][C:3]([C:4]([C:5]#[N:6])([H:12])[H:13])([H:10])[H:11])([H:7])([H:8])[H:9]>>[C:1]([O:2][C:3]([N:6]=[C:5]=[C:4]([H:12])[H:13])([H:10])[H:11])([H:7])([H:8])[H:9]"
C        2.20158893       0.83901928      -0.52898350
O        1.37346219       0.64925962       0.62031070
C        0.14540936       0.26007077       0.42947740
C       -1.94667165      -1.44791068       0.34116241
C       -2.25854442      -0.14905271       0.05161224
N       -2.12369922       1.00625873      -0.13060424
H        1.73604713       1.49264832      -1.26728875
H        3.11641121       1.30339832      -0.16994463
H        2.41440770      -0.13306938      -0.97429761
H       -0.40721940       0.24371222       1.35284233
H       -0.11274374      -0.07118098      -0.56353125
H       -2.22521579      -1.83396386       1.31334971
H       -1.91323231      -2.15918965      -0.47410481
13
Frame=3 idx=000051 GeodesicLength=0.21838723650052516 rxn_smarts="[C:1]([O:2][C:3]([C:4]([C:5]#[N:6])([H:12])[H:13])([H:10])[H:11])([H:7])([H:8])[H:9]>>[C:1]([O:2][C:3]([N:6]=[C:5]=[C:4]([H:12])[H:13])([H:10])[H:11])([H:7])([H:8])[H:9]"
C        2.19673729       0.84358335      -0.52598735
O        1.37871923       0.58418927       0.61356101
C        0.13685462       0.22204875       0.41703185
C       -1.95190511      -1.43053338       0.34648358
C       -2.26518774      -0.13099084       0.05417908
N       -2.09114102       1.02017827      -0.12457223
H        1.70275758       1.45027212      -1.28601408
H        3.06341422       1.38832111      -0.15867908
H        2.49656258      -0.11115104      -0.95837506
H       -0.38770569       0.21261019       1.35890220
H       -0.10286941      -0.09338864      -0.58766881
H       -2.23769991      -1.81128090       1.31890253
H       -1.93853666      -2.14385827      -0.46776362
13
Frame=4 idx=000051 GeodesicLength=0.29054328117945627 rxn_smarts="[C:1]([O:2][C:3]([C:4]([C:5]#[N:6])([H:12])[H:13])([H:10])[H:11])([H:7])([H:8])[H:9]>>[C:1]([O:2][C:3]([N:6]=[C:5]=[C:4]([H:12])[H:13])([H:10])[H:11])([H:7])([H:8])[H:9]"
C        2.19186897       0.84586498      -0.52290875
O        1.38343181       0.51951812       0.60294608
C        0.12684451       0.18848885       0.40305569
C       -1.95553117      -1.41315254       0.35134696
C       -2.27243412      -0.11262563       0.05982169
N       -2.06180184       1.03358873      -0.11521302
H        1.67729123       1.40184727      -1.30811562
H        3.00121025       1.46761698      -0.14541676
H        2.57970035      -0.08466837      -0.93753632
H       -0.36733514       0.18228857       1.36344554
H       -0.09549897      -0.11133677      -0.61242086
H       -2.24524517      -1.79081870       1.32405410
H       -1.96250070      -2.12661148      -0.46305872
13
Frame=5 idx=000051 GeodesicLength=0.3627241030915826 rxn_smarts="[C:1]([O:2][C:3]([C:4]([C:5]#[N:6])([H:12])[H:13])([H:10])[H:11])([H:7])([H:8])[H:9]>>[C:1]([O:2][C:3]([N:6]=[C:5]=[C:4]([H:12])[H:13])([H:10])[H:11])([H:7])([H:8])[H:9]"
C        2.18663887       0.84804251      -0.51949835
O        1.38972102       0.44873668       0.58781874
C        0.11736635       0.15429519       0.38732279
C       -1.95976647      -1.39513948       0.35766447
C       -2.27862320      -0.09347773       0.06570611
N       -2.03095256       1.04616392      -0.10776615
H        1.65716361       1.35356532      -1.32900992
H        2.92871309       1.54191590      -0.12801527
H        2.66383824      -0.04741315      -0.91762825
H       -0.34533014       0.15201642       1.36549609
H       -0.08826337      -0.13117455      -0.63787586
H       -2.25277646      -1.76803326       1.33146417
H       -1.98772897      -2.10949777      -0.45567857
13
Frame=6 idx=000051 GeodesicLength=0.4345327864920872 rxn_smarts="[C:1]([O:2][C:3]([C:4]([C:5]#[N:6])([H:12])[H:13])([H:10])[H:11])([H:7])([H:8])[H:9]>>[C:1]([O:2][C:3]([N:6]=[C:5]=[C:4]([H:12])[H:13])([H:10])[H:11])([H:7])([H:8])[H:9]"
C        2.18146083       0.84850383      -0.51607759
O        1.39547385       0.37771348       0.56782493
C        0.10719899       0.12291457       0.36993291
C       -1.96299675      -1.37692994       0.36396016
C       -2.28488671      -0.07371407       0.07440221
N       -2.00195507       1.05858490      -0.09751779
H        1.64531231       1.30021731      -1.35309760
H        2.84608962       1.60981932      -0.10943178
H        2.74846200      -0.00341752      -0.89129144
H       -0.32177074       0.12151118       1.36559784
H       -0.08318090      -0.14787192      -0.66434792
H       -2.25659884      -1.74658576       1.33906566
H       -2.01260861      -2.09074538      -0.44901960
13
Frame=7 idx=000051 GeodesicLength=0.5058320635789079 rxn_smarts="[C:1]([O:2][C:3]([C:4]([C:5]#[N:6])([H:12])[H:13])([H:10])[H:11])([H:7])([H:8])[H:9]>>[C:1]([O:2][C:3]([N:6]=[C:5]=[C:4]([H:12])[H:13])([H:10])[H:11])([H:7])([H:8])[H:9]"
C        2.17658556       0.84658227      -0.51294896
O        1.39961756       0.31022231       0.54373454
C        0.09594947       0.09587954       0.35155802
C       -1.96455302      -1.35879973       0.36919534
C       -2.29163439      -0.05340388       0.08736098
N       -1.97608843       1.07134142      -0.08178299
H        1.64347479       1.23837957      -1.38199131
H        2.75387522       1.67078989      -0.09420118
H        2.83229386       0.04552542      -0.85380039
H       -0.29691108       0.09026703       1.36424830
H       -0.08095656      -0.15876004      -0.69140577
H       -2.25534112      -1.72875930       1.34526925
H       -2.03631186      -2.06926449      -0.44523582
13
Frame=8 idx=000051 GeodesicLength=0.5768364444482145 rxn_smarts="[C:1]([O:2][C:3]([C:4]([C:5]#[N:6])([H:12])[H:13])([H:10])[H:11])([H:7])([H:8])[H:9]>>[C:1]([O:2][C:3]([N:6]=[C:5]=[C:4]([H:12])[H:13])([H:10])[H:11])([H:7])([H:8])[H:9]"
C        2.17220577       0.84232733      -0.51006114
O        1.40210555       0.24597463       0.51628004
C        0.08357829       0.07361624       0.33259948
C       -1.96424916      -1.34091858       0.37340075
C       -2.29886025      -0.03294500       0.10421365
N       -1.95361886       1.08434462      -0.06100486
H        1.65223018       1.16920454      -1.41376727
H        2.65384550       1.72328112      -0.08456831
H        2.91279215       0.09951390      -0.80569315
H       -0.27128896       0.05896439       1.36141335
H       -0.08143709      -0.16323140      -0.71875782
H       -2.24925540      -1.71461102       1.35000312
H       -2.05804771      -2.04552077      -0.44405784
13
Frame=9 idx=000051 GeodesicLength=0.6478326094079367 rxn_smarts="[C:1]([O:2][C:3]([C:4]([C:5]#[N:6])([H:12])[H:13])([H:10])[H:11])([H:7])([H:8])[H:9]>>[C:1]([O:2][C:3]([N:6]=[C:5]=[C:4]([H:12])[H:13])([H:10])[H:11])([H:7])([H:8])[H:9]"
C        2.16791388       0.83655168      -0.50760492
O        1.40335298       0.18725533       0.48779360
C        0.07120127       0.05405765       0.31486157
C       -1.96277187      -1.32310987       0.37575283
C       -2.30541106      -0.01161689       0.12516607
N       -1.93186903       1.09807957      -0.03490718
H        1.67070368       1.09092450      -1.44752050
H        2.54597822       1.76924716      -0.08611071
H        2.98779989       0.15922613      -0.74597133
H       -0.24460836       0.02547545       1.35836681
H       -0.08304367      -0.16304085      -0.74476730
H       -2.24017775      -1.70451077       1.35183294
H       -2.07906818      -2.01853908      -0.44689188
13
Frame=10 idx=000051 GeodesicLength=0.7204564587304295 rxn_smarts="[C:1]([O:2][C:3]([C:4]([C:5]#[N:6])([H:12])[H:13])([H:10])[H:11])([H:7])([H:8])[H:9]>>[C:1]([O:2][C:3]([N:6]=[C:5]=[C:4]([H:12])[H:13])([H:10])[H:11])([H:7])([H:8])[H:9]"
C        2.16173058       0.83395750      -0.50460884
O        1.40740512       0.12461340       0.45449612
C        0.06257637       0.02558247       0.29566609
C       -1.96431960      -1.30363341       0.38003853
C       -2.30709731       0.01244800       0.14440891
N       -1.90010718       1.11151385      -0.01243793
H        1.69452132       1.01618993      -1.47669757
H        2.42734764       1.80763690      -0.08874163
H        3.05543430       0.23669848      -0.68376666
H       -0.21398129      -0.01418947       1.35220020
H       -0.08140775      -0.17115748      -0.77169320
H       -2.23664220      -1.68832562       1.35649823
H       -2.10546001      -1.99133457      -0.44536225
13
Frame=11 idx=000051 GeodesicLength=0.7921907535871056 rxn_smarts="[C:1]([O:2][C:3]([C:4]([C:5]#[N:6])([H:12])[H:13])([H:10])[H:11])([H:7])([H:8])[H:9]>>[C:1]([O:2][C:3]([N:6]=[C:5]=[C:4]([H:12])[H:13])([H:10])[H:11])([H:7])([H:8])[H:9]"
C        2.15657903       0.82815335      -0.50220626
O        1.40750866       0.07354268       0.42317822
C        0.05092946       0.00789967       0.27820615
C       -1.96136688      -1.28609952       0.38167168
C       -2.31084552       0.03382846       0.16828167
N       -1.87692954       1.12402441       0.01662952
H        1.72911296       0.93659606      -1.50369667
H        2.31606180       1.83337704      -0.10671939
H        3.10771303       0.30838502      -0.61227941
H       -0.18610316      -0.05012231       1.34575220
H       -0.08288295      -0.16674557      -0.79663306
H       -2.22493366      -1.68039910       1.35689108
H       -2.12484322      -1.96244019      -0.44907573
13
Frame=12 idx=000051 GeodesicLength=0.8648176758026204 rxn_smarts="[C:1]([O:2][C:3]([C:4]([C:5]#[N:6])([H:12])[H:13])([H:10])[H:11])([H:7])([H:8])[H:9]>>[C:1]([O:2][C:3]([N:6]=[C:5]=[C:4]([H:12])[H:13])([H:10])[H:11])([H:7])([H:8])[H:9]"
C        2.14937755       0.82557772      -0.49943379
O        1.40966455       0.02504555       0.39201955
C        0.04232674      -0.01673857       0.26134341
C       -1.96044468      -1.26776526       0.38400080
C       -2.30998303       0.05708422       0.19036841
N       -1.84507837       1.13567370       0.04186583
H        1.76614697       0.86423239      -1.52439110
H        2.20390393       1.85190918      -0.12920553
H        3.14638620       0.38876957      -0.54174637
H       -0.15632580      -0.09162845       1.33798845
H       -0.08022245      -0.17013306      -0.82047878
H       -2.21811021      -1.66875467       1.35829775
H       -2.14764141      -1.93327232      -0.45062862
13
Frame=13 idx=000051 GeodesicLength=0.9389580194036605 rxn_smarts="[C:1]([O:2][C:3]([C:4]([C:5]#[N:6])([H:12])[H:13])([H:10])[H:11])([H:7])([H:8])[H:9]>>[C:1]([O:2][C:3]([N:6]=[C:5]=[C:4]([H:12])[H:13])([H:10])[H:11])([H:7])([H:8])[H:9]"
C        2.14016546       0.82558292      -0.49619876
O        1.41353560      -0.01989083       0.36173408
C        0.03601834      -0.04656768       0.24495398
C       -1.96075198      -1.24875840       0.38666218
C       -2.30491296       0.08196930       0.21153627
N       -1.80606639       1.14628480       0.06424234
H        1.80570732       0.79827054      -1.53915870
H        2.09221965       1.86334778      -0.15680740
H        3.17110486       0.47525428      -0.47188940
H       -0.12528274      -0.13803330       1.32888356
H       -0.07416976      -0.17972449      -0.84328498
H       -2.21450368      -1.65459218       1.36020559
H       -2.17306372      -1.90314274      -0.45087875
13
Frame=14 idx=000051 GeodesicLength=1.0142057296275813 rxn_smarts="[C:1]([O:2][C:3]([C:4]([C:5]#[N:6])([H:12])[H:13])([H:10])[H:11])([H:7])([H:8])[H:9]>>[C:1]([O:2][C:3]([N:6]=[C:5]=[C:4]([H:12])[H:13])([H:10])[H:11])([H:7])([H:8])[H:9]"
C        2.12965975       0.82673769      -0.49263079
O        1.41775971      -0.06052619       0.33281831
C        0.03031071      -0.07714492       0.22902459
C       -1.96072328      -1.22977276       0.38932757
C       -2.29745974       0.10707362       0.23263057
N       -1.76455556       1.15556785       0.08500754
H        1.84812170       0.73836482      -1.54852605
H        1.98520001       1.86728851      -0.18941529
H        3.18214133       0.56226058      -0.40307047
H       -0.09460826      -0.18610783       1.31849598
H       -0.06649151      -0.19123112      -0.86510694
H       -2.21109573      -1.64007668       1.36210041
H       -2.19825913      -1.87243356      -0.45065542
13
Frame=15 idx=000051 GeodesicLength=1.0914995564274892 rxn_smarts="[C:1]([O:2][C:3]([C:4]([C:5]#[N:6])([H:12])[H:13])([H:10])[H:11])([H:7])([H:8])[H:9]>>[C:1]([O:2][C:3]([N:6]=[C:5]=[C:4]([H:12])[H:13])([H:10])[H:11])([H:7])([H:8])[H:9]"
C        2.11718651       0.82972470      -0.48854802
O        1.42313755      -0.09815375       0.30491587
C        0.02590233      -0.11085682       0.21305549
C       -1.96105813      -1.21023576       0.39243244
C       -2.28643509       0.13326175       0.25296363
N       -1.71801897       1.16349631       0.10304894
H        1.89204497       0.68609479      -1.55266135
H        1.88106946       1.86480866      -0.22485742
H        3.18022006       0.65118557      -0.33609133
H       -0.06366547      -0.23748868       1.30646720
H       -0.05644719      -0.20752391      -0.88641270
H       -2.20924142      -1.62349557       1.36474033
H       -2.22469461      -1.84081728      -0.44905308
13
Frame=16 idx=000051 GeodesicLength=1.171140240607991 rxn_smarts="[C:1]([O:2][C:3]([C:4]([C:5]#[N:6])([H:12])[H:13])([H:10])[H:11])([H:7])([H:8])[H:9]>>[C:1]([O:2][C:3]([N:6]=[C:5]=[C:4]([H:12])[H:13])([H:10])[H:11])([H:7])([H:8])[H:9]"
C        2.10272826       0.83416477      -0.48389196
O        1.42937047      -0.13296268       0.27810567
C        0.02241380      -0.14682898       0.19693216
C       -1.96133036      -1.19015754       0.39595718
C       -2.27201204       0.16034057       0.27265415
N       -1.66728003       1.16995773       0.11840893
H        1.93685651       0.64157480      -1.55197319
H        1.78046901       1.85638393      -0.26233283
H        3.16601657       0.74032256      -0.27125827
H       -0.03282936      -0.29151886       1.29276425
H       -0.04445563      -0.22800683      -0.90734378
H       -2.20818220      -1.60507238       1.36812208
H       -2.25176500      -1.80819707      -0.44614440
