16
Frame=0 idx=009588 GeodesicLength=0.0 rxn_smarts="[C:1]([C:2]1([C:3]([H:11])([H:12])[H:13])[N:4]([H:14])[C:5]([H:15])([H:16])[C:6]1=[O:7])([H:8])([H:9])[H:10]>>[C:1]([C:2]([C:3]([H:11])([H:12])[H:13])=[N:4][H:14])([H:8])([H:9])[H:10].[C:5](=[C:6]=[O:7])([H:15])[H:16]"
C        1.34398417      -0.76000168       0.05067603
C        0.24558628       0.23722685      -0.26574981
C        0.68599504       1.68410367      -0.17838154
N       -0.66178210      -0.02739966      -1.25839170
C       -1.73570756      -1.13763551       0.43565506
C       -1.18765602       0.12571538       0.66974539
O       -1.61420800       1.11354600       1.19794998
H        1.74649882      -0.58994947       1.04951348
H        2.16183446      -0.63734350      -0.66430826
H        1.00103940      -1.79344163      -0.00832962
H        1.56102743       1.83088160      -0.81559879
H        0.94750748       1.94069938       0.84804958
H       -0.11006580       2.34486996      -0.50978718
H       -0.59081028      -0.98336344      -1.59879707
H       -2.69493791      -1.38437282       0.88230780
H       -1.09830546      -1.96353506       0.16544662
16
Frame=1 idx=009588 GeodesicLength=0.12818271386272065 rxn_smarts="[C:1]([C:2]1([C:3]([H:11])([H:12])[H:13])[N:4]([H:14])[C:5]([H:15])([H:16])[C:6]1=[O:7])([H:8])([H:9])[H:10]>>[C:1]([C:2]([C:3]([H:11])([H:12])[H:13])=[N:4][H:14])([H:8])([H:9])[H:10].[C:5](=[C:6]=[O:7])([H:15])[H:16]"
C        1.36381403      -0.75291141       0.05475694
C        0.25908837       0.23835685      -0.25723901
C        0.68735010       1.68907483      -0.19003033
N       -0.64539244      -0.04156706      -1.24507367
C       -1.78468898      -1.13123940       0.41605261
C       -1.20846987       0.11385818       0.68014645
O       -1.58933434       1.08410764       1.27199014
H        1.77524210      -0.57235831       1.04820312
H        2.17757879      -0.62722072      -0.66443392
H        1.02840586      -1.78912926      -0.00198099
H        1.54512071       1.83981965      -0.84924446
H        0.97635980       1.95244144       0.82736312
H       -0.12142496       2.34044979      -0.50966332
H       -0.55517511      -0.99130951      -1.59823054
H       -2.75198529      -1.37681348       0.84520341
H       -1.15648875      -1.97555921       0.17218044
16
Frame=2 idx=009588 GeodesicLength=0.25627847452083496 rxn_smarts="[C:1]([C:2]1([C:3]([H:11])([H:12])[H:13])[N:4]([H:14])[C:5]([H:15])([H:16])[C:6]1=[O:7])([H:8])([H:9])[H:10]>>[C:1]([C:2]([C:3]([H:11])([H:12])[H:13])=[N:4][H:14])([H:8])([H:9])[H:10].[C:5](=[C:6]=[O:7])([H:15])[H:16]"
C        1.38554729      -0.74502978       0.05920134
C        0.27358413       0.23906924      -0.24856091
C        0.68788713       1.69383146      -0.20218021
N       -0.62834367      -0.05768312      -1.23054939
C       -1.83505244      -1.12258278       0.39544040
C       -1.22919558       0.10151666       0.69118212
O       -1.55985372       1.04733703       1.34922339
H        1.80585837      -0.55292234       1.04684709
H        2.19473261      -0.61595178      -0.66462379
H        1.05859157      -1.78428151       0.00551789
H        1.52706260       1.84867033      -0.88383287
H        1.00476184       1.96498696       0.80491744
H       -0.13440620       2.33474078      -0.50888727
H       -0.51916415      -1.00109411      -1.59526678
H       -2.81193264      -1.36386319       0.80446317
H       -1.22007715      -1.98674386       0.17710838
16
Frame=3 idx=009588 GeodesicLength=0.3842417781184294 rxn_smarts="[C:1]([C:2]1([C:3]([H:11])([H:12])[H:13])[N:4]([H:14])[C:5]([H:15])([H:16])[C:6]1=[O:7])([H:8])([H:9])[H:10]>>[C:1]([C:2]([C:3]([H:11])([H:12])[H:13])=[N:4][H:14])([H:8])([H:9])[H:10].[C:5](=[C:6]=[O:7])([H:15])[H:16]"
C        1.40940810      -0.73629112       0.06391898
C        0.28919227       0.23929777      -0.23969607
C        0.68750789       1.69827371      -0.21467327
N       -0.61056172      -0.07591767      -1.21462186
C       -1.88687965      -1.11119221       0.37378210
C       -1.24967267       0.08858048       0.70314364
O       -1.52615098       1.00240118       1.42834668
H        1.83863009      -0.53150711       1.04527112
H        2.21338695      -0.60344460      -0.66508691
H        1.09191432      -1.77883444       0.01415948
H        1.50684876       1.85733894      -0.91894482
H        1.03216838       1.97831051       0.78091093
H       -0.14895192       2.32755748      -0.50754817
H       -0.48280881      -1.01299704      -1.58961435
H       -2.87427784      -1.34488580       0.76102620
H       -1.28975320      -1.99669008       0.17962633
16
Frame=4 idx=009588 GeodesicLength=0.5120238103077918 rxn_smarts="[C:1]([C:2]1([C:3]([H:11])([H:12])[H:13])[N:4]([H:14])[C:5]([H:15])([H:16])[C:6]1=[O:7])([H:8])([H:9])[H:10]>>[C:1]([C:2]([C:3]([H:11])([H:12])[H:13])=[N:4][H:14])([H:8])([H:9])[H:10].[C:5](=[C:6]=[O:7])([H:15])[H:16]"
C        1.43570731      -0.72661663       0.06876905
C        0.30605552       0.23893810      -0.23054959
C        0.68609246       1.70226321      -0.22732330
N       -0.59201436      -0.09650499      -1.19692656
C       -1.94016474      -1.09660489       0.35119480
C       -1.26958093       0.07469359       0.71657880
O       -1.48895460       0.94876142       1.50785560
H        1.87401658      -0.50795051       1.04319440
H        2.23363614      -0.58957113      -0.66615960
H        1.12883940      -1.77271956       0.02388623
H        1.48444991       1.86570180      -0.95416998
H        1.05802195       1.99236894       0.75560193
H       -0.16504664       2.31864131      -0.50575804
H       -0.44617741      -1.02736232      -1.58083780
H       -2.93869324      -1.31908230       0.71552093
H       -1.36618734      -2.00495605       0.17912313
16
Frame=5 idx=009588 GeodesicLength=0.6395471643849873 rxn_smarts="[C:1]([C:2]1([C:3]([H:11])([H:12])[H:13])[N:4]([H:14])[C:5]([H:15])([H:16])[C:6]1=[O:7])([H:8])([H:9])[H:10]>>[C:1]([C:2]([C:3]([H:11])([H:12])[H:13])=[N:4][H:14])([H:8])([H:9])[H:10].[C:5](=[C:6]=[O:7])([H:15])[H:16]"
C        1.46481715      -0.71591450       0.07357573
C        0.32433786       0.23784806      -0.22097468
C        0.68348256       1.70561559      -0.23994447
N       -0.57265299      -0.11974918      -1.17699705
C       -1.99482076      -1.07833722       0.32785570
C       -1.28847104       0.05922120       0.73216969
O       -1.44934346       0.88618229       1.58633058
H        1.91259926      -0.48204648       1.04024332
H        2.25555441      -0.57421485      -0.66828488
H        1.16995546      -1.76585979       0.03462627
H        1.45980626       1.87359450      -0.98911960
H        1.08172862       2.00709615       0.72928050
H       -0.18276020       2.30762845      -0.50365359
H       -0.40931154      -1.04460687      -1.56840542
H       -3.00490025      -1.28546747       0.66835785
H       -1.45002136      -2.01098990       0.17494003
16
Frame=6 idx=009588 GeodesicLength=0.7668500570831233 rxn_smarts="[C:1]([C:2]1([C:3]([H:11])([H:12])[H:13])[N:4]([H:14])[C:5]([H:15])([H:16])[C:6]1=[O:7])([H:8])([H:9])[H:10]>>[C:1]([C:2]([C:3]([H:11])([H:12])[H:13])=[N:4][H:14])([H:8])([H:9])[H:10].[C:5](=[C:6]=[O:7])([H:15])[H:16]"
C        1.49713141      -0.70400808       0.07831204
C        0.34420448       0.23583782      -0.21088637
C        0.67937474       1.70810500      -0.25249658
N       -0.55228120      -0.14614822      -1.15446706
C       -2.05088080      -1.05569763       0.30368602
C       -1.30601133       0.04135012       0.75033787
O       -1.40757748       0.81393442       1.66326206
H        1.95477740      -0.45337484       1.03623158
H        2.27933468      -0.55713754      -0.67161819
H        1.21595843      -1.75809703       0.04651299
H        1.43253141       1.88082929      -1.02375526
H        1.10279197       2.02246744       0.70199260
H       -0.20245610       2.29400819      -0.50126902
H       -0.37204018      -1.06540735      -1.55171920
H       -3.07264937      -1.24270159       0.61990846
H       -1.54220807      -2.01395999       0.16596805
16
Frame=7 idx=009588 GeodesicLength=0.8938851407916667 rxn_smarts="[C:1]([C:2]1([C:3]([H:11])([H:12])[H:13])[N:4]([H:14])[C:5]([H:15])([H:16])[C:6]1=[O:7])([H:8])([H:9])[H:10]>>[C:1]([C:2]([C:3]([H:11])([H:12])[H:13])=[N:4][H:14])([H:8])([H:9])[H:10].[C:5](=[C:6]=[O:7])([H:15])[H:16]"
C        1.53309130      -0.69068442       0.08291034
C        0.36582179       0.23265670      -0.20017345
C        0.67336628       1.70941314      -0.26491906
N       -0.53063741      -0.17634153      -1.12889873
C       -2.10822629      -1.02782768       0.27865402
C       -1.32180977       0.01997544       0.77153773
O       -1.36413890       0.73130418       1.73810470
H        2.00099330      -0.42144669       1.03088890
H        2.30514413      -0.53806012      -0.67640051
H        1.26770276      -1.74923310       0.05962635
H        1.40212532       1.88713791      -1.05801113
H        1.12057233       2.03840705       0.67380779
H       -0.22462301       2.27709625      -0.49860307
H       -0.33414738      -1.09064306      -1.52998212
H       -3.14154042      -1.18908116       0.57049575
H       -1.64369403      -2.01267290       0.15096251
16
Frame=8 idx=009588 GeodesicLength=1.0205783665599868 rxn_smarts="[C:1]([C:2]1([C:3]([H:11])([H:12])[H:13])[N:4]([H:14])[C:5]([H:15])([H:16])[C:6]1=[O:7])([H:8])([H:9])[H:10]>>[C:1]([C:2]([C:3]([H:11])([H:12])[H:13])=[N:4][H:14])([H:8])([H:9])[H:10].[C:5](=[C:6]=[O:7])([H:15])[H:16]"
C        1.57312766      -0.67566242       0.08731902
C        0.38932161       0.22798670      -0.18876113
C        0.66490091       1.70910828      -0.27719364
N       -0.50736248      -0.21115185      -1.09986873
C       -2.16657255      -0.99358823       0.25267882
C       -1.33557110      -0.00623123       0.79604419
O       -1.31931776       0.63716866       1.81053636
H        2.05154547      -0.38564112       1.02396468
H        2.33313746      -0.51663030      -0.68281692
H        1.32615980      -1.73898538       0.07406717
H        1.36790000       1.89213744      -1.09187578
H        1.13423976       2.05478620       0.64474119
H       -0.24993737       2.25599353      -0.49562058
H       -0.29531260      -1.12147759      -1.50217629
H       -3.21087166      -1.12248002       0.52052246
H       -1.75538714      -2.00533267       0.12843917
16
Frame=9 idx=009588 GeodesicLength=1.146828361219564 rxn_smarts="[C:1]([C:2]1([C:3]([H:11])([H:12])[H:13])[N:4]([H:14])[C:5]([H:15])([H:16])[C:6]1=[O:7])([H:8])([H:9])[H:10]>>[C:1]([C:2]([C:3]([H:11])([H:12])[H:13])=[N:4][H:14])([H:8])([H:9])[H:10].[C:5](=[C:6]=[O:7])([H:15])[H:16]"
C        1.61750933      -0.65861404       0.09151581
C        0.41472940       0.22148079      -0.17661098
C        0.65330191       1.70663396      -0.28936281
N       -0.48203706      -0.25145921      -1.06700492
C       -2.22524415      -0.95150974       0.22569045
C       -1.34729206      -0.03854466       0.82379678
O       -1.27339419       0.52969834       1.88034409
H        2.10644045      -0.34524026       1.01523265
H        2.36329692      -0.49255297      -0.69100510
H        1.39220840      -1.72697226       0.09000623
H        1.32904989       1.89525124      -1.12538413
H        1.14274775       2.07138543       0.61476535
H       -0.27915310       2.22961896      -0.49235607
H       -0.25517410      -1.15925657      -1.46704241
H       -3.27930875      -1.04065541       0.47065188
H       -1.87768063      -1.98926360       0.09676316
16
Frame=10 idx=009588 GeodesicLength=1.2726127967286094 rxn_smarts="[C:1]([C:2]1([C:3]([H:11])([H:12])[H:13])[N:4]([H:14])[C:5]([H:15])([H:16])[C:6]1=[O:7])([H:8])([H:9])[H:10]>>[C:1]([C:2]([C:3]([H:11])([H:12])[H:13])=[N:4][H:14])([H:8])([H:9])[H:10].[C:5](=[C:6]=[O:7])([H:15])[H:16]"
C        1.66624353      -0.63917570       0.09548857
C        0.44190946       0.21276533      -0.16382055
C        0.63779489       1.70129647      -0.30148526
N       -0.45431538      -0.29817167      -1.02999013
C       -2.28306593      -0.90001794       0.19779620
C       -1.35730518      -0.07834246       0.85439988
O       -1.22655913       0.40681471       1.94672090
H        2.16514479      -0.29953659       1.00458254
H        2.39548226      -0.46544978      -0.70090010
H        1.46655032      -1.71270026       0.10749297
H        1.28467282       1.89570596      -1.15857762
H        1.14487391       2.08781604       0.58386459
H       -0.31303202       2.19679527      -0.48878263
H       -0.21336635      -1.20539856      -1.42311039
H       -3.34475458      -0.94142035       0.42204694
H       -2.01027340      -1.96098047       0.05427409
16
Frame=11 idx=009588 GeodesicLength=1.3978823549344686 rxn_smarts="[C:1]([C:2]1([C:3]([H:11])([H:12])[H:13])[N:4]([H:14])[C:5]([H:15])([H:16])[C:6]1=[O:7])([H:8])([H:9])[H:10]>>[C:1]([C:2]([C:3]([H:11])([H:12])[H:13])=[N:4][H:14])([H:8])([H:9])[H:10].[C:5](=[C:6]=[O:7])([H:15])[H:16]"
C        1.71838915      -0.61726223       0.09920610
C        0.47029936       0.20178118      -0.15043060
C        0.61806696       1.69250367      -0.31362883
N       -0.42428471      -0.35122240      -0.98866575
C       -2.33775607      -0.83830197       0.16975279
C       -1.36691853      -0.12569930       0.88685983
O       -1.18058928       0.26725857       2.00807151
H        2.22621482      -0.24849332       0.99196435
H        2.42870575      -0.43558805      -0.71242623
H        1.54854679      -1.69579223       0.12621318
H        1.23458349       1.89242680      -1.19139978
H        1.13984234       2.10349503       0.55213222
H       -0.35148124       2.15692777      -0.48521639
H       -0.16998587      -1.26012345      -1.36939828
H       -3.40386532      -0.82515266       0.37646735
H       -2.14976764      -1.91675742       0.00049855
16
Frame=12 idx=009588 GeodesicLength=1.523037634128924 rxn_smarts="[C:1]([C:2]1([C:3]([H:11])([H:12])[H:13])[N:4]([H:14])[C:5]([H:15])([H:16])[C:6]1=[O:7])([H:8])([H:9])[H:10]>>[C:1]([C:2]([C:3]([H:11])([H:12])[H:13])=[N:4][H:14])([H:8])([H:9])[H:10].[C:5](=[C:6]=[O:7])([H:15])[H:16]"
C        1.77223923      -0.59305142       0.10263537
C        0.49904692       0.18884567      -0.13677404
C        0.59433738       1.67999166      -0.32589362
N       -0.39259694      -0.40958120      -0.94320649
C       -2.38671065      -0.76697319       0.14274855
C       -1.37797855      -0.17993040       0.91978745
O       -1.13754829       0.11140375       2.06166622
H        2.28737281      -0.19270725       0.97753545
H        2.46165298      -0.40366644      -0.72516583
H        1.63620445      -1.67598570       0.14572617
H        1.17936615       1.88445446      -1.22375788
H        1.12765444       2.11774737       0.51969250
H       -0.39367914       2.11035039      -0.48178739
H       -0.12542543      -1.32218009      -1.30591333
H       -3.45320080      -0.69461032       0.33587431
H       -2.29073456      -1.85410730      -0.06316742
16
Frame=13 idx=009588 GeodesicLength=1.6483756138887686 rxn_smarts="[C:1]([C:2]1([C:3]([H:11])([H:12])[H:13])[N:4]([H:14])[C:5]([H:15])([H:16])[C:6]1=[O:7])([H:8])([H:9])[H:10]>>[C:1]([C:2]([C:3]([H:11])([H:12])[H:13])=[N:4][H:14])([H:8])([H:9])[H:10].[C:5](=[C:6]=[O:7])([H:15])[H:16]"
C        1.82500387      -0.56739561       0.10586452
C        0.52697042       0.17506500      -0.12273830
C        0.56808968       1.66431352      -0.33842690
N       -0.36061661      -0.47017000      -0.89386023
C       -2.42722763      -0.68903322       0.11885205
C       -1.39301654      -0.23753815       0.95188738
O       -1.10137973      -0.05777570       2.10477860
H        2.34583528      -0.13417325       0.96158582
H        2.49203265      -0.37151229      -0.73866235
H        1.72540489      -1.65366322       0.16500517
H        1.12102299       1.87103109      -1.25568999
H        1.11021153       2.13028035       0.48641198
H       -0.43713937       2.05918102      -0.47913391
H       -0.08079511      -1.38747250      -1.23456001
H       -3.49007522      -0.55749018       0.30189959
H       -2.42432109      -1.77364685      -0.13321342
16
Frame=14 idx=009588 GeodesicLength=1.7746466362543765 rxn_smarts="[C:1]([C:2]1([C:3]([H:11])([H:12])[H:13])[N:4]([H:14])[C:5]([H:15])([H:16])[C:6]1=[O:7])([H:8])([H:9])[H:10]>>[C:1]([C:2]([C:3]([H:11])([H:12])[H:13])=[N:4][H:14])([H:8])([H:9])[H:10].[C:5](=[C:6]=[O:7])([H:15])[H:16]"
C        1.87473594      -0.54098783       0.10908742
C        0.55339518       0.16151389      -0.10892031
C        0.54073226       1.64639926      -0.35147646
N       -0.32953727      -0.53026410      -0.84142262
C       -2.45849739      -0.60801135       0.09947705
C       -1.41317088      -0.29689985       0.98237684
O       -1.07357983      -0.23637756       2.13452582
H        2.39955962      -0.07449484       0.94469071
H        2.51895197      -0.34047205      -0.75195750
H        1.81261539      -1.62918503       0.18399986
H        1.06137269       1.85236145      -1.28738198
H        1.08982150       2.14109528       0.45191540
H       -0.47996790       2.00582826      -0.47686694
H       -0.03676337      -1.45217926      -1.15800222
H       -3.51428022      -0.41990431       0.27539446
H       -2.54538769      -1.67842195      -0.20543954
16
Frame=15 idx=009588 GeodesicLength=1.902141503052676 rxn_smarts="[C:1]([C:2]1([C:3]([H:11])([H:12])[H:13])[N:4]([H:14])[C:5]([H:15])([H:16])[C:6]1=[O:7])([H:8])([H:9])[H:10]>>[C:1]([C:2]([C:3]([H:11])([H:12])[H:13])=[N:4][H:14])([H:8])([H:9])[H:10].[C:5](=[C:6]=[O:7])([H:15])[H:16]"
C        1.92021345      -0.51461422       0.11249339
C        0.57796758       0.14929450      -0.09502717
C        0.51391298       1.62738767      -0.36524163
N       -0.30018827      -0.58716604      -0.78619177
C       -2.48092540      -0.52727594       0.08606458
C       -1.43918442      -0.35531090       1.01136976
O       -1.05660157      -0.42043848       2.14974561
H        2.44782041      -0.01539747       0.92721145
H        2.54168204      -0.31183189      -0.76467755
H        1.89520548      -1.60330445       0.20200533
H        1.00230297       1.82871689      -1.31912704
H        1.06912764       2.15078072       0.41560485
H       -0.52018702       1.95273201      -0.47520056
H        0.00600029      -1.51267089      -1.07888456
H       -3.52756632      -0.28837073       0.25665734
H       -2.64957985      -1.57253077      -0.27680204
16
Frame=16 idx=009588 GeodesicLength=2.031110472800627 rxn_smarts="[C:1]([C:2]1([C:3]([H:11])([H:12])[H:13])[N:4]([H:14])[C:5]([H:15])([H:16])[C:6]1=[O:7])([H:8])([H:9])[H:10]>>[C:1]([C:2]([C:3]([H:11])([H:12])[H:13])=[N:4][H:14])([H:8])([H:9])[H:10].[C:5](=[C:6]=[O:7])([H:15])[H:16]"
C        1.96142667      -0.48852611       0.11624894
C        0.60080797       0.13874474      -0.08144688
C        0.48809058       1.60788137      -0.37975641
N       -0.27256342      -0.63992179      -0.72897381
C       -2.49550915      -0.44901581       0.07902824
C       -1.47035462      -0.41417225       1.03886939
O       -1.05046557      -0.60606762       2.14966454
H        2.49068671       0.04259513       0.90948212
H        2.56079472      -0.28574809      -0.77628827
H        1.97245932      -1.57635841       0.21926110
H        0.94419670       1.80080054      -1.35096627
H        1.04934740       2.15961150       0.37706444
H       -0.55750809       1.90091410      -0.47333012
H        0.04770446      -1.56762411      -0.99909394
H       -3.53153780      -0.16371023       0.24491886
H       -2.73757588      -1.45940296      -0.34468194
