19
Frame=0 idx=011865 GeodesicLength=0.0 rxn_smarts="[C:1]([C:2]([C@@:3]1([H:13])[C:4]([H:14])([H:15])[C@:5]1([C:6]([H:16])([H:17])[H:18])[O:7][H:19])([H:11])[H:12])([H:8])([H:9])[H:10]>>[C:1]([C:2]([C:3]([C:4]([C:6]([H:16])([H:17])[H:18])([H:14])[H:15])([C:5][O:7][H:19])[H:13])([H:11])[H:12])([H:8])([H:9])[H:10]"
C        2.45784640       0.09652553       0.78665472
C        1.47547972      -0.52954647      -0.19233362
C        0.33243364       0.40215359      -0.53716030
C       -0.83474500      -0.16584624      -1.20933979
C       -0.70194809       0.59417697       0.54317667
C       -2.06741306      -0.67152651       0.20407429
O       -1.25828659       1.83985701       0.39470216
H        3.25655709      -0.59869183       1.04996205
H        1.94388142       0.38956989       1.70401841
H        2.91941739       0.99073390       0.36046481
H        1.05958462      -1.44608953       0.23758683
H        1.98950500      -0.82190244      -1.11443492
H        0.65318258       1.36093732      -0.93932873
H       -0.78002901      -1.19668332      -1.53863332
H       -1.41667057       0.49712957      -1.83489954
H       -2.77010159      -0.91053438      -0.60676655
H       -2.68431050      -0.19312361       0.96538758
H       -1.68020861      -1.59615465       0.62225170
H       -1.89417488       1.95901526       1.10461747
19
Frame=1 idx=011865 GeodesicLength=0.0551661349035118 rxn_smarts="[C:1]([C:2]([C@@:3]1([H:13])[C:4]([H:14])([H:15])[C@:5]1([C:6]([H:16])([H:17])[H:18])[O:7][H:19])([H:11])[H:12])([H:8])([H:9])[H:10]>>[C:1]([C:2]([C:3]([C:4]([C:6]([H:16])([H:17])[H:18])([H:14])[H:15])([C:5][O:7][H:19])[H:13])([H:11])[H:12])([H:8])([H:9])[H:10]"
C        2.44859657       0.09525621       0.79229614
C        1.46592852      -0.53152026      -0.18634963
C        0.33101780       0.40543807      -0.54397603
C       -0.84215462      -0.15922371      -1.21586507
C       -0.70715136       0.61080138       0.52769152
C       -2.05549769      -0.68601215       0.20610834
O       -1.25404286       1.85952737       0.38697894
H        3.24416803      -0.60181820       1.06034508
H        1.93391118       0.39351598       1.70776136
H        2.91434326       0.98619296       0.36382875
H        1.04505615      -1.44354132       0.24798182
H        1.98159488      -0.83333247      -1.10449164
H        0.65943027       1.35953946      -0.95140944
H       -0.77844145      -1.18320239      -1.56482864
H       -1.42160902       0.50573153      -1.84223089
H       -2.77899631      -0.92037696      -0.58715170
H       -2.65955472      -0.22809565       0.99038439
H       -1.65122179      -1.61275836       0.60392547
H       -1.87537685       1.98387851       1.10900122
19
Frame=2 idx=011865 GeodesicLength=0.11036924422436771 rxn_smarts="[C:1]([C:2]([C@@:3]1([H:13])[C:4]([H:14])([H:15])[C@:5]1([C:6]([H:16])([H:17])[H:18])[O:7][H:19])([H:11])[H:12])([H:8])([H:9])[H:10]>>[C:1]([C:2]([C:3]([C:4]([C:6]([H:16])([H:17])[H:18])([H:14])[H:15])([C:5][O:7][H:19])[H:13])([H:11])[H:12])([H:8])([H:9])[H:10]"
C        2.43849900       0.09421440       0.79807663
C        1.45590331      -0.53338366      -0.18030109
C        0.32923039       0.40848595      -0.55078551
C       -0.84969573      -0.15290404      -1.22248017
C       -0.71280586       0.62709734       0.51176732
C       -2.04313014      -0.70066700       0.20783272
O       -1.24919517       1.87924897       0.37909337
H        3.23094892      -0.60452645       1.07091040
H        1.92295532       0.39747413       1.71146737
H        2.90825741       0.98199081       0.36750862
H        1.03032300      -1.44099939       0.25825979
H        1.97324835      -0.84443120      -1.09428413
H        0.66529541       1.35775045      -0.96357126
H       -0.77691215      -1.16960317      -1.59079842
H       -1.42641628       0.51412385      -1.84969914
H       -2.78748232      -0.93044657      -0.56666117
H       -2.63258080      -0.26366094       1.01508747
H       -1.62256152      -1.62942847       0.58448451
H       -1.85388114       2.00966498       1.11409271
19
Frame=3 idx=011865 GeodesicLength=0.16579626062984174 rxn_smarts="[C:1]([C:2]([C@@:3]1([H:13])[C:4]([H:14])([H:15])[C@:5]1([C:6]([H:16])([H:17])[H:18])[O:7][H:19])([H:11])[H:12])([H:8])([H:9])[H:10]>>[C:1]([C:2]([C:3]([C:4]([C:6]([H:16])([H:17])[H:18])([H:14])[H:15])([C:5][O:7][H:19])[H:13])([H:11])[H:12])([H:8])([H:9])[H:10]"
C        2.42792926       0.09345392       0.80410183
C        1.44560471      -0.53514984      -0.17419723
C        0.32708947       0.41127541      -0.55761366
C       -0.85751544      -0.14694657      -1.22935289
C       -0.71906823       0.64308208       0.49551532
C       -2.03064818      -0.71548994       0.20922675
O       -1.24393264       1.89902843       0.37116972
H        3.21740072      -0.60676020       1.08177708
H        1.91133028       0.40157962       1.71537748
H        2.90160778       0.97814484       0.37153447
H        1.01553627      -1.43845995       0.26847148
H        1.96473032      -0.85527408      -1.08396306
H        0.67083611       1.35553309      -0.97586192
H       -0.77553268      -1.15597489      -1.61678159
H       -1.43132610       0.52222416      -1.85754610
H       -2.79591552      -0.94082869      -0.54539869
H       -2.60382791      -0.29973257       1.03941163
H       -1.59455393      -1.64614136       0.56399255
H       -1.82974430       2.03643652       1.12013683
19
Frame=4 idx=011865 GeodesicLength=0.22142043270951114 rxn_smarts="[C:1]([C:2]([C@@:3]1([H:13])[C:4]([H:14])([H:15])[C@:5]1([C:6]([H:16])([H:17])[H:18])[O:7][H:19])([H:11])[H:12])([H:8])([H:9])[H:10]>>[C:1]([C:2]([C:3]([C:4]([C:6]([H:16])([H:17])[H:18])([H:14])[H:15])([C:5][O:7][H:19])[H:13])([H:11])[H:12])([H:8])([H:9])[H:10]"
C        2.41674941       0.09299018       0.81034953
C        1.43494975      -0.53680531      -0.16801283
C        0.32454840       0.41381572      -0.56443064
C       -0.86559223      -0.14134232      -1.23644056
C       -0.72595300       0.65873950       0.47890685
C       -2.01797910      -0.73050512       0.21027365
O       -1.23822204       1.91883171       0.36319366
H        3.20335689      -0.60850249       1.09292682
H        1.89891076       0.40584016       1.71942646
H        2.89423180       0.97467649       0.37588352
H        1.00064696      -1.43592529       0.27864049
H        1.95594670      -0.86583186      -1.07346439
H        0.67598453       1.35290437      -0.98823606
H       -0.77425372      -1.14230189      -1.64271414
H       -1.43628858       0.53004857      -1.86571533
H       -2.80416582      -0.95150922      -0.52329283
H       -2.57310295      -0.33633307       1.06325085
H       -1.56717414      -1.66294561       0.54238797
H       -1.80259363       2.06415548       1.12706698
19
Frame=5 idx=011865 GeodesicLength=0.27727054976888216 rxn_smarts="[C:1]([C:2]([C@@:3]1([H:13])[C:4]([H:14])([H:15])[C@:5]1([C:6]([H:16])([H:17])[H:18])[O:7][H:19])([H:11])[H:12])([H:8])([H:9])[H:10]>>[C:1]([C:2]([C:3]([C:4]([C:6]([H:16])([H:17])[H:18])([H:14])[H:15])([C:5][O:7][H:19])[H:13])([H:11])[H:12])([H:8])([H:9])[H:10]"
C        2.40492297       0.09285454       0.81682886
C        1.42390996      -0.53833715      -0.16172964
C        0.32157381       0.41611021      -0.57121963
C       -0.87394286      -0.13610063      -1.24374539
C       -0.73350375       0.67406176       0.46193925
C       -2.00514000      -0.74573394       0.21095413
O       -1.23207762       1.93862357       0.35518525
H        3.18878248      -0.60971522       1.10437498
H        1.88565553       0.41029321       1.72361605
H        2.88609197       0.97161653       0.38055638
H        0.98563697      -1.43339090       0.28879211
H        1.94687685      -0.87608971      -1.06276618
H        0.68070388       1.34986993      -1.00066552
H       -0.77306599      -1.12859212      -1.66859590
H       -1.44131351       0.53758413      -1.87421119
H       -2.81221773      -0.96248933      -0.50029882
H       -2.54033222      -0.37346408       1.08650684
H       -1.54047613      -1.67987294       0.51961992
H       -1.77208460       2.09277214       1.13485849
19
Frame=6 idx=011865 GeodesicLength=0.33338822941390883 rxn_smarts="[C:1]([C:2]([C@@:3]1([H:13])[C:4]([H:14])([H:15])[C@:5]1([C:6]([H:16])([H:17])[H:18])[O:7][H:19])([H:11])[H:12])([H:8])([H:9])[H:10]>>[C:1]([C:2]([C:3]([C:4]([C:6]([H:16])([H:17])[H:18])([H:14])[H:15])([C:5][O:7][H:19])[H:13])([H:11])[H:12])([H:8])([H:9])[H:10]"
C        2.39242261       0.09307761       0.82355614
C        1.41246255      -0.53973501      -0.15532723
C        0.31812941       0.41816467      -0.57796805
C       -0.88259031      -0.13122802      -1.25127969
C       -0.74177322       0.68904712       0.44461467
C       -1.99215156      -0.76119764       0.21125186
O       -1.22553946       1.95837068       0.34717430
H        3.17365739      -0.61036397       1.11615105
H        1.87152947       0.41498418       1.72796037
H        2.87716004       0.96899199       0.38555304
H        0.97049555      -1.43085323       0.29896092
H        1.93750977      -0.88604148      -1.05185002
H        0.68495044       1.34644045      -1.01312832
H       -0.77196131      -1.11485003      -1.69444208
H       -1.44642503       0.54482250      -1.88305205
H       -2.82006527      -0.97375871      -0.47636606
H       -2.50543985      -0.41112336       1.10908760
H       -1.51451064      -1.69695825       0.49563616
H       -1.73786056       2.12221050       1.14346740
19
Frame=7 idx=011865 GeodesicLength=0.3898481298876057 rxn_smarts="[C:1]([C:2]([C@@:3]1([H:13])[C:4]([H:14])([H:15])[C@:5]1([C:6]([H:16])([H:17])[H:18])[O:7][H:19])([H:11])[H:12])([H:8])([H:9])[H:10]>>[C:1]([C:2]([C:3]([C:4]([C:6]([H:16])([H:17])[H:18])([H:14])[H:15])([C:5][O:7][H:19])[H:13])([H:11])[H:12])([H:8])([H:9])[H:10]"
C        2.37930007       0.09368261       0.83059033
C        1.40064072      -0.54099100      -0.14878993
C        0.31417884       0.41998343      -0.58469587
C       -0.89160114      -0.12672916      -1.25911068
C       -0.75086034       0.70370247       0.42693961
C       -1.97909460      -0.77690608       0.21116126
O       -1.21873957       1.97803966       0.33919553
H        3.15807580      -0.61042590       1.12835121
H        1.85654451       0.41995575       1.73254512
H        2.86749912       0.96681748       0.39090396
H        0.95526178      -1.42830914       0.30918971
H        1.92792368      -0.89568512      -1.04073109
H        0.68868097       1.34262152      -1.02565182
H       -0.77095556      -1.10107668      -1.72034217
H       -1.45172635       0.55175525      -1.89233489
H       -2.82780535      -0.98530959      -0.45142985
H       -2.46838915      -0.44929710       1.13096155
H       -1.48934682      -1.71421325       0.47038773
H       -1.69958659       2.15238486       1.15286029
19
Frame=8 idx=011865 GeodesicLength=0.44646923392143795 rxn_smarts="[C:1]([C:2]([C@@:3]1([H:13])[C:4]([H:14])([H:15])[C@:5]1([C:6]([H:16])([H:17])[H:18])[O:7][H:19])([H:11])[H:12])([H:8])([H:9])[H:10]>>[C:1]([C:2]([C:3]([C:4]([C:6]([H:16])([H:17])[H:18])([H:14])[H:15])([C:5][O:7][H:19])[H:13])([H:11])[H:12])([H:8])([H:9])[H:10]"
C        2.36543255       0.09457406       0.83776275
C        1.38828280      -0.54211112      -0.14210168
C        0.30974329       0.42163229      -0.59116614
C       -0.90086635      -0.12246072      -1.26695880
C       -0.76057342       0.71805550       0.40905631
C       -1.96575213      -0.79283204       0.21076269
O       -1.21111722       1.99769509       0.33145982
H        3.14189091      -0.60999899       1.14048290
H        1.84077190       0.42492968       1.73722649
H        2.85688812       0.96508564       0.39655135
H        0.93978378      -1.42578153       0.31942831
H        1.91777443      -0.90498230      -1.02937004
H        0.69197233       1.33845976      -1.03794511
H       -0.76998509      -1.08708330      -1.74603798
H       -1.45705510       0.55858915      -1.90160704
H       -2.83483098      -0.99746957      -0.42541222
H       -2.42929332      -0.48770631       1.15164996
H       -1.46486765      -1.73148499       0.44422140
H       -1.65819886       2.18288970       1.16199703
19
Frame=9 idx=011865 GeodesicLength=0.5037294814712657 rxn_smarts="[C:1]([C:2]([C@@:3]1([H:13])[C:4]([H:14])([H:15])[C@:5]1([C:6]([H:16])([H:17])[H:18])[O:7][H:19])([H:11])[H:12])([H:8])([H:9])[H:10]>>[C:1]([C:2]([C:3]([C:4]([C:6]([H:16])([H:17])[H:18])([H:14])[H:15])([C:5][O:7][H:19])[H:13])([H:11])[H:12])([H:8])([H:9])[H:10]"
C        2.35056150       0.09604418       0.84527002
C        1.37529918      -0.54297828      -0.13521533
C        0.30468057       0.42305978      -0.59761272
C       -0.91052198      -0.11863210      -1.27506573
C       -0.77116670       0.73203663       0.39069770
C       -1.95226352      -0.80911908       0.20984964
O       -1.20330924       2.01703290       0.32377533
H        3.12466184      -0.60876089       1.15329904
H        1.82371189       0.43053313       1.74197125
H        2.84528404       0.96390754       0.40256547
H        0.92395920      -1.42314733       0.32974131
H        1.90719648      -0.91385008      -1.01760134
H        0.69461597       1.33394989      -1.05018343
H       -0.76914962      -1.07307945      -1.77170165
H       -1.46249848       0.56498222      -1.91125256
H       -2.84168116      -1.00975753      -0.39814916
H       -2.38734662      -0.52690781       1.17143241
H       -1.44130413      -1.74907948       0.41631916
H       -1.61072923       2.21376574       1.17186059
19
Frame=10 idx=011865 GeodesicLength=0.5614872170916988 rxn_smarts="[C:1]([C:2]([C@@:3]1([H:13])[C:4]([H:14])([H:15])[C@:5]1([C:6]([H:16])([H:17])[H:18])[O:7][H:19])([H:11])[H:12])([H:8])([H:9])[H:10]>>[C:1]([C:2]([C:3]([C:4]([C:6]([H:16])([H:17])[H:18])([H:14])[H:15])([C:5][O:7][H:19])[H:13])([H:11])[H:12])([H:8])([H:9])[H:10]"
C        2.33499582       0.09787761       0.85310538
C        1.36184588      -0.54368770      -0.12814795
C        0.29902994       0.42433201      -0.60392918
C       -0.92060712      -0.11505685      -1.28340613
C       -0.78263752       0.74576170       0.37209660
C       -1.93864326      -0.82564255       0.20860582
O       -1.19516984       2.03626271       0.31640350
H        3.10690345      -0.60698683       1.16651110
H        1.80575009       0.43638635       1.74699819
H        2.83287181       0.96317009       0.40895540
H        0.90797789      -1.42052432       0.34015954
H        1.89628582      -0.92237643      -1.00561271
H        0.69667035       1.32914040      -1.06233088
H       -0.76842133      -1.05887186      -1.79741495
H       -1.46823048       0.57122800      -1.92121435
H       -2.84812049      -1.02244436      -0.36956488
H       -2.34298989      -0.56644513       1.19011892
H       -1.41854485      -1.76676504       0.38721678
H       -1.55896628       2.24464221       1.18144979
19
Frame=11 idx=011865 GeodesicLength=0.6198584236558479 rxn_smarts="[C:1]([C:2]([C@@:3]1([H:13])[C:4]([H:14])([H:15])[C@:5]1([C:6]([H:16])([H:17])[H:18])[O:7][H:19])([H:11])[H:12])([H:8])([H:9])[H:10]>>[C:1]([C:2]([C:3]([C:4]([C:6]([H:16])([H:17])[H:18])([H:14])[H:15])([C:5][O:7][H:19])[H:13])([H:11])[H:12])([H:8])([H:9])[H:10]"
C        2.31862852       0.10008531       0.86124569
C        1.34782827      -0.54421379      -0.12088049
C        0.29277680       0.42547876      -0.61005510
C       -0.93110958      -0.11169543      -1.29189470
C       -0.79494156       0.75924844       0.35327606
C       -1.92482449      -0.84239314       0.20703580
O       -1.18658248       2.05532343       0.30942961
H        3.08844796      -0.60466537       1.18007705
H        1.78681053       0.44249012       1.75224631
H        2.81956327       0.96288431       0.41572707
H        0.89173655      -1.41789808       0.35066986
H        1.88492014      -0.93051575      -0.99335265
H        0.69814110       1.32406448      -1.07428187
H       -0.76781798      -1.04438877      -1.82308846
H       -1.47419357       0.57736799      -1.93135908
H       -2.85398079      -1.03553524      -0.33949994
H       -2.29599760      -0.60627165       1.20753484
H       -1.39660411      -1.78449725       0.35687325
H       -1.50280097       2.27513164       1.19029676
19
Frame=12 idx=011865 GeodesicLength=0.6789583410028356 rxn_smarts="[C:1]([C:2]([C@@:3]1([H:13])[C:4]([H:14])([H:15])[C@:5]1([C:6]([H:16])([H:17])[H:18])[O:7][H:19])([H:11])[H:12])([H:8])([H:9])[H:10]>>[C:1]([C:2]([C:3]([C:4]([C:6]([H:16])([H:17])[H:18])([H:14])[H:15])([C:5][O:7][H:19])[H:13])([H:11])[H:12])([H:8])([H:9])[H:10]"
C        2.30145810       0.10265009       0.86969533
C        1.33322430      -0.54455196      -0.11340158
C        0.28591483       0.42652718      -0.61595460
C       -0.94204613      -0.10850252      -1.30049466
C       -0.80805926       0.77253398       0.33428048
C       -1.91079267      -0.85932430       0.20515853
O       -1.17752158       2.07417140       0.30295894
H        3.06928435      -0.60182399       1.19398578
H        1.76690826       0.44882443       1.75772459
H        2.80536589       0.96303039       0.42289380
H        0.87521179      -1.41526923       0.36127488
H        1.87306649      -0.93825631      -0.98081724
H        0.69902984       1.31875015      -1.08597713
H       -0.76736829      -1.02956471      -1.84868879
H       -1.48040058       0.58345351      -1.94163194
H       -2.85914217      -1.04903380      -0.30782142
H       -2.24626673      -0.64625705       1.22351393
H       -1.37549801      -1.80218202       0.32532639
H       -1.44236843       2.30482476       1.19797471
19
Frame=13 idx=011865 GeodesicLength=0.7389250955639418 rxn_smarts="[C:1]([C:2]([C@@:3]1([H:13])[C:4]([H:14])([H:15])[C@:5]1([C:6]([H:16])([H:17])[H:18])[O:7][H:19])([H:11])[H:12])([H:8])([H:9])[H:10]>>[C:1]([C:2]([C:3]([C:4]([C:6]([H:16])([H:17])[H:18])([H:14])[H:15])([C:5][O:7][H:19])[H:13])([H:11])[H:12])([H:8])([H:9])[H:10]"
C        2.28347964       0.10553666       0.87844378
C        1.31801240      -0.54470230      -0.10570720
C        0.27845353       0.42750943      -0.62159017
C       -0.95341269      -0.10542100      -1.30915360
C       -0.82193993       0.78565956       0.31515946
C       -1.89652474      -0.87637038       0.20300730
O       -1.16794294       2.09276186       0.29709213
H        3.04938976      -0.59851387       1.20819973
H        1.74606070       0.45533845       1.76342872
H        2.79028343       0.96357766       0.43045807
H        0.85837670      -1.41264779       0.37196692
H        1.86068706      -0.94558313      -0.96801025
H        0.69935823       1.31323345      -1.09735706
H       -0.76708965      -1.01432450      -1.87415479
H       -1.48683221       0.58955145      -1.95196315
H       -2.86343664      -1.06295572      -0.27438724
H       -2.19372168      -0.68623992       1.23787083
H       -1.35523081      -1.81969487       0.29266590
H       -1.37797016       2.33328497       1.20403064
19
Frame=14 idx=011865 GeodesicLength=0.7999270882777666 rxn_smarts="[C:1]([C:2]([C@@:3]1([H:13])[C:4]([H:14])([H:15])[C@:5]1([C:6]([H:16])([H:17])[H:18])[O:7][H:19])([H:11])[H:12])([H:8])([H:9])[H:10]>>[C:1]([C:2]([C:3]([C:4]([C:6]([H:16])([H:17])[H:18])([H:14])[H:15])([C:5][O:7][H:19])[H:13])([H:11])[H:12])([H:8])([H:9])[H:10]"
C        2.26473320       0.10870208       0.88750230
C        1.30220849      -0.54467856      -0.09780180
C        0.27040734       0.42844798      -0.62694968
C       -0.96522322      -0.10240789      -1.31785089
C       -0.83654016       0.79867868       0.29596068
C       -1.88202217      -0.89344916       0.20061278
O       -1.15786916       2.11105101       0.29191820
H        3.02881059      -0.59479642       1.22271426
H        1.72431646       0.46198086       1.76939276
H        2.77435717       0.96449000       0.43844468
H        0.84124680      -1.41005636       0.38273241
H        1.84779601      -0.95250553      -0.95495826
H        0.69914118       1.30754059      -1.10839379
H       -0.76701540      -0.99862210      -1.89946228
H       -1.49350646       0.59571121      -1.96233151
H       -2.86672457      -1.07729097      -0.23907309
H       -2.13831902      -0.72600613       1.25043164
H       -1.33580819      -1.83690182       0.25899449
H       -1.30998887       2.36011251       1.20811709
19
Frame=15 idx=011865 GeodesicLength=0.8621582985250135 rxn_smarts="[C:1]([C:2]([C@@:3]1([H:13])[C:4]([H:14])([H:15])[C@:5]1([C:6]([H:16])([H:17])[H:18])[O:7][H:19])([H:11])[H:12])([H:8])([H:9])[H:10]>>[C:1]([C:2]([C:3]([C:4]([C:6]([H:16])([H:17])[H:18])([H:14])[H:15])([C:5][O:7][H:19])[H:13])([H:11])[H:12])([H:8])([H:9])[H:10]"
C        2.24523668       0.11209462       0.89686213
C        1.28581783      -0.54448983      -0.08969671
C        0.26180602       0.42936635      -0.63201457
C       -0.97746684      -0.09941585      -1.32653814
C       -0.85177925       0.81163485       0.27672992
C       -1.86727838      -0.91046849       0.19801386
O       -1.14730340       2.12897128       0.28750690
H        3.00755416      -0.59073848       1.23749162
H        1.70170785       0.46867034       1.77562080
H        2.75760794       0.96572943       0.44687205
H        0.82382038      -1.40751707       0.39353772
H        1.83439104      -0.95901180      -0.94168355
H        0.69841580       1.30170005      -1.11904591
H       -0.76716759      -0.98240377      -1.92454211
H       -1.50039738       0.60198203      -1.97268220
H       -2.86881505      -1.09204256      -0.20175067
H       -2.08004289      -0.76533418       1.26099146
H       -1.31723171      -1.85364705       0.22444956
H       -1.23887520       2.38492012       1.20987782
19
Frame=16 idx=011865 GeodesicLength=0.925836953155367 rxn_smarts="[C:1]([C:2]([C@@:3]1([H:13])[C:4]([H:14])([H:15])[C@:5]1([C:6]([H:16])([H:17])[H:18])[O:7][H:19])([H:11])[H:12])([H:8])([H:9])[H:10]>>[C:1]([C:2]([C:3]([C:4]([C:6]([H:16])([H:17])[H:18])([H:14])[H:15])([C:5][O:7][H:19])[H:13])([H:11])[H:12])([H:8])([H:9])[H:10]"
C        2.22502906       0.11564368       0.90652070
C        1.26886762      -0.54415866      -0.08141080
C        0.25268911       0.43028035      -0.63677773
C       -0.99013467      -0.09639986      -1.33517219
C       -0.86756446       0.82457946       0.25751437
C       -1.85228874      -0.92732072       0.19525904
O       -1.13627657       2.14645972       0.28390422
H        2.98565856      -0.58642946       1.25250197
H        1.67828236       0.47530527       1.78212983
H        2.74007143       0.96724148       0.45576994
H        0.80612174      -1.40506600       0.40433772
H        1.82049799      -0.96510568      -0.92822130
H        0.69722368       1.29572905      -1.12928882
H       -0.76757139      -0.96562409      -1.94933436
H       -1.50748944       0.60840947      -1.98297114
H       -2.86951018      -1.10717656      -0.16228690
H       -2.01887236      -0.80398304       1.26935732
H       -1.29949783      -1.86977188       0.18916733
H       -1.16523591       2.40738745       1.20900082
