12
Frame=0 idx=004858 GeodesicLength=0.0 rxn_smarts="[C:1]([N:2](/[C:3](=[N:4]/[H:11])[H:10])[C:5](=[O:6])[H:12])([H:7])([H:8])[H:9]>>[C-:5]#[O+:6].[C:1](/[N:2]=[C:3](/[N:4]([H:11])[H:12])[H:10])([H:7])([H:8])[H:9]"
C        1.15008237      -0.33342866       1.10041485
N        0.26323394      -0.07152636      -0.00237700
C       -0.98771862      -0.47635579      -0.06950397
N       -1.65635161      -0.13261145      -1.14064198
C        0.48414206       1.10168402      -1.06974787
O        1.54686071       1.62008626      -1.02753298
H        1.89910255       0.45987291       1.11061998
H        1.66707379      -1.28698492       0.97543258
H        0.62329022      -0.33411893       2.05843502
H       -1.43393091      -1.03402017       0.75716786
H       -2.65656728      -0.23593281      -1.13662390
H       -0.89921721       0.72333594      -1.55564254
12
Frame=1 idx=004858 GeodesicLength=0.09112608910276694 rxn_smarts="[C:1]([N:2](/[C:3](=[N:4]/[H:11])[H:10])[C:5](=[O:6])[H:12])([H:7])([H:8])[H:9]>>[C-:5]#[O+:6].[C:1](/[N:2]=[C:3](/[N:4]([H:11])[H:12])[H:10])([H:7])([H:8])[H:9]"
C        1.15441521      -0.34780267       1.09694010
N        0.25095067      -0.04316025       0.01959789
C       -0.99364642      -0.46610057      -0.05502261
N       -1.64244933      -0.17558741      -1.15459114
C        0.47926383       1.13918223      -1.06246597
O        1.54608160       1.64684317      -1.03305001
H        1.91112108       0.43800662       1.11636249
H        1.66100390      -1.30177339       0.93777238
H        0.64077346      -0.37305158       2.06182949
H       -1.47666903      -0.93844050       0.80350884
H       -2.64092795      -0.29599831      -1.16512640
H       -0.88991704       0.71788266      -1.56575505
12
Frame=2 idx=004858 GeodesicLength=0.1823451685899628 rxn_smarts="[C:1]([N:2](/[C:3](=[N:4]/[H:11])[H:10])[C:5](=[O:6])[H:12])([H:7])([H:8])[H:9]>>[C-:5]#[O+:6].[C:1](/[N:2]=[C:3](/[N:4]([H:11])[H:12])[H:10])([H:7])([H:8])[H:9]"
C        1.15728969      -0.36171330       1.09331749
N        0.23889850      -0.01535836       0.04189194
C       -0.99945670      -0.45593087      -0.03970969
N       -1.62782385      -0.21806453      -1.16429672
C        0.47563600       1.17379944      -1.05777842
O        1.54489028       1.67365253      -1.03885840
H        1.92034559       0.41760004       1.12345796
H        1.65471400      -1.31410468       0.89990370
H        0.65550772      -0.41384965       2.06345761
H       -1.51656772      -0.84301324       0.84147343
H       -2.62437789      -0.35356513      -1.18703494
H       -0.87905564       0.71054776      -1.57582394
12
Frame=3 idx=004858 GeodesicLength=0.27367058277916817 rxn_smarts="[C:1]([N:2](/[C:3](=[N:4]/[H:11])[H:10])[C:5](=[O:6])[H:12])([H:7])([H:8])[H:9]>>[C-:5]#[O+:6].[C:1](/[N:2]=[C:3](/[N:4]([H:11])[H:12])[H:10])([H:7])([H:8])[H:9]"
C        1.15885342      -0.37493144       1.08967408
N        0.22696278       0.01253953       0.06496485
C       -1.00537710      -0.44473332      -0.02289285
N       -1.61215857      -0.25997143      -1.16983408
C        0.47295384       1.20668370      -1.05467384
O        1.54446944       1.69869045      -1.04665044
H        1.92742042       0.39837247       1.13174663
H        1.64810435      -1.32379882       0.86151708
H        0.66766973      -0.45608441       2.06331100
H       -1.55494220      -0.74976537       0.87091705
H       -2.60646143      -0.41028335      -1.20367353
H       -0.86749467       0.70328199      -1.58440595
12
Frame=4 idx=004858 GeodesicLength=0.3651658523377189 rxn_smarts="[C:1]([N:2](/[C:3](=[N:4]/[H:11])[H:10])[C:5](=[O:6])[H:12])([H:7])([H:8])[H:9]>>[C-:5]#[O+:6].[C:1](/[N:2]=[C:3](/[N:4]([H:11])[H:12])[H:10])([H:7])([H:8])[H:9]"
C        1.15932706      -0.38830118       1.08539768
N        0.21615602       0.03831135       0.08674685
C       -1.01125422      -0.43296653      -0.00542954
N       -1.59614175      -0.30186183      -1.17163146
C        0.47141561       1.23704272      -1.05391732
O        1.54249960       1.72669059      -1.05235102
H        1.93288771       0.37910732       1.14051071
H        1.64084880      -1.33244783       0.82389212
H        0.67730658      -0.49870631       2.06078819
H       -1.59065765      -0.65522182       0.89410069
H       -2.58814972      -0.46550087      -1.21469258
H       -0.85423805       0.69385439      -1.59341434
12
Frame=5 idx=004858 GeodesicLength=0.4571770745385155 rxn_smarts="[C:1]([N:2](/[C:3](=[N:4]/[H:11])[H:10])[C:5](=[O:6])[H:12])([H:7])([H:8])[H:9]>>[C-:5]#[O+:6].[C:1](/[N:2]=[C:3](/[N:4]([H:11])[H:12])[H:10])([H:7])([H:8])[H:9]"
C        1.15878192      -0.40122965       1.08102436
N        0.20626570       0.06266819       0.10773876
C       -1.01711922      -0.42058398       0.01253497
N       -1.58000784      -0.34310947      -1.16985547
C        0.47074407       1.26606918      -1.05461451
O        1.54071524       1.75481421      -1.05863912
H        1.93690361       0.36037881       1.15010580
H        1.63322674      -1.33940899       0.78726448
H        0.68432352      -0.54125549       2.05641764
H       -1.62397379      -0.56370116       0.91030895
H       -2.56978336      -0.51880550      -1.22052281
H       -0.84007660       0.68416385      -1.60176304
12
Frame=6 idx=004858 GeodesicLength=0.5493961234777682 rxn_smarts="[C:1]([N:2](/[C:3](=[N:4]/[H:11])[H:10])[C:5](=[O:6])[H:12])([H:7])([H:8])[H:9]>>[C-:5]#[O+:6].[C:1](/[N:2]=[C:3](/[N:4]([H:11])[H:12])[H:10])([H:7])([H:8])[H:9]"
C        1.15723712      -0.41350432       1.07669162
N        0.19709615       0.08604705       0.12818571
C       -1.02296136      -0.40744652       0.03077474
N       -1.56390250      -0.38338313      -1.16472326
C        0.47082244       1.29424158      -1.05639737
O        1.53958913       1.78219133      -1.06628731
H        1.93953394       0.34225364       1.16059604
H        1.62522635      -1.34454168       0.75164479
H        0.68885995      -0.58346735       2.05035173
H       -1.65492810      -0.47717382       0.92010406
H       -2.55155309      -0.56985187      -1.22155088
H       -0.82502004       0.67463507      -1.60938988
12
Frame=7 idx=004858 GeodesicLength=0.6419387953037131 rxn_smarts="[C:1]([N:2](/[C:3](=[N:4]/[H:11])[H:10])[C:5](=[O:6])[H:12])([H:7])([H:8])[H:9]>>[C-:5]#[O+:6].[C:1](/[N:2]=[C:3](/[N:4]([H:11])[H:12])[H:10])([H:7])([H:8])[H:9]"
C        1.15483223      -0.42524833       1.07236363
N        0.18863281       0.10851592       0.14805032
C       -1.02883170      -0.39359062       0.04902933
N       -1.54801297      -0.42276048      -1.15660313
C        0.47167419       1.32176569      -1.05919625
O        1.53900141       1.80940350      -1.07486396
H        1.94116001       0.32439121       1.17176066
H        1.61670048      -1.34821386       0.71701514
H        0.69123219      -0.62507052       2.04275454
H       -1.68376451      -0.39542004       0.92462049
H       -2.53368314      -0.61899034      -1.21836534
H       -0.80894100       0.66521787      -1.61656542
12
Frame=8 idx=004858 GeodesicLength=0.7346322742131219 rxn_smarts="[C:1]([N:2](/[C:3](=[N:4]/[H:11])[H:10])[C:5](=[O:6])[H:12])([H:7])([H:8])[H:9]>>[C-:5]#[O+:6].[C:1](/[N:2]=[C:3](/[N:4]([H:11])[H:12])[H:10])([H:7])([H:8])[H:9]"
C        1.15199489      -0.43750447       1.06769513
N        0.18176161       0.12789023       0.16566077
C       -1.03429736      -0.38023835       0.06674399
N       -1.53261029      -0.46198678      -1.14585747
C        0.47318151       1.34777120      -1.06352974
O        1.53662870       1.84038101      -1.08081003
H        1.94229428       0.30560521       1.18260170
H        1.60780399      -1.35227794       0.68451906
H        0.69165307      -0.66528357       2.03355109
H       -1.70989844      -0.31206673       0.92403137
H       -2.51628045      -0.66768924      -1.21111282
H       -0.79223149       0.65539944      -1.62349304
12
Frame=9 idx=004858 GeodesicLength=0.8278905374797614 rxn_smarts="[C:1]([N:2](/[C:3](=[N:4]/[H:11])[H:10])[C:5](=[O:6])[H:12])([H:7])([H:8])[H:9]>>[C-:5]#[O+:6].[C:1](/[N:2]=[C:3](/[N:4]([H:11])[H:12])[H:10])([H:7])([H:8])[H:9]"
C        1.14854514      -0.44949029       1.06297460
N        0.17514224       0.14714644       0.18359880
C       -1.03991088      -0.36616759       0.08486738
N       -1.51670839      -0.50134365      -1.13221477
C        0.47485920       1.37389647      -1.06810668
O        1.53476307       1.87062740      -1.08818273
H        1.94243362       0.28689885       1.19448118
H        1.59888775      -1.35467135       0.65164253
H        0.69049563      -0.70651707       2.02264146
H       -1.73528466      -0.23044013       0.91824836
H       -2.49846363      -0.71579153      -1.20045158
H       -0.77475907       0.64585245      -1.62949855
12
Frame=10 idx=004858 GeodesicLength=0.9213882454752422 rxn_smarts="[C:1]([N:2](/[C:3](=[N:4]/[H:11])[H:10])[C:5](=[O:6])[H:12])([H:7])([H:8])[H:9]>>[C-:5]#[O+:6].[C:1](/[N:2]=[C:3](/[N:4]([H:11])[H:12])[H:10])([H:7])([H:8])[H:9]"
C        1.14463425      -0.46143081       1.05825547
N        0.16943169       0.16479963       0.20042041
C       -1.04533023      -0.35218832       0.10247482
N       -1.50139330      -0.54024339      -1.11616035
C        0.47717423       1.39930917      -1.07374544
O        1.53243971       1.90244999      -1.09499330
H        1.94206716       0.26780334       1.20651265
H        1.58961222      -1.35671820       0.62032052
H        0.68771475      -0.74649991       2.01061233
H       -1.75825305      -0.15145496       0.90774271
H       -2.48146977      -0.76238278      -1.18626736
H       -0.75662765       0.63655622      -1.63517246
12
Frame=11 idx=004858 GeodesicLength=1.0152169145429446 rxn_smarts="[C:1]([N:2](/[C:3](=[N:4]/[H:11])[H:10])[C:5](=[O:6])[H:12])([H:7])([H:8])[H:9]>>[C-:5]#[O+:6].[C:1](/[N:2]=[C:3](/[N:4]([H:11])[H:12])[H:10])([H:7])([H:8])[H:9]"
C        1.14021769      -0.47304358       1.05364434
N        0.16405370       0.18198132       0.21723525
C       -1.05072609      -0.33797724       0.11998578
N       -1.48611842      -0.57886873      -1.09756200
C        0.47977179       1.42481363      -1.07967737
O        1.53074089       1.93349226      -1.10328506
H        1.94070577       0.24885704       1.21966107
H        1.58059601      -1.35720079       0.58925336
H        0.68347145      -0.78688743       1.99708947
H       -1.77994759      -0.07557713       0.89260533
H       -2.46472564      -0.80770075      -1.16897760
H       -0.73803956       0.62811139      -1.63997257
12
Frame=12 idx=004858 GeodesicLength=1.1092087726097182 rxn_smarts="[C:1]([N:2](/[C:3](=[N:4]/[H:11])[H:10])[C:5](=[O:6])[H:12])([H:7])([H:8])[H:9]>>[C-:5]#[O+:6].[C:1](/[N:2]=[C:3](/[N:4]([H:11])[H:12])[H:10])([H:7])([H:8])[H:9]"
C        1.13542740      -0.48467883       1.04908264
N        0.15946338       0.19769463       0.23302947
C       -1.05589490      -0.32399854       0.13685025
N       -1.47155148      -0.61707423      -1.07678882
C        0.48296242       1.44983444      -1.08652163
O        1.52856344       1.96614787      -1.11103321
H        1.93892788       0.22939164       1.23286056
H        1.57126423      -1.35754439       0.55972888
H        0.67787624      -0.82589948       1.98267704
H       -1.79921362      -0.00244409       0.87320226
H       -2.44891681      -0.85166614      -1.14860813
H       -0.71890818       0.62023712      -1.64447932
12
Frame=13 idx=004858 GeodesicLength=1.2035455562483177 rxn_smarts="[C:1]([N:2](/[C:3](=[N:4]/[H:11])[H:10])[C:5](=[O:6])[H:12])([H:7])([H:8])[H:9]>>[C-:5]#[O+:6].[C:1](/[N:2]=[C:3](/[N:4]([H:11])[H:12])[H:10])([H:7])([H:8])[H:9]"
C        1.13023840      -0.49605380       1.04462774
N        0.15512586       0.21298165       0.24888446
C       -1.06105637      -0.30985263       0.15358135
N       -1.45710581      -0.65520597      -1.05351501
C        0.48642832       1.47501613      -1.09363360
O        1.52692400       1.99822149      -1.12013063
H        1.93616926       0.20997156       1.24726596
H        1.56236128      -1.35636392       0.53037915
H        0.67103753      -0.86544305       1.96671028
H       -1.81723982       0.06775523       0.84952245
H       -2.43352300      -0.89429174      -1.12546392
H       -0.69935966       0.61326504      -1.64822823
12
Frame=14 idx=004858 GeodesicLength=1.2981102142473357 rxn_smarts="[C:1]([N:2](/[C:3](=[N:4]/[H:11])[H:10])[C:5](=[O:6])[H:12])([H:7])([H:8])[H:9]>>[C-:5]#[O+:6].[C:1](/[N:2]=[C:3](/[N:4]([H:11])[H:12])[H:10])([H:7])([H:8])[H:9]"
C        1.12474035      -0.50727219       1.04032452
N        0.15122813       0.22736098       0.26432467
C       -1.06608480      -0.29591285       0.16985333
N       -1.44316077      -0.69315674      -1.02801714
C        0.49028719       1.50021342      -1.10119102
O        1.52548146       2.03053301      -1.12990209
H        1.93272138       0.19036314       1.26236543
H        1.55371284      -1.35431210       0.50195816
H        0.66306730      -0.90449327       1.94960870
H       -1.83346683       0.13460648       0.82190443
H       -2.41899440      -0.93528744      -1.09979619
H       -0.67953186       0.60735756      -1.65143280
12
Frame=15 idx=004858 GeodesicLength=1.3928131863243791 rxn_smarts="[C:1]([N:2](/[C:3](=[N:4]/[H:11])[H:10])[C:5](=[O:6])[H:12])([H:7])([H:8])[H:9]>>[C-:5]#[O+:6].[C:1](/[N:2]=[C:3](/[N:4]([H:11])[H:12])[H:10])([H:7])([H:8])[H:9]"
C        1.11899120      -0.51842305       1.03619138
N        0.14783947       0.24061374       0.27910766
C       -1.07090804      -0.28238129       0.18549390
N       -1.42991706      -0.73091574      -1.00046538
C        0.49459332       1.52539829      -1.10927132
O        1.52399470       2.06361445      -1.13992299
H        1.92878667       0.17038827       1.27775885
H        1.54514822      -1.35188027       0.47486688
H        0.65409495      -0.94242119       1.93173222
H       -1.84757591       0.19793253       0.79062329
H       -2.40554663      -0.97457159      -1.07186074
H       -0.65950089       0.60264586      -1.65425374
12
Frame=16 idx=004858 GeodesicLength=1.4877272439573264 rxn_smarts="[C:1]([N:2](/[C:3](=[N:4]/[H:11])[H:10])[C:5](=[O:6])[H:12])([H:7])([H:8])[H:9]>>[C-:5]#[O+:6].[C:1](/[N:2]=[C:3](/[N:4]([H:11])[H:12])[H:10])([H:7])([H:8])[H:9]"
C        1.11297984      -0.52933066       1.03226280
N        0.14469951       0.25320651       0.29370428
C       -1.07564200      -0.26905568       0.20072273
N       -1.41720148      -0.76862257      -0.97062670
C        0.49921889       1.55090306      -1.11757573
O        1.52308262       2.09628684      -1.15121412
H        1.92394758       0.15039790       1.29421564
H        1.53721156      -1.34820605       0.44844962
H        0.64415199      -0.98028981       1.91254567
H       -1.86010496       0.25741159       0.75595431
H       -2.39305959      -1.01198574      -1.04188707
H       -0.63928397       0.59928461      -1.65655143
