16
Frame=0 idx=009643 GeodesicLength=0.0 rxn_smarts="[C:1]([C@@:2]1([H:11])[N:3]([H:12])[C@:4]1([C@@:5]1([H:14])[C:6]([H:15])([H:16])[O:7]1)[H:13])([H:8])([H:9])[H:10]>>[C:1]([C@@:2]1([H:11])[N:3]([H:12])[C@:4]1([C:5][C:6]([O:7][H:14])([H:15])[H:16])[H:13])([H:8])([H:9])[H:10]"
C       -1.96663273      -0.35029344      -0.05144213
C       -1.13761713       0.64930294       0.70605644
N       -0.00805756       0.21271128       1.54742386
C        0.24415496       0.98804542       0.33156680
C        0.98789492       0.52628808      -0.86389484
C        2.17352553      -0.30708204      -0.58725632
O        1.11865046      -1.23502221      -0.90153168
H       -2.47985731       0.13063320      -0.88663808
H       -2.72485000      -0.78612717       0.60221041
H       -1.35999267      -1.16485518      -0.44816384
H       -1.71779481       1.43828110       1.17609958
H        0.17682148      -0.76814380       1.35294158
H        0.57676947       2.01091283       0.52461455
H        0.63989405      -0.57876011      -1.65773160
H        3.00045844      -0.32444990      -1.29285768
H        2.47663293      -0.44144104       0.44860291
16
Frame=1 idx=009643 GeodesicLength=0.05484981379693593 rxn_smarts="[C:1]([C@@:2]1([H:11])[N:3]([H:12])[C@:4]1([C@@:5]1([H:14])[C:6]([H:15])([H:16])[O:7]1)[H:13])([H:8])([H:9])[H:10]>>[C:1]([C@@:2]1([H:11])[N:3]([H:12])[C@:4]1([C:5][C:6]([O:7][H:14])([H:15])[H:16])[H:13])([H:8])([H:9])[H:10]"
C       -1.96238921      -0.35466551      -0.04672548
C       -1.13656329       0.65135484       0.70566555
N       -0.00964921       0.22369031       1.55212145
C        0.24667219       0.99339186       0.33284321
C        0.98855846       0.52224387      -0.85747037
C        2.16707762      -0.31846760      -0.58165195
O        1.11907328      -1.23806559      -0.93088843
H       -2.47403962       0.11912394      -0.88686642
H       -2.72202803      -0.78515286       0.60891336
H       -1.35530857      -1.17330730      -0.43383179
H       -1.71912512       1.44380007       1.16684768
H        0.18005757      -0.75748958       1.36430231
H        0.57236361       2.01872051       0.52223828
H        0.64336768      -0.56165500      -1.68766524
H        3.00033989      -0.30393761      -1.28077090
H        2.46159275      -0.47958432       0.45293875
16
Frame=2 idx=009643 GeodesicLength=0.10979139896797516 rxn_smarts="[C:1]([C@@:2]1([H:11])[N:3]([H:12])[C@:4]1([C@@:5]1([H:14])[C:6]([H:15])([H:16])[O:7]1)[H:13])([H:8])([H:9])[H:10]>>[C:1]([C@@:2]1([H:11])[N:3]([H:12])[C@:4]1([C:5][C:6]([O:7][H:14])([H:15])[H:16])[H:13])([H:8])([H:9])[H:10]"
C       -1.95779742      -0.35936692      -0.04172100
C       -1.13541741       0.65344188       0.70526865
N       -0.01111183       0.23520396       1.55689516
C        0.24922964       0.99892607       0.33401680
C        0.98908802       0.51817801      -0.85111413
C        2.16001119      -0.33046191      -0.57622110
O        1.11933135      -1.24035582      -0.96146467
H       -2.46806973       0.10697442      -0.88676935
H       -2.71868134      -0.78464310       0.61596449
H       -1.35001217      -1.18178718      -0.41917209
H       -1.72051803       1.44928076       1.15730081
H        0.18346143      -0.74629467       1.37613179
H        0.56785530       2.02675970       0.51939333
H        0.64751034      -0.54272255      -1.71828503
H        3.00008288      -0.28424483      -1.26671283
H        2.44503779      -0.51888779       0.45648916
16
Frame=3 idx=009643 GeodesicLength=0.16483232697803935 rxn_smarts="[C:1]([C@@:2]1([H:11])[N:3]([H:12])[C@:4]1([C@@:5]1([H:14])[C:6]([H:15])([H:16])[O:7]1)[H:13])([H:8])([H:9])[H:10]>>[C:1]([C@@:2]1([H:11])[N:3]([H:12])[C@:4]1([C:5][C:6]([O:7][H:14])([H:15])[H:16])[H:13])([H:8])([H:9])[H:10]"
C       -1.95283173      -0.36441736      -0.03641337
C       -1.13417676       0.65555895       0.70486770
N       -0.01243844       0.24728573       1.56174303
C        0.25182374       1.00465694       0.33507382
C        0.98947187       0.51409158      -0.84483838
C        2.15227221      -0.34309294      -0.57098035
O        1.11944066      -1.24181714      -0.99328523
H       -2.46192498       0.09415168      -0.88633151
H       -2.71478150      -0.78462511       0.62338149
H       -1.34405338      -1.19029902      -0.40417161
H       -1.72198386       1.45470604       1.14744691
H        0.18704823      -0.73451924       1.38845435
H        0.56322746       2.03503936       0.51604692
H        0.65242075      -0.52185068      -1.74954987
H        2.99964422      -0.26550974      -1.25063294
H        2.42684150      -0.55935907       0.45918904
16
Frame=4 idx=009643 GeodesicLength=0.2199832925361186 rxn_smarts="[C:1]([C@@:2]1([H:11])[N:3]([H:12])[C@:4]1([C@@:5]1([H:14])[C:6]([H:15])([H:16])[O:7]1)[H:13])([H:8])([H:9])[H:10]>>[C:1]([C@@:2]1([H:11])[N:3]([H:12])[C@:4]1([C:5][C:6]([O:7][H:14])([H:15])[H:16])[H:13])([H:8])([H:9])[H:10]"
C       -1.94746353      -0.36983932      -0.03078438
C       -1.13283680       0.65770085       0.70446257
N       -0.01361992       0.25997291       1.56665813
C        0.25445067       1.01059552       0.33599607
C        0.98969913       0.50998875      -0.83865749
C        2.14379821      -0.35639123      -0.56594694
O        1.11941703      -1.24236547      -1.02637608
H       -2.45558652       0.08061758      -0.88552919
H       -2.71029046      -0.78513302       0.63118809
H       -1.33737885      -1.19884486      -0.38881967
H       -1.72353098       1.46005650       1.13727196
H        0.19083700      -0.72211746       1.40128993
H        0.55846135       2.04356986       0.51216119
H        0.65821338      -0.49891765      -1.78141291
H        2.99897568      -0.24788383      -1.23247123
H        2.40685463      -0.60100914       0.46096994
16
Frame=5 idx=009643 GeodesicLength=0.27526232507947584 rxn_smarts="[C:1]([C@@:2]1([H:11])[N:3]([H:12])[C@:4]1([C@@:5]1([H:14])[C:6]([H:15])([H:16])[O:7]1)[H:13])([H:8])([H:9])[H:10]>>[C:1]([C@@:2]1([H:11])[N:3]([H:12])[C@:4]1([C:5][C:6]([O:7][H:14])([H:15])[H:16])[H:13])([H:8])([H:9])[H:10]"
C       -1.94166169      -0.37565686      -0.02481344
C       -1.13139375       0.65986276       0.70405316
N       -0.01464726       0.27330507       1.57163200
C        0.25710530       1.01675506       0.33676286
C        0.98976017       0.50587590      -0.83258849
C        2.13452053      -0.37039046      -0.56114035
O        1.11928101      -1.24191072      -1.06076163
H       -2.44903601       0.06633141      -0.88433631
H       -2.70516622      -0.78620407       0.63941388
H       -1.32992893      -1.20742740      -0.37310539
H       -1.72517078       1.46531279       1.12676016
H        0.19485082      -0.70903950       1.41465689
H        0.55353476       2.05236368       0.50769530
H        0.66502153      -0.47379586      -1.81381739
H        2.99801785      -0.23152958      -1.21216756
H        2.38491265      -0.64385223       0.46175630
16
Frame=6 idx=009643 GeodesicLength=0.3306949849131611 rxn_smarts="[C:1]([C@@:2]1([H:11])[N:3]([H:12])[C@:4]1([C@@:5]1([H:14])[C:6]([H:15])([H:16])[O:7]1)[H:13])([H:8])([H:9])[H:10]>>[C:1]([C@@:2]1([H:11])[N:3]([H:12])[C@:4]1([C:5][C:6]([O:7][H:14])([H:15])[H:16])[H:13])([H:8])([H:9])[H:10]"
C       -1.93539059      -0.38189829      -0.01847625
C       -1.12984145       0.66203959       0.70363680
N       -0.01550782       0.28732749       1.57665076
C        0.25978254       1.02315256       0.33734824
C        0.98964726       0.50176533      -0.82665095
C        2.12435835      -0.38512827      -0.55658137
O        1.11905126      -1.24035076      -1.09646860
H       -2.44225846       0.05124338      -0.88271792
H       -2.69935406      -0.78788464       0.64809604
H       -1.32163912      -1.21604780      -0.35701906
H       -1.72691319       1.47045196       1.11589263
H        0.19911958      -0.69522685       1.42856914
H        0.54842297       2.06143624       0.50260217
H        0.67299894      -0.44634316      -1.84669881
H        2.99670471      -0.21662912      -1.18964911
H        2.36081910      -0.68790765       0.46146628
16
Frame=7 idx=009643 GeodesicLength=0.38632036862086083 rxn_smarts="[C:1]([C@@:2]1([H:11])[N:3]([H:12])[C@:4]1([C@@:5]1([H:14])[C:6]([H:15])([H:16])[O:7]1)[H:13])([H:8])([H:9])[H:10]>>[C:1]([C@@:2]1([H:11])[N:3]([H:12])[C@:4]1([C:5][C:6]([O:7][H:14])([H:15])[H:16])[H:13])([H:8])([H:9])[H:10]"
C       -1.92860951      -0.38859560      -0.01174468
C       -1.12817355       0.66422714       0.70321058
N       -0.01618843       0.30209064       1.58169849
C        0.26247585       1.02980986       0.33772230
C        0.98935545       0.49767477      -0.82086860
C        2.11321901      -0.40064642      -0.55229406
O        1.11875085      -1.23757404      -1.13352537
H       -2.43523906       0.03529762      -0.88063407
H       -2.69278984      -0.79022873       0.65728138
H       -1.31243559      -1.22470890      -0.34055135
H       -1.72877097       1.47545064       1.10464879
H        0.20367897      -0.68061369       1.44303869
H        0.54309656       2.07080838       0.49683029
H        0.68232705      -0.41640763      -1.87998202
H        2.99495612      -0.20338353      -1.16483676
H        2.33434711      -0.73320049       0.46000638
16
Frame=8 idx=009643 GeodesicLength=0.44219755297433927 rxn_smarts="[C:1]([C@@:2]1([H:11])[N:3]([H:12])[C@:4]1([C@@:5]1([H:14])[C:6]([H:15])([H:16])[O:7]1)[H:13])([H:8])([H:9])[H:10]>>[C:1]([C@@:2]1([H:11])[N:3]([H:12])[C@:4]1([C:5][C:6]([O:7][H:14])([H:15])[H:16])[H:13])([H:8])([H:9])[H:10]"
C       -1.92129985      -0.39578517      -0.00458215
C       -1.12638948       0.66641381       0.70276875
N       -0.01666546       0.31764521       1.58675633
C        0.26518785       1.03674799       0.33784281
C        0.98889300       0.49363161      -0.81527747
C        2.10101616      -0.41698219      -0.54830572
O        1.11840945      -1.23344542      -1.17195598
H       -2.42799857       0.01842643      -0.87803153
H       -2.68542890      -0.79330172       0.66703194
H       -1.30227027      -1.23340164      -0.32368767
H       -1.73076462       1.48026591       1.09300587
H        0.20857553      -0.66512489       1.45807964
H        0.53754227       2.08049337       0.49031027
H        0.69322623      -0.38381770      -1.91359243
H        2.99272104      -0.19202262      -1.13764967
H        2.30524562      -0.77974300       0.45728701
16
Frame=9 idx=009643 GeodesicLength=0.49831137327312236 rxn_smarts="[C:1]([C@@:2]1([H:11])[N:3]([H:12])[C@:4]1([C@@:5]1([H:14])[C:6]([H:15])([H:16])[O:7]1)[H:13])([H:8])([H:9])[H:10]>>[C:1]([C@@:2]1([H:11])[N:3]([H:12])[C@:4]1([C:5][C:6]([O:7][H:14])([H:15])[H:16])[H:13])([H:8])([H:9])[H:10]"
C       -1.91331775      -0.40349717       0.00304710
C       -1.12446448       0.66860581       0.70229772
N       -0.01694592       0.33407195       1.59176214
C        0.26787171       1.04399888       0.33768660
C        0.98822691       0.48965760      -0.80985980
C        2.08755844      -0.43421654      -0.54465752
O        1.11804959      -1.22782915      -1.21177858
H       -2.42042298       0.00055615      -0.87484593
H       -2.67707966      -0.79715252       0.67739271
H       -1.29092007      -1.24212001      -0.30641407
H       -1.73290697       1.48488284       1.08091892
H        0.21386186      -0.64865331       1.47364815
H        0.53163428       2.09051835       0.48300052
H        0.70593218      -0.34838652      -1.94732467
H        2.98977001      -0.18282492      -1.10796091
H        2.27315285      -0.82761143       0.45308763
16
Frame=10 idx=009643 GeodesicLength=0.5548404987915301 rxn_smarts="[C:1]([C@@:2]1([H:11])[N:3]([H:12])[C@:4]1([C@@:5]1([H:14])[C:6]([H:15])([H:16])[O:7]1)[H:13])([H:8])([H:9])[H:10]>>[C:1]([C@@:2]1([H:11])[N:3]([H:12])[C@:4]1([C:5][C:6]([O:7][H:14])([H:15])[H:16])[H:13])([H:8])([H:9])[H:10]"
C       -1.90472539      -0.41174581       0.01115371
C       -1.12240007       0.67077550       0.70181406
N       -0.01697745       0.35135376       1.59670369
C        0.27054921       1.05156694       0.33718571
C        0.98735885       0.48575751      -0.80472547
C        2.07281665      -0.45231118      -0.54136408
O        1.11776851      -1.22066486      -1.25291273
H       -2.41262607      -0.01828507      -0.87101547
H       -2.66776287      -0.80184595       0.68841736
H       -1.27849248      -1.25085016      -0.28881817
H       -1.73518513       1.48923937       1.06845163
H        0.21959135      -0.63119473       1.48972989
H        0.52543183       2.10088064       0.47483148
H        0.72067725      -0.31013237      -1.98110812
H        2.98606650      -0.17595483      -1.07578411
H        2.23790932      -0.87658877       0.44744062
16
Frame=11 idx=009643 GeodesicLength=0.6118542691426696 rxn_smarts="[C:1]([C@@:2]1([H:11])[N:3]([H:12])[C@:4]1([C@@:5]1([H:14])[C:6]([H:15])([H:16])[O:7]1)[H:13])([H:8])([H:9])[H:10]>>[C:1]([C@@:2]1([H:11])[N:3]([H:12])[C@:4]1([C:5][C:6]([O:7][H:14])([H:15])[H:16])[H:13])([H:8])([H:9])[H:10]"
C       -1.89543243      -0.42058601       0.01978733
C       -1.12018435       0.67292156       0.70130445
N       -0.01674177       0.36958121       1.60154483
C        0.27320107       1.05950520       0.33629614
C        0.98630287       0.48199451      -0.79989097
C        2.05661103      -0.47134243      -0.53848612
O        1.11760647      -1.21177971      -1.29538957
H       -2.40457572      -0.03821243      -0.86648653
H       -2.65734661      -0.80747286       0.70019773
H       -1.26481792      -1.25959649      -0.27086711
H       -1.73763051       1.49329979       1.05555526
H        0.22584269      -0.61262635       1.50631840
H        0.51885549       2.11163326       0.46572969
H        0.73779793      -0.26882742      -2.01473612
H        2.98141478      -0.17175488      -1.04098861
H        2.19909699      -0.92673697       0.44011119
16
Frame=12 idx=009643 GeodesicLength=0.6695779357957574 rxn_smarts="[C:1]([C@@:2]1([H:11])[N:3]([H:12])[C@:4]1([C@@:5]1([H:14])[C:6]([H:15])([H:16])[O:7]1)[H:13])([H:8])([H:9])[H:10]>>[C:1]([C@@:2]1([H:11])[N:3]([H:12])[C@:4]1([C:5][C:6]([O:7][H:14])([H:15])[H:16])[H:13])([H:8])([H:9])[H:10]"
C       -1.88535048      -0.43008881       0.02899663
C       -1.11779340       0.67504361       0.70076222
N       -0.01618902       0.38884662       1.60625423
C        0.27581385       1.06788877       0.33495586
C        0.98506830       0.47845018      -0.79541096
C        2.03873571      -0.49137555      -0.53606559
O        1.11759601      -1.20100384      -1.33925520
H       -2.39625410      -0.05934743      -0.86118985
H       -2.64566988      -0.81415570       0.71283671
H       -1.24976306      -1.26838585      -0.25255505
H       -1.74025787       1.49702881       1.04220840
H        0.23273354      -0.59283089       1.52340556
H        0.51183544       2.12286492       0.45560812
H        0.75767216      -0.22425936      -2.04805710
H        2.97561312      -0.17058343      -1.00342570
H        2.15620969      -0.97809203       0.43093173
16
Frame=13 idx=009643 GeodesicLength=0.7284508276466634 rxn_smarts="[C:1]([C@@:2]1([H:11])[N:3]([H:12])[C@:4]1([C@@:5]1([H:14])[C:6]([H:15])([H:16])[O:7]1)[H:13])([H:8])([H:9])[H:10]>>[C:1]([C@@:2]1([H:11])[N:3]([H:12])[C@:4]1([C:5][C:6]([O:7][H:14])([H:15])[H:16])[H:13])([H:8])([H:9])[H:10]"
C       -1.87450561      -0.44040461       0.03886671
C       -1.11520480       0.67711735       0.70018058
N       -0.01520760       0.40928012       1.61086489
C        0.27847399       1.07683673       0.33305450
C        0.98377526       0.47527407      -0.79141509
C        2.01897475      -0.51246307      -0.53413939
O        1.11771757      -1.18806991      -1.38466230
H       -2.38781189      -0.08192850      -0.85506122
H       -2.63270727      -0.82215100       0.72655278
H       -1.23332380      -1.27728251      -0.23384760
H       -1.74307247       1.50033658       1.02837623
H        0.24039958      -0.57164573       1.54109840
H        0.50447660       2.13472474       0.44428539
H        0.78087056      -0.17608253      -2.08107692
H        2.96860674      -0.17283248      -0.96287087
H        2.10853839      -1.03070924       0.41979391
16
Frame=14 idx=009643 GeodesicLength=0.7865620919040791 rxn_smarts="[C:1]([C@@:2]1([H:11])[N:3]([H:12])[C@:4]1([C@@:5]1([H:14])[C:6]([H:15])([H:16])[O:7]1)[H:13])([H:8])([H:9])[H:10]>>[C:1]([C@@:2]1([H:11])[N:3]([H:12])[C@:4]1([C:5][C:6]([O:7][H:14])([H:15])[H:16])[H:13])([H:8])([H:9])[H:10]"
C       -1.86300014      -0.45070445       0.04882298
C       -1.11250144       0.67895269       0.69978272
N       -0.01417241       0.42970364       1.61505407
C        0.28093494       1.08565795       0.33099083
C        0.98179873       0.47189036      -0.78774945
C        1.99802789      -0.53359454      -0.53302078
O        1.11879179      -1.17426370      -1.42890834
H       -2.37825933      -0.10441164      -0.84872843
H       -2.61923785      -0.83015263       0.73992326
H       -1.21598098      -1.28584070      -0.21511846
H       -1.74590363       1.50305996       1.01474389
H        0.24852053      -0.55010246       1.55829968
H        0.49673164       2.14617889       0.43292426
H        0.80600815      -0.12741181      -2.11152012
H        2.95933704      -0.17777928      -0.92227598
H        2.05890507      -1.08118229       0.40677986
16
Frame=15 idx=009643 GeodesicLength=0.8473854116030383 rxn_smarts="[C:1]([C@@:2]1([H:11])[N:3]([H:12])[C@:4]1([C@@:5]1([H:14])[C:6]([H:15])([H:16])[O:7]1)[H:13])([H:8])([H:9])[H:10]>>[C:1]([C@@:2]1([H:11])[N:3]([H:12])[C@:4]1([C:5][C:6]([O:7][H:14])([H:15])[H:16])[H:13])([H:8])([H:9])[H:10]"
C       -1.84968096      -0.46242580       0.06025274
C       -1.10949228       0.68086098       0.69904548
N       -0.01254107       0.45261053       1.61865734
C        0.28311918       1.09556493       0.32778950
C        0.98013242       0.46938516      -0.78450497
C        1.97351564      -0.55701272      -0.53246809
O        1.11983946      -1.15638141      -1.47681978
H       -2.36863167      -0.12987661      -0.84018019
H       -2.60238977      -0.84041095       0.75583792
H       -1.19549816      -1.29446456      -0.19550853
H       -1.74938351       1.50514919       0.99989708
H        0.25813039      -0.52557964       1.57620801
H        0.48747093       2.15877121       0.41908988
H        0.83733940      -0.07199665      -2.14187799
H        2.94819487      -0.18848757      -0.87556047
H        1.99987513      -1.13570611       0.39014207
16
Frame=16 idx=009643 GeodesicLength=0.9104265745163114 rxn_smarts="[C:1]([C@@:2]1([H:11])[N:3]([H:12])[C@:4]1([C@@:5]1([H:14])[C:6]([H:15])([H:16])[O:7]1)[H:13])([H:8])([H:9])[H:10]>>[C:1]([C@@:2]1([H:11])[N:3]([H:12])[C@:4]1([C:5][C:6]([O:7][H:14])([H:15])[H:16])[H:13])([H:8])([H:9])[H:10]"
C       -1.83513272      -0.47513859       0.07249533
C       -1.10617333       0.68264999       0.69829037
N       -0.01032565       0.47689056       1.62192340
C        0.28524172       1.10626203       0.32380245
C        0.97847475       0.46758037      -0.78192723
C        1.94615209      -0.58156501      -0.53273914
O        1.12136303      -1.13581431      -1.52600651
H       -2.35853281      -0.15714037      -0.83054991
H       -2.58358698      -0.85229349       0.77309043
H       -1.17301660      -1.30319598      -0.17548856
H       -1.75310341       1.50652318       0.98462197
H        0.26904283      -0.49925449       1.59439070
H        0.47750275       2.17217820       0.40384399
H        0.87369987      -0.01282793      -2.17063788
H        2.93445845      -0.20410313      -0.82563184
H        1.93393601      -1.19075103       0.37052243
