12
Frame=0 idx=005673 GeodesicLength=0.0 rxn_smarts="[N:1]([c:2]1[c:3]([H:9])[n:4]([H:10])[c:5]([H:11])[c:6]1[H:12])([H:7])[H:8]>>[N:1]([C:2]1=[C+:3][N:4]([H:10])[C-:5]([H:11])[C:6]1([H:9])[H:12])([H:7])[H:8]"
N       -2.02390956       0.42266863      -0.06065919
C       -0.63203009       0.30884954       0.04597533
C        0.29278258       1.29006231       0.45909462
N        1.47387449       0.60237109       0.40364572
C        1.42865851      -0.69048316       0.00153054
C        0.10097650      -0.95496597      -0.30127504
H       -2.29803306       1.38837689       0.05165780
H       -2.51079857      -0.14762831       0.61528520
H       -0.13791843      -0.06569742      -1.15197879
H        2.34379056       1.05731460       0.62733790
H        2.30175733      -1.31341815      -0.10152523
H       -0.33915029      -1.89745006      -0.58908886
12
Frame=1 idx=005673 GeodesicLength=0.10340695595117785 rxn_smarts="[N:1]([c:2]1[c:3]([H:9])[n:4]([H:10])[c:5]([H:11])[c:6]1[H:12])([H:7])[H:8]>>[N:1]([C:2]1=[C+:3][N:4]([H:10])[C-:5]([H:11])[C:6]1([H:9])[H:12])([H:7])[H:8]"
N       -2.02604779       0.41913796      -0.04817914
C       -0.63465987       0.30398183       0.05823114
C        0.29767976       1.29844725       0.40876798
N        1.47426221       0.59597650       0.41415353
C        1.42479953      -0.69702228       0.01835092
C        0.10017696      -0.94705180      -0.31877199
H       -2.30410738       1.38216989       0.07508705
H       -2.51165340      -0.16593083       0.61571188
H       -0.12096270      -0.02652111      -1.17552830
H        2.34697045       1.05669284       0.61398494
H        2.29477837      -1.32697214      -0.06785221
H       -0.34123616      -1.89290810      -0.59395580
12
Frame=2 idx=005673 GeodesicLength=0.20667823197084456 rxn_smarts="[N:1]([c:2]1[c:3]([H:9])[n:4]([H:10])[c:5]([H:11])[c:6]1[H:12])([H:7])[H:8]>>[N:1]([C:2]1=[C+:3][N:4]([H:10])[C-:5]([H:11])[C:6]1([H:9])[H:12])([H:7])[H:8]"
N       -2.02763398       0.41638903      -0.03687224
C       -0.63672729       0.29949249       0.06944076
C        0.30172737       1.30298305       0.36387382
N        1.47445161       0.59106546       0.42148610
C        1.42069992      -0.70280762       0.03399648
C        0.09948387      -0.93933240      -0.33516037
H       -2.30894967       1.37664709       0.09843903
H       -2.51269851      -0.18378080       0.61353926
H       -0.10406963       0.01186543      -1.19902697
H        2.34951456       1.05572224       0.60156922
H        2.28762496      -1.33896282      -0.03700893
H       -0.34342323      -1.88928115      -0.59427616
12
Frame=3 idx=005673 GeodesicLength=0.3098369537494002 rxn_smarts="[N:1]([c:2]1[c:3]([H:9])[n:4]([H:10])[c:5]([H:11])[c:6]1[H:12])([H:7])[H:8]>>[N:1]([C:2]1=[C+:3][N:4]([H:10])[C-:5]([H:11])[C:6]1([H:9])[H:12])([H:7])[H:8]"
N       -2.02881141       0.41416795      -0.02652522
C       -0.63840707       0.29520489       0.08007044
C        0.30493511       1.30465104       0.32386779
N        1.47463540       0.58716597       0.42639714
C        1.41638597      -0.70800129       0.04862581
C        0.09880326      -0.93182652      -0.35047545
H       -2.31288928       1.37154315       0.12143784
H       -2.51405471      -0.20116946       0.60914417
H       -0.08699845       0.04977832      -1.22238477
H        2.35173233       1.05453430       0.58934828
H        2.28030919      -1.34977826      -0.00848037
H       -0.34564034      -1.88627008      -0.59102565
12
Frame=4 idx=005673 GeodesicLength=0.41298314101931893 rxn_smarts="[N:1]([c:2]1[c:3]([H:9])[n:4]([H:10])[c:5]([H:11])[c:6]1[H:12])([H:7])[H:8]>>[N:1]([C:2]1=[C+:3][N:4]([H:10])[C-:5]([H:11])[C:6]1([H:9])[H:12])([H:7])[H:8]"
N       -2.02968260       0.41228060      -0.01694287
C       -0.63982117       0.29097809       0.09050600
C        0.30735585       1.30415388       0.28810856
N        1.47488421       0.58391274       0.42957500
C        1.41191869      -0.71273953       0.06235797
C        0.09806837      -0.92456147      -0.36471886
H       -2.31616218       1.36666747       0.14384950
H       -2.51579270      -0.21804794       0.60289860
H       -0.06958979       0.08744371      -1.24554836
H        2.35381347       1.05324652       0.57683614
H        2.27282368      -1.35968154       0.01808699
H       -0.34781582      -1.88365255      -0.58500866
12
Frame=5 idx=005673 GeodesicLength=0.5163034482543769 rxn_smarts="[N:1]([c:2]1[c:3]([H:9])[n:4]([H:10])[c:5]([H:11])[c:6]1[H:12])([H:7])[H:8]>>[N:1]([C:2]1=[C+:3][N:4]([H:10])[C-:5]([H:11])[C:6]1([H:9])[H:12])([H:7])[H:8]"
N       -2.03032901       0.41060628      -0.00794745
C       -0.64104957       0.28672336       0.10102315
C        0.30905643       1.30202139       0.25582634
N        1.47524156       0.58109483       0.43142475
C        1.40733924      -0.71710345       0.07527281
C        0.09719460      -0.91759503      -0.37781043
H       -2.31897544       1.36192761       0.16550468
H       -2.51793098      -0.23434576       0.59517297
H       -0.05168800       0.12498875      -1.26850878
H        2.35571500       1.05177562       0.56403141
H        2.26533031      -1.36880176       0.04278148
H       -0.34990415      -1.88129184      -0.57677093
12
Frame=6 idx=005673 GeodesicLength=0.6197141416912301 rxn_smarts="[N:1]([c:2]1[c:3]([H:9])[n:4]([H:10])[c:5]([H:11])[c:6]1[H:12])([H:7])[H:8]>>[N:1]([C:2]1=[C+:3][N:4]([H:10])[C-:5]([H:11])[C:6]1([H:9])[H:12])([H:7])[H:8]"
N       -2.03080321       0.40903263       0.00059949
C       -0.64214169       0.28237814       0.11177420
C        0.31009103       1.29856841       0.22652114
N        1.47568884       0.57855008       0.43228070
C        1.40271050      -0.72116183       0.08741980
C        0.09613235      -0.91096106      -0.38974947
H       -2.32144421       1.35722962       0.18631701
H       -2.52044598      -0.25003201       0.58627038
H       -0.03323307       0.16251933      -1.29126980
H        2.35754873       1.05023108       0.55079303
H        2.25778502      -1.37728277       0.06590136
H       -0.35188831      -1.87907162      -0.56685782
12
Frame=7 idx=005673 GeodesicLength=0.7233056623838545 rxn_smarts="[N:1]([c:2]1[c:3]([H:9])[n:4]([H:10])[c:5]([H:11])[c:6]1[H:12])([H:7])[H:8]>>[N:1]([C:2]1=[C+:3][N:4]([H:10])[C-:5]([H:11])[C:6]1([H:9])[H:12])([H:7])[H:8]"
N       -2.03112891       0.40748965       0.00883371
C       -0.64313991       0.27789849       0.12295468
C        0.31050321       1.29405287       0.19963034
N        1.47621625       0.57619151       0.43232635
C        1.39807211      -0.72495076       0.09884693
C        0.09481595      -0.90468108      -0.40051875
H       -2.32368130       1.35253737       0.20624820
H       -2.52331700      -0.26509319       0.57643200
H       -0.01410165       0.20010308      -1.31388248
H        2.35928064       1.04858383       0.53718061
H        2.25025688      -1.38520607       0.08759441
H       -0.35377627      -1.87692569      -0.55564599
12
Frame=8 idx=005673 GeodesicLength=0.8270352244174735 rxn_smarts="[N:1]([c:2]1[c:3]([H:9])[n:4]([H:10])[c:5]([H:11])[c:6]1[H:12])([H:7])[H:8]>>[N:1]([C:2]1=[C+:3][N:4]([H:10])[C-:5]([H:11])[C:6]1([H:9])[H:12])([H:7])[H:8]"
N       -2.03133698       0.40590755       0.01686087
C       -0.64406713       0.27326499       0.13464686
C        0.31032225       1.28863145       0.17474649
N        1.47679444       0.57395697       0.43169571
C        1.39346277      -0.72850934       0.10960034
C        0.09319835      -0.89878757      -0.41010063
H       -2.32576183       1.34781304       0.22525403
H       -2.52649050      -0.27951797       0.56590944
H        0.00581359       0.23783533      -1.33638171
H        2.36091843       1.04686323       0.52322082
H        2.24272864      -1.39263889       0.10802715
H       -0.35558202      -1.87481881      -0.54347939
12
Frame=9 idx=005673 GeodesicLength=0.9305906548342711 rxn_smarts="[N:1]([c:2]1[c:3]([H:9])[n:4]([H:10])[c:5]([H:11])[c:6]1[H:12])([H:7])[H:8]>>[N:1]([C:2]1=[C+:3][N:4]([H:10])[C-:5]([H:11])[C:6]1([H:9])[H:12])([H:7])[H:8]"
N       -2.03145669       0.40429524       0.02471861
C       -0.64495350       0.26845547       0.14672240
C        0.30968010       1.28232237       0.15132847
N        1.47726532       0.57180114       0.43056996
C        1.38882288      -0.73188980       0.11980401
C        0.09128241      -0.89336790      -0.41848329
H       -2.32765453       1.34312421       0.24336234
H       -2.52983615      -0.29329446       0.55485921
H        0.02648136       0.27586414      -1.35867391
H        2.36237843       1.04511215       0.50918633
H        2.23536649      -1.39952438       0.12701754
H       -0.35737613      -1.87289819      -0.53041166
12
Frame=10 idx=005673 GeodesicLength=1.034262938524859 rxn_smarts="[N:1]([c:2]1[c:3]([H:9])[n:4]([H:10])[c:5]([H:11])[c:6]1[H:12])([H:7])[H:8]>>[N:1]([C:2]1=[C+:3][N:4]([H:10])[C-:5]([H:11])[C:6]1([H:9])[H:12])([H:7])[H:8]"
N       -2.03149493       0.40255837       0.03252727
C       -0.64580735       0.26347042       0.15945541
C        0.30847025       1.27531179       0.12922842
N        1.47773983       0.56969370       0.42892676
C        1.38423487      -0.73509930       0.12940720
C        0.08898456      -0.88835541      -0.42572802
H       -2.32950532       1.33838361       0.26050585
H       -2.53341706      -0.30644258       0.54348887
H        0.04819207       0.31425351      -1.38097643
H        2.36367168       1.04327383       0.49498923
H        2.22809108      -1.40599225       0.14486498
H       -0.35915968      -1.87105570      -0.51668955
12
Frame=11 idx=005673 GeodesicLength=1.1380577574497814 rxn_smarts="[N:1]([c:2]1[c:3]([H:9])[n:4]([H:10])[c:5]([H:11])[c:6]1[H:12])([H:7])[H:8]>>[N:1]([C:2]1=[C+:3][N:4]([H:10])[C-:5]([H:11])[C:6]1([H:9])[H:12])([H:7])[H:8]"
N       -2.03147765       0.40067421       0.04034841
C       -0.64664471       0.25830662       0.17289666
C        0.30668957       1.26763123       0.10814231
N        1.47816604       0.56760228       0.42682720
C        1.37969309      -0.73817217       0.13845005
C        0.08625237      -0.88376101      -0.43187173
H       -2.33137871       1.33361144       0.27666905
H       -2.53719271      -0.31897762       0.53196169
H        0.07115617       0.35312254      -1.40336262
H        2.36473018       1.04134127       0.48074892
H        2.22098634      -1.41206130       0.16152723
H       -0.36097999      -1.86931750      -0.50233716
12
Frame=12 idx=005673 GeodesicLength=1.2418961781837365 rxn_smarts="[N:1]([c:2]1[c:3]([H:9])[n:4]([H:10])[c:5]([H:11])[c:6]1[H:12])([H:7])[H:8]>>[N:1]([C:2]1=[C+:3][N:4]([H:10])[C-:5]([H:11])[C:6]1([H:9])[H:12])([H:7])[H:8]"
N       -2.03141815       0.39860190       0.04823429
C       -0.64747963       0.25295738       0.18704490
C        0.30432944       1.25927958       0.08785204
N        1.47848024       0.56550047       0.42432198
C        1.37519434      -0.74113617       0.14694222
C        0.08305217      -0.87960126      -0.43696342
H       -2.33329286       1.32880326       0.29183057
H       -2.54111886      -0.33089803       0.52044726
H        0.09556375       0.39263170      -1.42587961
H        2.36551171       1.03934432       0.46652663
H        2.21405229      -1.41774925       0.17702317
H       -0.36287444      -1.86773390      -0.48738003
12
Frame=13 idx=005673 GeodesicLength=1.3458100710460026 rxn_smarts="[N:1]([c:2]1[c:3]([H:9])[n:4]([H:10])[c:5]([H:11])[c:6]1[H:12])([H:7])[H:8]>>[N:1]([C:2]1=[C+:3][N:4]([H:10])[C-:5]([H:11])[C:6]1([H:9])[H:12])([H:7])[H:8]"
N       -2.03134514       0.39632354       0.05623766
C       -0.64832722       0.24742828       0.20189322
C        0.30137358       1.25024041       0.06806917
N        1.47860973       0.56336028       0.42145689
C        1.37072026      -0.74402274       0.15490002
C        0.07932829      -0.87590640      -0.44103946
H       -2.33529916       1.32400252       0.30596142
H       -2.54514167      -0.34225084       0.50912976
H        0.12168554       0.43297266      -1.44856992
H        2.36592839       1.03728136       0.45244903
H        2.20736442      -1.42307221       0.19127441
H       -0.36489703      -1.86635686      -0.47176221
12
Frame=14 idx=005673 GeodesicLength=1.449666760014601 rxn_smarts="[N:1]([c:2]1[c:3]([H:9])[n:4]([H:10])[c:5]([H:11])[c:6]1[H:12])([H:7])[H:8]>>[N:1]([C:2]1=[C+:3][N:4]([H:10])[C-:5]([H:11])[C:6]1([H:9])[H:12])([H:7])[H:8]"
N       -2.03127738       0.39379202       0.06441282
C       -0.64919746       0.24172313       0.21737835
C        0.29780067       1.24048733       0.04858542
N        1.47848723       0.56116419       0.41825030
C        1.36625816      -0.74685568       0.16230125
C        0.07504932      -0.87270001      -0.44417786
H       -2.33739672       1.31919107       0.31904829
H       -2.54920529      -0.35304369       0.49822066
H        0.14975646       0.47434348      -1.47144865
H        2.36592617       1.03519069       0.43857443
H        2.20088227      -1.42805430       0.20434602
H       -0.36708342      -1.86523824      -0.45549103
12
Frame=15 idx=005673 GeodesicLength=1.5534360333595854 rxn_smarts="[N:1]([c:2]1[c:3]([H:9])[n:4]([H:10])[c:5]([H:11])[c:6]1[H:12])([H:7])[H:8]>>[N:1]([C:2]1=[C+:3][N:4]([H:10])[C-:5]([H:11])[C:6]1([H:9])[H:12])([H:7])[H:8]"
N       -2.03124287       0.39097569       0.07280780
C       -0.65010210       0.23585432       0.23341661
C        0.29358750       1.22997385       0.02913156
N        1.47803318       0.55889154       0.41471532
C        1.36178493      -0.74966338       0.16912284
C        0.07016907      -0.87002787      -0.44643866
H       -2.33960581       1.31439515       0.33106060
H       -2.55325344      -0.36332348       0.48794578
H        0.18006872       0.51700190      -1.49450535
H        2.36542155       1.03309202       0.42501960
H        2.19462650      -1.43271324       0.21620830
H       -0.36948723      -1.86445650      -0.43848440
12
Frame=16 idx=005673 GeodesicLength=1.6570426314518276 rxn_smarts="[N:1]([c:2]1[c:3]([H:9])[n:4]([H:10])[c:5]([H:11])[c:6]1[H:12])([H:7])[H:8]>>[N:1]([C:2]1=[C+:3][N:4]([H:10])[C-:5]([H:11])[C:6]1([H:9])[H:12])([H:7])[H:8]"
N       -2.03127366       0.38784253       0.08146894
C       -0.65105189       0.22983659       0.24989495
C        0.28870951       1.21863691       0.00944211
N        1.47716172       0.55652251       0.41085477
C        1.35727571      -0.75247442       0.17532862
C        0.06464378      -0.86794852      -0.44788812
H       -2.34193072       1.30963567       0.34196333
H       -2.55723818      -0.37314223       0.47854488
H        0.21292189       0.56122786      -1.51768592
H        2.36433648       1.03101658       0.41187925
H        2.18860047      -1.43706849       0.22685302
H       -0.37215511      -1.86408499      -0.42065583
