14
Frame=0 idx=008995 GeodesicLength=0.0 rxn_smarts="[C:1]([N:2]([C:3](=[O:4])[N:5](/[C:6](=[N:7]/[H:14])[H:13])[H:12])[H:11])([H:8])([H:9])[H:10]>>[C:1]([N:2](/[C:3]([O:4][H:14])=[N:5]\[H:12])[H:11])([H:8])([H:9])[H:10].[C:6](#[N:7])[H:13]"
C        2.31152368       0.35970736      -0.17611444
N        1.11311891       0.21898215       0.62669780
C       -0.10124383      -0.02742165       0.08644042
O       -0.14536730      -0.00575702      -1.21100772
N       -1.17903806      -0.26310207       0.78295461
C       -2.74756844      -0.39311327      -0.17688465
N       -2.65458810      -0.31274348      -1.35373381
H        2.13547513       1.06374355      -0.98675067
H        2.63616889      -0.59067033      -0.60640212
H        3.10509161       0.75142047       0.45785426
H        1.21214841       0.06781809       1.61322027
H       -1.09333747      -0.21133750       1.78686925
H       -3.43769636      -0.53094171       0.64238271
H       -1.15468710      -0.12658458      -1.48552587
14
Frame=1 idx=008995 GeodesicLength=0.11319128822128983 rxn_smarts="[C:1]([N:2]([C:3](=[O:4])[N:5](/[C:6](=[N:7]/[H:14])[H:13])[H:12])[H:11])([H:8])([H:9])[H:10]>>[C:1]([N:2](/[C:3]([O:4][H:14])=[N:5]\[H:12])[H:11])([H:8])([H:9])[H:10].[C:6](#[N:7])[H:13]"
C        2.31724079       0.35942761      -0.17040912
N        1.11594663       0.20924442       0.62556621
C       -0.09185274      -0.05935248       0.08075026
O       -0.14192878      -0.03482869      -1.21502013
N       -1.18018569      -0.24421638       0.77993456
C       -2.76374612      -0.32853157      -0.17168933
N       -2.69368467      -0.23755037      -1.35090846
H        2.13546600       1.05129993      -0.99008944
H        2.66031233      -0.59089979      -0.58639247
H        3.10050877       0.76885613       0.46538867
H        1.21080644       0.06671518       1.61383679
H       -1.09557913      -0.16615086       1.78232690
H       -3.39752565      -0.64255788       0.64515607
H       -1.17577817      -0.15145524      -1.50845050
14
Frame=2 idx=008995 GeodesicLength=0.22699141244360171 rxn_smarts="[C:1]([N:2]([C:3](=[O:4])[N:5](/[C:6](=[N:7]/[H:14])[H:13])[H:12])[H:11])([H:8])([H:9])[H:10]>>[C:1]([N:2](/[C:3]([O:4][H:14])=[N:5]\[H:12])[H:11])([H:8])([H:9])[H:10].[C:6](#[N:7])[H:13]"
C        2.32219415       0.35481625      -0.16543819
N        1.11795459       0.20257836       0.62488459
C       -0.08474330      -0.08450929       0.07758693
O       -0.14118666      -0.06240129      -1.21666472
N       -1.18126405      -0.22098374       0.77896897
C       -2.77767554      -0.29519507      -0.16437121
N       -2.73203476      -0.15544165      -1.34157763
H        2.13719989       1.03210485      -0.99638272
H        2.67960981      -0.59788667      -0.56365329
H        3.09683086       0.78106865       0.47008928
H        1.20865709       0.07207382       1.61525977
H       -1.09820637      -0.11186503       1.77861521
H       -3.34423157      -0.75927162       0.63090298
H       -1.20310415      -0.15508755      -1.52821998
14
Frame=3 idx=008995 GeodesicLength=0.34156751097462335 rxn_smarts="[C:1]([N:2]([C:3](=[O:4])[N:5](/[C:6](=[N:7]/[H:14])[H:13])[H:12])[H:11])([H:8])([H:9])[H:10]>>[C:1]([N:2](/[C:3]([O:4][H:14])=[N:5]\[H:12])[H:11])([H:8])([H:9])[H:10].[C:6](#[N:7])[H:13]"
C        2.32684048       0.34680639      -0.16079459
N        1.11919072       0.20001725       0.62458983
C       -0.07961062      -0.10192709       0.07609901
O       -0.14332033      -0.08291693      -1.21664001
N       -1.18152810      -0.20080064       0.77936369
C       -2.79154236      -0.27570898      -0.15415074
N       -2.77020819      -0.07969234      -1.32585422
H        2.14178803       1.00790232      -1.00454805
H        2.69403185      -0.61052134      -0.53861966
H        3.09482982       0.78804692       0.47277987
H        1.20551212       0.08410854       1.61722378
H       -1.10084223      -0.05496123       1.77454203
H       -3.28037149      -0.87562618       0.60202576
H       -1.23476969      -0.14472669      -1.54601669
14
Frame=4 idx=008995 GeodesicLength=0.4570564600486165 rxn_smarts="[C:1]([N:2]([C:3](=[O:4])[N:5](/[C:6](=[N:7]/[H:14])[H:13])[H:12])[H:11])([H:8])([H:9])[H:10]>>[C:1]([N:2](/[C:3]([O:4][H:14])=[N:5]\[H:12])[H:11])([H:8])([H:9])[H:10].[C:6](#[N:7])[H:13]"
C        2.33114273       0.33804312      -0.15639697
N        1.11976580       0.20087004       0.62428363
C       -0.07490119      -0.11787248       0.07564374
O       -0.14680619      -0.10258366      -1.21557436
N       -1.18020069      -0.19094422       0.78089934
C       -2.80533456      -0.26270622      -0.14103590
N       -2.80797280      -0.00809508      -1.30355050
H        2.14713563       0.97965754      -1.01518303
H        2.70706873      -0.62521158      -0.50999171
H        3.09279469       0.79586568       0.47329975
H        1.20153537       0.10364121       1.61937380
H       -1.10263572      -0.00426398       1.76949004
H       -3.21247786      -0.97955218       0.56090557
H       -1.26911393      -0.12684819      -1.56216341
14
Frame=5 idx=008995 GeodesicLength=0.5730962952489933 rxn_smarts="[C:1]([N:2]([C:3](=[O:4])[N:5](/[C:6](=[N:7]/[H:14])[H:13])[H:12])[H:11])([H:8])([H:9])[H:10]>>[C:1]([N:2](/[C:3]([O:4][H:14])=[N:5]\[H:12])[H:11])([H:8])([H:9])[H:10].[C:6](#[N:7])[H:13]"
C        2.33703746       0.32265574      -0.15077631
N        1.12014891       0.20661922       0.62410232
C       -0.07288491      -0.11616475       0.07384503
O       -0.15420156      -0.09558091      -1.21556519
N       -1.18021237      -0.17133131       0.78163925
C       -2.81926870      -0.27237692      -0.12769636
N       -2.85190812       0.03526474      -1.27899863
H        2.16168229       0.94851412      -1.02278174
H        2.71105333      -0.64928987      -0.48202614
H        3.09706173       0.78715529       0.47618991
H        1.19613449       0.12422164       1.62104044
H       -1.10646593       0.05609403       1.76196184
H       -3.13000634      -1.08581763       0.51742919
H       -1.30817029      -0.08996338      -1.57836360
14
Frame=6 idx=008995 GeodesicLength=0.6898643614066222 rxn_smarts="[C:1]([N:2]([C:3](=[O:4])[N:5](/[C:6](=[N:7]/[H:14])[H:13])[H:12])[H:11])([H:8])([H:9])[H:10]>>[C:1]([N:2](/[C:3]([O:4][H:14])=[N:5]\[H:12])[H:11])([H:8])([H:9])[H:10].[C:6](#[N:7])[H:13]"
C        2.34283059       0.30778075      -0.14516234
N        1.11996232       0.21691963       0.62304236
C       -0.06975133      -0.11738433       0.07205611
O       -0.16149451      -0.09142847      -1.21537830
N       -1.17784478      -0.16705852       0.78313965
C       -2.83238637      -0.28302415      -0.11177929
N       -2.89577519       0.08252172      -1.24659436
H        2.17643584       0.91151966      -1.03421549
H        2.71589307      -0.67405135      -0.44714923
H        3.10036456       0.78379209       0.47637059
H        1.18958192       0.15691242       1.62208496
H       -1.10933027       0.10276600       1.75303182
H       -3.04903357      -1.17677834       0.46300718
H       -1.34945226      -0.05248710      -1.59245365
14
Frame=7 idx=008995 GeodesicLength=0.8071219623221857 rxn_smarts="[C:1]([N:2]([C:3](=[O:4])[N:5](/[C:6](=[N:7]/[H:14])[H:13])[H:12])[H:11])([H:8])([H:9])[H:10]>>[C:1]([N:2](/[C:3]([O:4][H:14])=[N:5]\[H:12])[H:11])([H:8])([H:9])[H:10].[C:6](#[N:7])[H:13]"
C        2.34965523       0.28845696      -0.13820114
N        1.12011883       0.22965454       0.62191297
C       -0.06800939      -0.10668856       0.06841866
O       -0.17100847      -0.06623186      -1.21667712
N       -1.17622631      -0.15513326       0.78352857
C       -2.84454757      -0.30911720      -0.09598613
N       -2.94578404       0.10719333      -1.21259245
H        2.19703186       0.87319599      -1.04220429
H        2.71427862      -0.70444407      -0.41330393
H        3.10800596       0.76857238       0.47940085
H        1.18263801       0.18784473       1.62241103
H       -1.11417217       0.15632055       1.74134685
H       -2.95639003      -1.26398158       0.40786162
H       -1.39559054      -0.00564194      -1.60591548
14
Frame=8 idx=008995 GeodesicLength=0.9248860654105346 rxn_smarts="[C:1]([N:2]([C:3](=[O:4])[N:5](/[C:6](=[N:7]/[H:14])[H:13])[H:12])[H:11])([H:8])([H:9])[H:10]>>[C:1]([N:2](/[C:3]([O:4][H:14])=[N:5]\[H:12])[H:11])([H:8])([H:9])[H:10].[C:6](#[N:7])[H:13]"
C        2.35626541       0.27123782      -0.13114692
N        1.12030479       0.24387145       0.61978353
C       -0.06453001      -0.10212584       0.06476414
O       -0.17915049      -0.04893007      -1.21774973
N       -1.17242794      -0.15461988       0.78427023
C       -2.85555075      -0.33297340      -0.07918479
N       -2.99448353       0.13603040      -1.17265123
H        2.21566322       0.83091856      -1.05266023
H        2.71580548      -0.73199254      -0.37368216
H        3.11345353       0.76152038       0.48006373
H        1.17553263       0.22571696       1.62145050
H       -1.11782018       0.19584877       1.72899667
H       -2.86973626      -1.33287435       0.34506878
H       -1.44332588       0.03837175      -1.61732251
14
Frame=9 idx=008995 GeodesicLength=1.0432322128849991 rxn_smarts="[C:1]([N:2]([C:3](=[O:4])[N:5](/[C:6](=[N:7]/[H:14])[H:13])[H:12])[H:11])([H:8])([H:9])[H:10]>>[C:1]([N:2](/[C:3]([O:4][H:14])=[N:5]\[H:12])[H:11])([H:8])([H:9])[H:10].[C:6](#[N:7])[H:13]"
C        2.36333373       0.25253418      -0.12318540
N        1.12104110       0.25914563       0.61725240
C       -0.06093581      -0.09336099       0.05981828
O       -0.18752312      -0.02284542      -1.21963760
N       -1.16806907      -0.15295371       0.78416855
C       -2.86486530      -0.36394681      -0.06258962
N       -3.04596059       0.15359937      -1.12991513
H        2.23625226       0.78699970      -1.06137723
H        2.71503326      -0.76083662      -0.33310095
H        3.12043061       0.75088869       0.48180391
H        1.16862739       0.26314509       1.61950556
H       -1.12223141       0.23534721       1.71455253
H       -2.77999166      -1.39222935       0.28017372
H       -1.49514138       0.08451301      -1.62746903
14
Frame=10 idx=008995 GeodesicLength=1.1619388528793821 rxn_smarts="[C:1]([N:2]([C:3](=[O:4])[N:5](/[C:6](=[N:7]/[H:14])[H:13])[H:12])[H:11])([H:8])([H:9])[H:10]>>[C:1]([N:2](/[C:3]([O:4][H:14])=[N:5]\[H:12])[H:11])([H:8])([H:9])[H:10].[C:6](#[N:7])[H:13]"
C        2.37064590       0.23412298      -0.11459668
N        1.12225627       0.27486762       0.61398683
C       -0.05634030      -0.08566788       0.05404687
O       -0.19502484       0.00329079      -1.22191023
N       -1.16238955      -0.15484813       0.78345943
C       -2.87247246      -0.39735960      -0.04615563
N       -3.09787952       0.16712924      -1.08305518
H        2.25672777       0.74042192      -1.06984027
H        2.71499261      -0.78845275      -0.28937677
H        3.12711959       0.74243442       0.48306093
H        1.16185101       0.30239926       1.61624268
H       -1.12663732       0.26985454       1.69835911
H       -2.69275874      -1.43914230       0.21152880
H       -1.55009041       0.13094989      -1.63574987
14
Frame=11 idx=008995 GeodesicLength=1.281026279113938 rxn_smarts="[C:1]([N:2]([C:3](=[O:4])[N:5](/[C:6](=[N:7]/[H:14])[H:13])[H:12])[H:11])([H:8])([H:9])[H:10]>>[C:1]([N:2](/[C:3]([O:4][H:14])=[N:5]\[H:12])[H:11])([H:8])([H:9])[H:10].[C:6](#[N:7])[H:13]"
C        2.37829218       0.21555415      -0.10525922
N        1.12411312       0.29067465       0.61014257
C       -0.05094943      -0.07749469       0.04721570
O       -0.20167040       0.03150288      -1.22473412
N       -1.15568078      -0.15777881       0.78177424
C       -2.87808179      -0.43416025      -0.03037718
N       -3.15065743       0.17407860      -1.03297577
H        2.27745795       0.69177544      -1.07719741
H        2.71496307      -0.81519520      -0.24349557
H        3.13406371       0.73442732       0.48437699
H        1.15539598       0.34156170       1.61179738
H       -1.13129931       0.30181440       1.68018227
H       -2.60717024      -1.47498371       0.14070457
H       -1.60877663       0.17822351      -1.64215446
14
Frame=12 idx=008995 GeodesicLength=1.4004021230551325 rxn_smarts="[C:1]([N:2]([C:3](=[O:4])[N:5](/[C:6](=[N:7]/[H:14])[H:13])[H:12])[H:11])([H:8])([H:9])[H:10]>>[C:1]([N:2](/[C:3]([O:4][H:14])=[N:5]\[H:12])[H:11])([H:8])([H:9])[H:10].[C:6](#[N:7])[H:13]"
C        2.38633375       0.19734359      -0.09519964
N        1.12663670       0.30608760       0.60567062
C       -0.04453698      -0.07011221       0.03936203
O       -0.20698912       0.05930613      -1.22814459
N       -1.14787616      -0.16218476       0.77894815
C       -2.88175851      -0.47295133      -0.01552005
N       -3.20359476       0.17589652      -0.97973735
H        2.29802864       0.64115880      -1.08346286
H        2.71589373      -0.84016033      -0.19517751
H        3.14089726       0.72821391       0.48545183
H        1.14925672       0.38037007       1.60610690
H       -1.13598689       0.33054425       1.66005545
H       -2.52520254      -1.49949795       0.06809868
H       -1.67110183       0.22598572      -1.64645166
14
Frame=13 idx=008995 GeodesicLength=1.5200315827734396 rxn_smarts="[C:1]([N:2]([C:3](=[O:4])[N:5](/[C:6](=[N:7]/[H:14])[H:13])[H:12])[H:11])([H:8])([H:9])[H:10]>>[C:1]([N:2](/[C:3]([O:4][H:14])=[N:5]\[H:12])[H:11])([H:8])([H:9])[H:10].[C:6](#[N:7])[H:13]"
C        2.39485605       0.17946058      -0.08438457
N        1.12990272       0.32078385       0.60067443
C       -0.03712261      -0.06319667       0.03038952
O       -0.21075011       0.08670273      -1.23229390
N       -1.13915437      -0.16701197       0.77471234
C       -2.88342641      -0.51360122      -0.00188370
N       -3.25662540       0.17187248      -0.92384461
H        2.31854952       0.58907741      -1.08820408
H        2.71775162      -0.86323625      -0.14495786
H        3.14779806       0.72332175       0.48648474
H        1.14352029       0.41774517       1.59933845
H       -1.14074952       0.35713858       1.63779231
H       -2.44709903      -1.51333632      -0.00534809
H       -1.73745081       0.27427988      -1.64847497
14
Frame=14 idx=008995 GeodesicLength=1.6398416874767732 rxn_smarts="[C:1]([N:2]([C:3](=[O:4])[N:5](/[C:6](=[N:7]/[H:14])[H:13])[H:12])[H:11])([H:8])([H:9])[H:10]>>[C:1]([N:2](/[C:3]([O:4][H:14])=[N:5]\[H:12])[H:11])([H:8])([H:9])[H:10].[C:6](#[N:7])[H:13]"
C        2.40399766       0.16209386      -0.07274998
N        1.13389119       0.33474082       0.59503369
C       -0.02853469      -0.05739935       0.02021667
O       -0.21258321       0.11235425      -1.23738722
N       -1.12944293      -0.17275987       0.76885621
C       -2.88319829      -0.55537395       0.01034501
N       -3.30933533       0.16309656      -0.86498555
H        2.33914722       0.53529100      -1.09138335
H        2.72100662      -0.88404078      -0.09233224
H        3.15468315       0.72038401       0.48727391
H        1.13800069       0.45431791       1.59132847
H       -1.14540884       0.38098934       1.61334181
H       -2.37413100      -1.51688174      -0.07972353
H       -1.80809225       0.32318794      -1.64783388
14
Frame=15 idx=008995 GeodesicLength=1.7597927785481158 rxn_smarts="[C:1]([N:2]([C:3](=[O:4])[N:5](/[C:6](=[N:7]/[H:14])[H:13])[H:12])[H:11])([H:8])([H:9])[H:10]>>[C:1]([N:2](/[C:3]([O:4][H:14])=[N:5]\[H:12])[H:11])([H:8])([H:9])[H:10].[C:6](#[N:7])[H:13]"
C        2.41385252       0.14508954      -0.06021551
N        1.13865454       0.34791866       0.58877887
C       -0.01876559      -0.05231662       0.00870516
O       -0.21222987       0.13646566      -1.24367377
N       -1.11887413      -0.17867756       0.76109879
C       -2.88097766      -0.59833959       0.02090104
N       -3.36171076       0.14887011      -0.80334570
H        2.36013386       0.48004612      -1.09261984
H        2.72541017      -0.90268426      -0.03760090
H        3.16179827       0.71874422       0.48803767
H        1.13269188       0.48976513       1.58213575
H       -1.15001585       0.40295761       1.58645928
H       -2.30629768      -1.51079544      -0.15455728
H       -1.88366970       0.37295642      -1.64410356
14
Frame=16 idx=008995 GeodesicLength=1.8798182093222573 rxn_smarts="[C:1]([N:2]([C:3](=[O:4])[N:5](/[C:6](=[N:7]/[H:14])[H:13])[H:12])[H:11])([H:8])([H:9])[H:10]>>[C:1]([N:2](/[C:3]([O:4][H:14])=[N:5]\[H:12])[H:11])([H:8])([H:9])[H:10].[C:6](#[N:7])[H:13]"
C        2.42453526       0.12845417      -0.04669729
N        1.14422803       0.36016803       0.58191633
C       -0.00772804      -0.04803548      -0.00425717
O       -0.20929693       0.15851853      -1.25144265
N       -1.10755884      -0.18434496       0.75115613
C       -2.87676434      -0.64224466       0.02954919
N       -3.41359844       0.12896578      -0.73898116
H        2.38177825       0.42369620      -1.09159008
H        2.73099150      -0.91907378       0.01900619
H        3.16925255       0.71815303       0.48900037
H        1.12755318       0.52383145       1.57178573
H       -1.15456803       0.42366691       1.55680313
H       -2.24401634      -1.49544653      -0.22951915
H       -1.96480781       0.42369132      -1.63672958
