16
Frame=0 idx=009850 GeodesicLength=0.0 rxn_smarts="[O:1]([C@@:2]1([H:9])[C:3]([H:10])([H:11])[C@:4]2([C:5]([H:12])([H:13])[N:6]2[H:14])[C:7]1([H:15])[H:16])[H:8]>>[O:1]([C:2]([C:7]([C@@:4]12[C-:3]([H:11])[N+:6]1([H:14])[C:5]2([H:12])[H:13])([H:15])[H:16])([H:9])[H:10])[H:8]"
O       -2.34178664      -1.47525923       0.68439934
C       -1.35321216      -0.78351006       0.00608499
C       -0.64231784       1.50791360      -0.04047073
C        0.52550374       0.56529991      -0.02912377
C        1.61077802       0.48070156      -1.03690142
N        1.80215087       1.20699677       0.22127572
C        0.00819257      -0.66762090       0.67106352
H       -2.37269379      -1.16492308       1.59311804
H       -1.29399518      -1.19078016      -1.00327676
H       -1.69397255       0.32871934      -0.09837450
H       -0.80409776       1.88714705      -1.06768866
H        1.58469854       1.10728705      -1.92179440
H        2.11934933      -0.47087378      -1.16210437
H        2.35772316       0.67911097       0.88322309
H        0.62277857      -1.56301919       0.56575576
H       -0.12909893      -0.44718988       1.73481412
16
Frame=1 idx=009850 GeodesicLength=0.07964797630087975 rxn_smarts="[O:1]([C@@:2]1([H:9])[C:3]([H:10])([H:11])[C@:4]2([C:5]([H:12])([H:13])[N:6]2[H:14])[C:7]1([H:15])[H:16])[H:8]>>[O:1]([C:2]([C:7]([C@@:4]12[C-:3]([H:11])[N+:6]1([H:14])[C:5]2([H:12])[H:13])([H:15])[H:16])([H:9])[H:10])[H:8]"
O       -2.34375021      -1.47056008       0.70624368
C       -1.36538639      -0.77772218       0.01028618
C       -0.63158899       1.49285733      -0.05777906
C        0.52582939       0.54171164      -0.04866405
C        1.62990506       0.48485337      -1.03442707
N        1.77762192       1.22196707       0.22405385
C        0.00889944      -0.68695690       0.65522815
H       -2.36928386      -1.14818711       1.61087068
H       -1.33090766      -1.18788804      -0.99925469
H       -1.71965682       0.34855179      -0.07095810
H       -0.79199723       1.87740992      -1.08231443
H        1.60471197       1.10807156      -1.92172264
H        2.16455395      -0.45425292      -1.14484593
H        2.33199183       0.71327644       0.90185359
H        0.61349901      -1.58618205       0.52772749
H       -0.10444143      -0.47694984       1.72370235
16
Frame=2 idx=009850 GeodesicLength=0.1588985752952365 rxn_smarts="[O:1]([C@@:2]1([H:9])[C:3]([H:10])([H:11])[C@:4]2([C:5]([H:12])([H:13])[N:6]2[H:14])[C:7]1([H:15])[H:16])[H:8]>>[O:1]([C:2]([C:7]([C@@:4]12[C-:3]([H:11])[N+:6]1([H:14])[C:5]2([H:12])[H:13])([H:15])[H:16])([H:9])[H:10])[H:8]"
O       -2.34513723      -1.46496489       0.72817434
C       -1.37702214      -0.77154988       0.01463307
C       -0.62144976       1.47722633      -0.07606943
C        0.52651364       0.51854218      -0.06821442
C        1.64877336       0.48927821      -1.03126399
N        1.75236286       1.23596756       0.22663701
C        0.00965038      -0.70623248       0.63886153
H       -2.36449221      -1.13144093       1.62884337
H       -1.36738278      -1.18477893      -0.99442002
H       -1.74350797       0.36913690      -0.04242831
H       -0.78024532       1.86664060      -1.09808206
H        1.62522522       1.10912659      -1.92095040
H        2.20848217      -0.43688958      -1.12630493
H        2.30428767       0.74631722       0.92024098
H        0.60355623      -1.60902037       0.48879962
H       -0.07961413      -0.50735854       1.71154365
16
Frame=3 idx=009850 GeodesicLength=0.23781823264508006 rxn_smarts="[O:1]([C@@:2]1([H:9])[C:3]([H:10])([H:11])[C@:4]2([C:5]([H:12])([H:13])[N:6]2[H:14])[C:7]1([H:15])[H:16])[H:8]>>[O:1]([C:2]([C:7]([C@@:4]12[C-:3]([H:11])[N+:6]1([H:14])[C:5]2([H:12])[H:13])([H:15])[H:16])([H:9])[H:10])[H:8]"
O       -2.34594172      -1.45849255       0.75022555
C       -1.38809084      -0.76507149       0.01910224
C       -0.61195349       1.46103290      -0.09529344
C        0.52754061       0.49580956      -0.08772506
C        1.66733091       0.49398687      -1.02740160
N        1.72644771       1.24902519       0.22901143
C        0.01044020      -0.72547715       0.62197792
H       -2.35836136      -1.11451107       1.64701576
H       -1.40337336      -1.18156117      -0.98877469
H       -1.76542651       0.39044262      -0.01298120
H       -0.76885311       1.85492449      -1.11494622
H        1.64614661       1.11050389      -1.91945630
H        2.25107300      -0.41882588      -1.10647821
H        2.27469160       0.77819867       0.93836174
H        0.59297447      -1.63151288       0.44902621
H       -0.05464471      -0.53847200       1.69833586
16
Frame=4 idx=009850 GeodesicLength=0.3164291826411443 rxn_smarts="[O:1]([C@@:2]1([H:9])[C:3]([H:10])([H:11])[C@:4]2([C:5]([H:12])([H:13])[N:6]2[H:14])[C:7]1([H:15])[H:16])[H:8]>>[O:1]([C:2]([C:7]([C@@:4]12[C-:3]([H:11])[N+:6]1([H:14])[C:5]2([H:12])[H:13])([H:15])[H:16])([H:9])[H:10])[H:8]"
O       -2.34611604      -1.45114322       0.77240753
C       -1.39853826      -0.75835650       0.02366615
C       -0.60313142       1.44428466      -0.11537793
C        0.52888708       0.47351261      -0.10713700
C        1.68550522       0.49897331      -1.02282365
N        1.69990130       1.26115328       0.23117088
C        0.01126222      -0.74470407       0.60459740
H       -2.35090327      -1.09723348       1.66534158
H       -1.43878939      -1.17833479      -0.98232477
H       -1.78529495       0.41243371       0.01718962
H       -0.75780066       1.84233489      -1.13281693
H        1.66736691       1.11222040      -1.91719600
H        2.29221822      -0.40012066      -1.08539742
H        2.24324227       0.80888982       0.95616729
H        0.58177923      -1.65361112       0.40846268
H       -0.02958846      -0.57029883       1.68407057
16
Frame=5 idx=009850 GeodesicLength=0.39478600482309145 rxn_smarts="[O:1]([C@@:2]1([H:9])[C:3]([H:10])([H:11])[C@:4]2([C:5]([H:12])([H:13])[N:6]2[H:14])[C:7]1([H:15])[H:16])[H:8]>>[O:1]([C:2]([C:7]([C@@:4]12[C-:3]([H:11])[N+:6]1([H:14])[C:5]2([H:12])[H:13])([H:15])[H:16])([H:9])[H:10])[H:8]"
O       -2.34564700      -1.44295436       0.79474873
C       -1.40834892      -0.75149171       0.02829311
C       -0.59499305       1.42703333      -0.13626793
C        0.53054017       0.45165303      -0.12640786
C        1.70324342       0.50423764      -1.01751418
N        1.67277890       1.27240174       0.23311175
C        0.01211285      -0.76394757       0.58674602
H       -2.34213092      -1.07948669       1.68379444
H       -1.47361689      -1.17522202      -0.97508923
H       -1.80303717       0.43509357       0.04787079
H       -0.74707089       1.82900058      -1.15163174
H        1.68878677       1.11431027      -1.91413706
H        2.33183782      -0.38085108      -1.06307730
H        2.21002295       0.83839433       0.97362956
H        0.56999311      -1.67531310       0.36717669
H       -0.00447115      -0.60285795       1.66875419
16
Frame=6 idx=009850 GeodesicLength=0.4728878472047182 rxn_smarts="[O:1]([C@@:2]1([H:9])[C:3]([H:10])([H:11])[C@:4]2([C:5]([H:12])([H:13])[N:6]2[H:14])[C:7]1([H:15])[H:16])[H:8]>>[O:1]([C:2]([C:7]([C@@:4]12[C-:3]([H:11])[N+:6]1([H:14])[C:5]2([H:12])[H:13])([H:15])[H:16])([H:9])[H:10])[H:8]"
O       -2.34442176      -1.43379048       0.81731672
C       -1.41742630      -0.74451841       0.03298150
C       -0.58753622       1.40911226      -0.15784075
C        0.53244898       0.43016970      -0.14552293
C        1.72047595       0.50980132      -1.01147399
N        1.64498894       1.28268036       0.23481640
C        0.01296270      -0.78320325       0.56839188
H       -2.33200230      -1.06098153       1.70233315
H       -1.50770865      -1.17225475      -0.96700894
H       -1.81854938       0.45834112       0.07883942
H       -0.73656227       1.81480661      -1.17119867
H        1.71033544       1.11680283      -1.91022110
H        2.36989055      -0.36090308      -1.03956042
H        2.17487710       0.86660371       0.99068157
H        0.55762255      -1.69649991       0.32515418
H        0.02060467      -0.63616649       1.65231199
16
Frame=7 idx=009850 GeodesicLength=0.5508291278534402 rxn_smarts="[O:1]([C@@:2]1([H:9])[C:3]([H:10])([H:11])[C@:4]2([C:5]([H:12])([H:13])[N:6]2[H:14])[C:7]1([H:15])[H:16])[H:8]>>[O:1]([C:2]([C:7]([C@@:4]12[C-:3]([H:11])[N+:6]1([H:14])[C:5]2([H:12])[H:13])([H:15])[H:16])([H:9])[H:10])[H:8]"
O       -2.34245745      -1.42375345       0.84020612
C       -1.42584684      -0.73753735       0.03769257
C       -0.58079115       1.39070818      -0.18013256
C        0.53461383       0.40908294      -0.16448182
C        1.73721953       0.51565172      -1.00465517
N        1.61660696       1.29211602       0.23632981
C        0.01382413      -0.80254285       0.54952039
H       -2.32045681      -1.04168285       1.72101279
H       -1.54125169      -1.16959910      -0.95812232
H       -1.83185130       0.48222817       0.10993016
H       -0.72634062       1.79998302      -1.19160023
H        1.73200558       1.11974314      -1.90540444
H        2.40638742      -0.34045194      -1.01477875
H        2.13793689       0.89358340       1.00739558
H        0.54468189      -1.71725446       0.28237151
H        0.04571964      -0.67027459       1.63471637
16
Frame=8 idx=009850 GeodesicLength=0.6287195257780883 rxn_smarts="[O:1]([C@@:2]1([H:9])[C:3]([H:10])([H:11])[C@:4]2([C:5]([H:12])([H:13])[N:6]2[H:14])[C:7]1([H:15])[H:16])[H:8]>>[O:1]([C:2]([C:7]([C@@:4]12[C-:3]([H:11])[N+:6]1([H:14])[C:5]2([H:12])[H:13])([H:15])[H:16])([H:9])[H:10])[H:8]"
O       -2.33964802      -1.41271269       0.86363453
C       -1.43361657      -0.73058826       0.04244675
C       -0.57474792       1.37171437      -0.20319850
C        0.53699306       0.38831660      -0.18334180
C        1.75347538       0.52182532      -0.99699515
N        1.58750816       1.30069289       0.23769944
C        0.01467158      -0.82204944       0.52999584
H       -2.30730569      -1.02130870       1.73995528
H       -1.57439637      -1.16727367      -0.94836314
H       -1.84288519       0.50676207       0.14099842
H       -0.71633533       1.78438695      -1.21289240
H        1.75386587       1.12320522      -1.89956907
H        2.44142775      -0.31935507      -0.98861029
H        2.09897419       0.91932412       1.02384206
H        0.53110809      -1.73758185       0.23857957
H        0.07091103      -0.70535788       1.61581848
16
Frame=9 idx=009850 GeodesicLength=0.7065435944779034 rxn_smarts="[O:1]([C@@:2]1([H:9])[C:3]([H:10])([H:11])[C@:4]2([C:5]([H:12])([H:13])[N:6]2[H:14])[C:7]1([H:15])[H:16])[H:8]>>[O:1]([C:2]([C:7]([C@@:4]12[C-:3]([H:11])[N+:6]1([H:14])[C:5]2([H:12])[H:13])([H:15])[H:16])([H:9])[H:10])[H:8]"
O       -2.33591224      -1.40072522       0.88750070
C       -1.44066074      -0.72376018       0.04718107
C       -0.56937768       1.35217998      -0.22682426
C        0.53957688       0.36787593      -0.20202887
C        1.76913646       0.52829881      -0.98853525
N        1.55776915       1.30838403       0.23888038
C        0.01549612      -0.84168301       0.50994716
H       -2.29258121      -0.99980423       1.75897278
H       -1.60693656      -1.16541267      -0.93774917
H       -1.85165190       0.53191225       0.17170914
H       -0.70650582       1.76822799      -1.23479084
H        1.77570010       1.12719157      -1.89273748
H        2.47481230      -0.29774104      -0.96120477
H        2.05812310       0.94370792       1.03989143
H        0.51697730      -1.75741005       0.19409298
H        0.09603474      -0.74124208       1.59569499
16
Frame=10 idx=009850 GeodesicLength=0.7844660978467146 rxn_smarts="[O:1]([C@@:2]1([H:9])[C:3]([H:10])([H:11])[C@:4]2([C:5]([H:12])([H:13])[N:6]2[H:14])[C:7]1([H:15])[H:16])[H:8]>>[O:1]([C:2]([C:7]([C@@:4]12[C-:3]([H:11])[N+:6]1([H:14])[C:5]2([H:12])[H:13])([H:15])[H:16])([H:9])[H:10])[H:8]"
O       -2.33119261      -1.38773188       0.91204098
C       -1.44705943      -0.71711488       0.05190849
C       -0.56467961       1.33209651      -0.25112557
C        0.54234818       0.34772688      -0.22061869
C        1.78424344       0.53512244      -0.97919877
N        1.52734111       1.31523782       0.23993231
C        0.01628789      -0.86156199       0.48924671
H       -2.27605315      -0.97697282       1.77820930
H       -1.63916396      -1.16409322      -0.92620621
H       -1.85817822       0.55776713       0.20188702
H       -0.69684426       1.75147217      -1.25745668
H        1.79759815       1.13181502      -1.88481756
H        2.50666732      -0.27553468      -0.93235441
H        2.01525365       0.96674434       1.05567161
H        0.50220830      -1.77684447       0.14867085
H        0.12122319      -0.77812838       1.57421063
16
Frame=11 idx=009850 GeodesicLength=0.8624043341413258 rxn_smarts="[O:1]([C@@:2]1([H:9])[C:3]([H:10])([H:11])[C@:4]2([C:5]([H:12])([H:13])[N:6]2[H:14])[C:7]1([H:15])[H:16])[H:8]>>[O:1]([C:2]([C:7]([C@@:4]12[C-:3]([H:11])[N+:6]1([H:14])[C:5]2([H:12])[H:13])([H:15])[H:16])([H:9])[H:10])[H:8]"
O       -2.32522582      -1.37360510       0.93733680
C       -1.45272063      -0.71063853       0.05664162
C       -0.56063190       1.31137917      -0.27606265
C        0.54526031       0.32779986      -0.23910585
C        1.79873393       0.54222583      -0.96889678
N        1.49602010       1.32115331       0.24084433
C        0.01700125      -0.88162327       0.46778783
H       -2.25751344      -0.95267988       1.79764324
H       -1.67095348      -1.16323750      -0.91364840
H       -1.86237990       0.58423569       0.23149732
H       -0.68722896       1.73398016      -1.28077491
H        1.81957227       1.13698016      -1.87561646
H        2.53690092      -0.25274374      -0.90203376
H        1.97005968       0.98836651       1.07108431
H        0.48677932      -1.79562589       0.10214042
H        0.14632635      -0.81596679       1.55116294
16
Frame=12 idx=009850 GeodesicLength=0.9405285018193116 rxn_smarts="[O:1]([C@@:2]1([H:9])[C:3]([H:10])([H:11])[C@:4]2([C:5]([H:12])([H:13])[N:6]2[H:14])[C:7]1([H:15])[H:16])[H:8]>>[O:1]([C:2]([C:7]([C@@:4]12[C-:3]([H:11])[N+:6]1([H:14])[C:5]2([H:12])[H:13])([H:15])[H:16])([H:9])[H:10])[H:8]"
O       -2.31800317      -1.35841786       0.96343354
C       -1.45771039      -0.70445949       0.06132981
C       -0.55720243       1.29011740      -0.30156969
C        0.54832751       0.30811627      -0.25749139
C        1.81257607       0.54966837      -0.95764560
N        1.46396851       1.32618994       0.24164213
C        0.01764285      -0.90196028       0.44564625
H       -2.23685855      -0.92682396       1.81720841
H       -1.70245824      -1.16305120      -0.90005816
H       -1.86440066       0.61143518       0.26009262
H       -0.67770142       1.71597306      -1.30470560
H        1.84149492       1.14285727      -1.86516887
H        2.56547517      -0.22941511      -0.87021202
H        1.92275779       1.00847669       1.08616540
H        0.47068668      -1.81392897       0.05470462
H        0.17140537      -0.85477732       1.52662855
16
Frame=13 idx=009850 GeodesicLength=1.018867217325484 rxn_smarts="[O:1]([C@@:2]1([H:9])[C:3]([H:10])([H:11])[C@:4]2([C:5]([H:12])([H:13])[N:6]2[H:14])[C:7]1([H:15])[H:16])[H:8]>>[O:1]([C:2]([C:7]([C@@:4]12[C-:3]([H:11])[N+:6]1([H:14])[C:5]2([H:12])[H:13])([H:15])[H:16])([H:9])[H:10])[H:8]"
O       -2.30934725      -1.34214890       0.99028931
C       -1.46197030      -0.69861664       0.06593671
C       -0.55434922       1.26830814      -0.32750492
C        0.55153343       0.28864824      -0.27573393
C        1.82567579       0.55740513      -0.94544290
N        1.43116611       1.33028586       0.24231159
C        0.01820048      -0.92253542       0.42286605
H       -2.21398242      -0.89933983       1.83676612
H       -1.73354375      -1.16355722      -0.88541782
H       -1.86429897       0.63935542       0.28744189
H       -0.66820310       1.69751489      -1.32904481
H        1.86323264       1.14941534      -1.85342187
H        2.59225278      -0.20561740      -0.83696450
H        1.87332626       1.02696057       1.10081719
H        0.45397554      -1.83165005       0.00648579
H        0.19633197      -0.89442813       1.50061609
16
Frame=14 idx=009850 GeodesicLength=1.0974658919898668 rxn_smarts="[O:1]([C@@:2]1([H:9])[C:3]([H:10])([H:11])[C@:4]2([C:5]([H:12])([H:13])[N:6]2[H:14])[C:7]1([H:15])[H:16])[H:8]>>[O:1]([C:2]([C:7]([C@@:4]12[C-:3]([H:11])[N+:6]1([H:14])[C:5]2([H:12])[H:13])([H:15])[H:16])([H:9])[H:10])[H:8]"
O       -2.29912899      -1.32482310       1.01783923
C       -1.46547672      -0.69316920       0.07041782
C       -0.55202011       1.24598713      -0.35371101
C        0.55487311       0.26938603      -0.29378612
C        1.83795050       0.56540161      -0.93230782
N        1.39766772       1.33340956       0.24283790
C        0.01866690      -0.94332322       0.39952590
H       -2.18882286      -0.87019796       1.85614843
H       -1.76411757      -1.16481118      -0.86972140
H       -1.86220388       0.66800154       0.31327493
H       -0.65870510       1.67872944      -1.35358260
H        1.88463197       1.15665003      -1.84036306
H        2.61712079      -0.18143389      -0.80237989
H        1.82186774       1.04371106       1.11494505
H        0.43669564      -1.84873925      -0.04232352
H        0.22100087      -0.93477859       1.47318615
16
Frame=15 idx=009850 GeodesicLength=1.1763867508949695 rxn_smarts="[O:1]([C@@:2]1([H:9])[C:3]([H:10])([H:11])[C@:4]2([C:5]([H:12])([H:13])[N:6]2[H:14])[C:7]1([H:15])[H:16])[H:8]>>[O:1]([C:2]([C:7]([C@@:4]12[C-:3]([H:11])[N+:6]1([H:14])[C:5]2([H:12])[H:13])([H:15])[H:16])([H:9])[H:10])[H:8]"
O       -2.28723679      -1.30647063       1.04598425
C       -1.46821267      -0.68817121       0.07472944
C       -0.55015196       1.22319199      -0.38001558
C        0.55834203       0.25032399      -0.31159268
C        1.84931612       0.57361805      -0.91827684
N        1.36354917       1.33553011       0.24320991
C        0.01903938      -0.96429229       0.37572268
H       -2.16133858      -0.83940352       1.87516122
H       -1.79408355      -1.16684556      -0.85297428
H       -1.85828930       0.69738080       0.33733410
H       -0.64918339       1.65973630      -1.37809227
H        1.90552801       1.16455102      -1.82599982
H        2.63997788      -0.15694747      -0.76657868
H        1.76852834       1.05862390       1.12845187
H        0.41891126      -1.86516058      -0.09150002
H        0.24530406      -0.97566489       1.44443669
16
Frame=16 idx=009850 GeodesicLength=1.255612727792025 rxn_smarts="[O:1]([C@@:2]1([H:9])[C:3]([H:10])([H:11])[C@:4]2([C:5]([H:12])([H:13])[N:6]2[H:14])[C:7]1([H:15])[H:16])[H:8]>>[O:1]([C:2]([C:7]([C@@:4]12[C-:3]([H:11])[N+:6]1([H:14])[C:5]2([H:12])[H:13])([H:15])[H:16])([H:9])[H:10])[H:8]"
O       -2.27363472      -1.28723528       1.07442646
C       -1.47013779      -0.68369366       0.07877324
C       -0.54866271       1.20004114      -0.40606091
C        0.56194731       0.23148169      -0.32902875
C        1.85965172       0.58197317      -0.90349241
N        1.32902022       1.33661896       0.24338077
C        0.01933260      -0.98534090       0.35170725
H       -2.13174251      -0.80708980       1.89344592
H       -1.82314850      -1.16972009      -0.83530292
H       -1.85279583       0.72745523       0.35936407
H       -0.63966148       1.64081482      -1.40212458
H        1.92561234       1.17303664      -1.81047694
H        2.66066564      -0.13235050      -0.72990292
H        1.71372720       1.07158932       1.14115783
H        0.40079699      -1.88085346      -0.14052901
H        0.26902952      -1.01672728       1.41466291
