16
Frame=0 idx=007619 GeodesicLength=0.0 rxn_smarts="[C:1]([C@@:2]1([H:11])[N:3]([H:12])[C@:4]1([C:5]([C:6](=[O:7])[H:16])([H:14])[H:15])[H:13])([H:8])([H:9])[H:10]>>[C:1](=[C:2]([N:3]([C:4](=[C:5]([H:14])[H:15])[H:13])[H:12])[H:11])([H:8])[H:9].[C:6](=[O:7])([H:10])[H:16]"
C       -1.25707974      -0.29210893       1.02728258
C       -1.42336702       0.22031809      -0.23924698
N       -0.92623390       1.52530956      -0.56122609
C        0.18771255       0.78537552      -1.05989978
C        1.31091998       0.54326635      -0.29102352
C        1.20369218      -1.23519050       0.56215636
O        1.07344356      -2.16597736      -0.19842892
H       -1.09247693       0.39385858       1.85171792
H       -1.70625556      -1.24951557       1.26067602
H        0.16410350      -0.70112414       0.95535008
H       -1.90538967      -0.36665292      -1.01517963
H       -1.45583984       1.95841525      -1.30534905
H        0.13914303       0.40521844      -2.07657107
H        1.45995385       1.15369065       0.59359323
H        2.20693811       0.24309216      -0.82089638
H        2.02073596      -1.21797522       1.31704523
16
Frame=1 idx=007619 GeodesicLength=0.09077289240988709 rxn_smarts="[C:1]([C@@:2]1([H:11])[N:3]([H:12])[C@:4]1([C:5]([C:6](=[O:7])[H:16])([H:14])[H:15])[H:13])([H:8])([H:9])[H:10]>>[C:1](=[C:2]([N:3]([C:4](=[C:5]([H:14])[H:15])[H:13])[H:12])[H:11])([H:8])[H:9].[C:6](=[O:7])([H:10])[H:16]"
C       -1.25834805      -0.27894479       1.03994850
C       -1.42188223       0.21666765      -0.23611684
N       -0.93542595       1.51748647      -0.58313476
C        0.19191711       0.78289933      -1.05471385
C        1.31252775       0.55424322      -0.27464576
C        1.21169173      -1.25176721       0.54067618
O        1.06974796      -2.16595058      -0.23737901
H       -1.07230588       0.42008662       1.84881713
H       -1.74486470      -1.21246355       1.29438807
H        0.15807105      -0.72736135       0.97216664
H       -1.91138943      -0.37994075      -0.99985589
H       -1.46285859       1.92732787      -1.34172781
H        0.16448398       0.40627594      -2.07346830
H        1.43520449       1.15227947       0.62241252
H        2.22378157       0.29605765      -0.80110697
H        2.03964921      -1.25689600       1.28374016
16
Frame=2 idx=007619 GeodesicLength=0.18123114958341058 rxn_smarts="[C:1]([C@@:2]1([H:11])[N:3]([H:12])[C@:4]1([C:5]([C:6](=[O:7])[H:16])([H:14])[H:15])[H:13])([H:8])([H:9])[H:10]>>[C:1](=[C:2]([N:3]([C:4](=[C:5]([H:14])[H:15])[H:13])[H:12])[H:11])([H:8])[H:9].[C:6](=[O:7])([H:10])[H:16]"
C       -1.25937342      -0.26643923       1.05218331
C       -1.42038184       0.21298507      -0.23291105
N       -0.94402855       1.50896365      -0.60459806
C        0.19611456       0.78033250      -1.04958712
C        1.31399901       0.56457394      -0.25862863
C        1.21987449      -1.26767684       0.51939986
O        1.06701489      -2.16596276      -0.27461858
H       -1.05197360       0.44454073       1.84542331
H       -1.78361384      -1.17333698       1.32720229
H        0.15127789      -0.75489453       0.98852357
H       -1.91818545      -0.39239483      -0.98426905
H       -1.46891690       1.89561207      -1.37691896
H        0.18984869       0.40844384      -2.07044417
H        1.41105400       1.15004804       0.64982094
H        2.23895052       0.34873770      -0.78073341
H        2.05833954      -1.29353239       1.25015575
16
Frame=3 idx=007619 GeodesicLength=0.27137403429712437 rxn_smarts="[C:1]([C@@:2]1([H:11])[N:3]([H:12])[C@:4]1([C:5]([C:6](=[O:7])[H:16])([H:14])[H:15])[H:13])([H:8])([H:9])[H:10]>>[C:1](=[C:2]([N:3]([C:4](=[C:5]([H:14])[H:15])[H:13])[H:12])[H:11])([H:8])[H:9].[C:6](=[O:7])([H:10])[H:16]"
C       -1.26017506      -0.25462790       1.06400942
C       -1.41886788       0.20924235      -0.22964552
N       -0.95206355       1.49974550      -0.62561309
C        0.20029848       0.77765207      -1.04453480
C        1.31536605       0.57427690      -0.24299399
C        1.22824960      -1.28296731       0.49836799
O        1.06519402      -2.16610858      -0.31019384
H       -1.03152092       0.46722308       1.84158575
H       -1.82234626      -1.13206939       1.35905270
H        0.14370359      -0.78364192       1.00441643
H       -1.92579456      -0.40401621      -0.96842404
H       -1.47406061       1.86329124      -1.41091031
H        0.21521420       0.41176302      -2.06751283
H        1.38752579       1.14707115       0.67585812
H        2.25246008       0.40115488      -0.75989570
H        2.07681703      -1.32798887       1.21643372
16
Frame=4 idx=007619 GeodesicLength=0.3612142559801424 rxn_smarts="[C:1]([C@@:2]1([H:11])[N:3]([H:12])[C@:4]1([C:5]([C:6](=[O:7])[H:16])([H:14])[H:15])[H:13])([H:8])([H:9])[H:10]>>[C:1](=[C:2]([N:3]([C:4](=[C:5]([H:14])[H:15])[H:13])[H:12])[H:11])([H:8])[H:9].[C:6](=[O:7])([H:10])[H:16]"
C       -1.26076185      -0.24354562       1.07545188
C       -1.41733980       0.20540845      -0.22633107
N       -0.95955411       1.48984175      -0.64618531
C        0.20446642       0.77482649      -1.03957450
C        1.31666264       0.58336393      -0.22776370
C        1.23681395      -1.29769942       0.47760133
O        1.06422673      -2.16648089      -0.34417657
H       -1.01098656       0.48814297       1.83735230
H       -1.86091505      -1.08858053       1.38993440
H        0.13531991      -0.81352864       1.01983832
H       -1.93423269      -0.41481263      -0.95232723
H       -1.47834878       1.83038837      -1.44373564
H        0.24057298       0.41626418      -2.06468594
H        1.36463634       1.14340304       0.70056482
H        2.26433148       0.45340754      -0.73863792
H        2.09510838      -1.36039902       1.18267486
16
Frame=5 idx=007619 GeodesicLength=0.45067896833869836 rxn_smarts="[C:1]([C@@:2]1([H:11])[N:3]([H:12])[C@:4]1([C:5]([C:6](=[O:7])[H:16])([H:14])[H:15])[H:13])([H:8])([H:9])[H:10]>>[C:1](=[C:2]([N:3]([C:4](=[C:5]([H:14])[H:15])[H:13])[H:12])[H:11])([H:8])[H:9].[C:6](=[O:7])([H:10])[H:16]"
C       -1.26113150      -0.23324604       1.08652092
C       -1.41579966       0.20145431      -0.22297981
N       -0.96651667       1.47925685      -0.66631580
C        0.20861426       0.77182109      -1.03473233
C        1.31792487       0.59184319      -0.21297389
C        1.24554657      -1.31193144       0.45713406
O        1.06409763      -2.16716314      -0.37662216
H       -0.99040814       0.50727753       1.83276047
H       -1.89913755      -1.04277110       1.41985383
H        0.12607858      -0.84450728       1.03474302
H       -1.94352271      -0.42476885      -0.93598107
H       -1.48182353       1.79693472      -1.47540005
H        0.26591516       0.42198692      -2.06197437
H        1.34240309       1.13909077       0.72396161
H        2.27455506       0.50558067      -0.71699627
H        2.11320454      -1.39085820       1.14900184
16
Frame=6 idx=007619 GeodesicLength=0.5398249832983109 rxn_smarts="[C:1]([C@@:2]1([H:11])[N:3]([H:12])[C@:4]1([C:5]([C:6](=[O:7])[H:16])([H:14])[H:15])[H:13])([H:8])([H:9])[H:10]>>[C:1](=[C:2]([N:3]([C:4](=[C:5]([H:14])[H:15])[H:13])[H:12])[H:11])([H:8])[H:9].[C:6](=[O:7])([H:10])[H:16]"
C       -1.26134147      -0.22374589       1.09724017
C       -1.41424684       0.19734350      -0.21961441
N       -0.97297247       1.46799208      -0.68601643
C        0.21274232       0.76860043      -1.03001573
C        1.31918191       0.59973515      -0.19862787
C        1.25445249      -1.32572637       0.43697172
O        1.06468838      -2.16822577      -0.40759776
H       -0.96983967       0.52467431       1.82783576
H       -1.93671420      -0.99457738       1.44874379
H        0.11596489      -0.87648131       1.04918621
H       -1.95367318      -0.43389974      -0.91939910
H       -1.48452445       1.76293631      -1.50593495
H        0.29123371       0.42897471      -2.05937234
H        1.32080750       1.13417269       0.74611111
H        2.28308451       0.55773947      -0.69496728
H        2.13115656      -1.41951219       1.11545711
16
Frame=7 idx=007619 GeodesicLength=0.6286478068301756 rxn_smarts="[C:1]([C@@:2]1([H:11])[N:3]([H:12])[C@:4]1([C:5]([C:6](=[O:7])[H:16])([H:14])[H:15])[H:13])([H:8])([H:9])[H:10]>>[C:1](=[C:2]([N:3]([C:4](=[C:5]([H:14])[H:15])[H:13])[H:12])[H:11])([H:8])[H:9].[C:6](=[O:7])([H:10])[H:16]"
C       -1.26143719      -0.21506020       1.10763282
C       -1.41268253       0.19305025      -0.21625225
N       -0.97894272       1.45604436      -0.70530832
C        0.21685014       0.76513846      -1.02543405
C        1.32045848       0.60706701      -0.18472816
C        1.26352443      -1.33913537       0.41712085
O        1.06590823      -2.16972005      -0.43716785
H       -0.94933575       0.54035317       1.82260071
H       -1.97332976      -0.94395085       1.47653697
H        0.10494757      -0.90937497       1.06318894
H       -1.96468899      -0.44219383      -0.90257092
H       -1.48648123       1.72838858      -1.53537190
H        0.31651449       0.43726356      -2.05686191
H        1.29983509       1.12868709       0.76706495
H        2.28987700       0.60992313      -0.67254043
H        2.14898273      -1.44648034       1.08209053
16
Frame=8 idx=007619 GeodesicLength=0.7171918284657904 rxn_smarts="[C:1]([C@@:2]1([H:11])[N:3]([H:12])[C@:4]1([C:5]([C:6](=[O:7])[H:16])([H:14])[H:15])[H:13])([H:8])([H:9])[H:10]>>[C:1](=[C:2]([N:3]([C:4](=[C:5]([H:14])[H:15])[H:13])[H:12])[H:11])([H:8])[H:9].[C:6](=[O:7])([H:10])[H:16]"
C       -1.26146939      -0.20719179       1.11771770
C       -1.41110668       0.18853795      -0.21291696
N       -0.98444807       1.44341305      -0.72421831
C        0.22094140       0.76139965      -1.02099858
C        1.32177254       0.61386894      -0.17126808
C        1.27275886      -1.35221519       0.39756185
O        1.06765630      -2.17169072      -0.46540722
H       -0.92893259       0.55435834       1.81707012
H       -2.00864825      -0.89083080       1.50320282
H        0.09299145      -0.94312365       1.07679568
H       -1.97657440      -0.44966119      -0.88550462
H       -1.48772094       1.69328502      -1.56376906
H        0.34175659       0.44689637      -2.05441041
H        1.27944639       1.12265795       0.78688840
H        2.29486312       0.66218972      -0.64965334
H        2.16671369      -1.47189365       1.04891001
16
Frame=9 idx=007619 GeodesicLength=0.8054477632726103 rxn_smarts="[C:1]([C@@:2]1([H:11])[N:3]([H:12])[C@:4]1([C:5]([C:6](=[O:7])[H:16])([H:14])[H:15])[H:13])([H:8])([H:9])[H:10]>>[C:1](=[C:2]([N:3]([C:4](=[C:5]([H:14])[H:15])[H:13])[H:12])[H:11])([H:8])[H:9].[C:6](=[O:7])([H:10])[H:16]"
C       -1.26146102      -0.20009739       1.12754637
C       -1.40951471       0.18379272      -0.20960131
N       -0.98953751       1.43010393      -0.74276158
C        0.22499764       0.75739277      -1.01671214
C        1.32313388       0.62022549      -0.15824045
C        1.28215750      -1.36497037       0.37828087
O        1.06986188      -2.17410380      -0.49234206
H       -0.90868224       0.56677992       1.81127858
H       -2.04271599      -0.83545758       1.52871237
H        0.08010030      -0.97765110       1.09003032
H       -1.98928140      -0.45623576      -0.86812624
H       -1.48827309       1.65757559      -1.59121480
H        0.36699863       0.45792792      -2.05191037
H        1.25960268       1.11616940       0.80563019
H        2.29820860       0.71434882      -0.62639842
H        2.18440486      -1.49580058       1.01582867
16
Frame=10 idx=007619 GeodesicLength=0.8935143974788289 rxn_smarts="[C:1]([C@@:2]1([H:11])[N:3]([H:12])[C@:4]1([C:5]([C:6](=[O:7])[H:16])([H:14])[H:15])[H:13])([H:8])([H:9])[H:10]>>[C:1](=[C:2]([N:3]([C:4](=[C:5]([H:14])[H:15])[H:13])[H:12])[H:11])([H:8])[H:9].[C:6](=[O:7])([H:10])[H:16]"
C       -1.26146542      -0.19375427       1.13713111
C       -1.40790429       0.17878985      -0.20633185
N       -0.99419316       1.41611386      -0.76097722
C        0.22905129       0.75305191      -1.01258986
C        1.32456820       0.62611516      -0.14563535
C        1.29172340      -1.37748238       0.35927927
O        1.07237828      -2.17707777      -0.51803700
H       -0.88859669       0.57767428       1.80523955
H       -2.07493263      -0.77774983       1.55292426
H        0.06618431      -1.01288206       1.10297672
H       -2.00283963      -0.46193936      -0.85049045
H       -1.48815609       1.62128892      -1.61772569
H        0.39218980       0.47036153      -2.04939738
H        1.24028966       1.10918789       0.82335722
H        2.29964589       0.76670505      -0.60266828
H        2.20205709      -1.51840279       0.98294496
16
Frame=11 idx=007619 GeodesicLength=0.9814236392367985 rxn_smarts="[C:1]([C@@:2]1([H:11])[N:3]([H:12])[C@:4]1([C:5]([C:6](=[O:7])[H:16])([H:14])[H:15])[H:13])([H:8])([H:9])[H:10]>>[C:1](=[C:2]([N:3]([C:4](=[C:5]([H:14])[H:15])[H:13])[H:12])[H:11])([H:8])[H:9].[C:6](=[O:7])([H:10])[H:16]"
C       -1.26152455      -0.18809549       1.14649684
C       -1.40627433       0.17352693      -0.20312022
N       -0.99842453       1.40144928      -0.77889576
C        0.23311044       0.74835935      -1.00864404
C        1.32608748       0.63157863      -0.13344524
C        1.30145252      -1.38978274       0.34054837
O        1.07508070      -2.18065307      -0.54251018
H       -0.86870632       0.58713371       1.79897166
H       -2.10497375      -0.71790348       1.57575343
H        0.05118038      -1.04873645       1.11569939
H       -2.01722946      -0.46672785      -0.83259137
H       -1.48738687       1.58441405      -1.64336881
H        0.41731845       0.48423269      -2.04682078
H        1.22148633       1.10174087       0.84011864
H        2.29911000       0.81927269      -0.57844444
H        2.21969350      -1.53980911       0.95025251
16
Frame=12 idx=007619 GeodesicLength=1.0692018426418586 rxn_smarts="[C:1]([C@@:2]1([H:11])[N:3]([H:12])[C@:4]1([C:5]([C:6](=[O:7])[H:16])([H:14])[H:15])[H:13])([H:8])([H:9])[H:10]>>[C:1](=[C:2]([N:3]([C:4](=[C:5]([H:14])[H:15])[H:13])[H:12])[H:11])([H:8])[H:9].[C:6](=[O:7])([H:10])[H:16]"
C       -1.26169580      -0.18302835       1.15566927
C       -1.40462246       0.16801274      -0.19998276
N       -1.00222899       1.38611908      -0.79655522
C        0.23718683       0.74330675      -1.00488133
C        1.32770144       0.63665660      -0.12165660
C        1.31134691      -1.40188413       0.32207023
O        1.07786033      -2.18484938      -0.56578768
H       -0.84904676       0.59526569       1.79248918
H       -2.13251255      -0.65614333       1.59708263
H        0.03504034      -1.08513836       1.12828488
H       -2.03243837      -0.47055681      -0.81441323
H       -1.48594897       1.54692335      -1.66819011
H        0.44234351       0.49955003      -2.04412072
H        1.20316793       1.09385595       0.85595942
H        2.29650652       0.87202417      -0.55368238
H        2.23734008      -1.56011400       0.91771442
16
Frame=13 idx=007619 GeodesicLength=1.1569113164031215 rxn_smarts="[C:1]([C@@:2]1([H:11])[N:3]([H:12])[C@:4]1([C:5]([C:6](=[O:7])[H:16])([H:14])[H:15])[H:13])([H:8])([H:9])[H:10]>>[C:1](=[C:2]([N:3]([C:4](=[C:5]([H:14])[H:15])[H:13])[H:12])[H:11])([H:8])[H:9].[C:6](=[O:7])([H:10])[H:16]"
C       -1.26197236      -0.17845842       1.16468404
C       -1.40292852       0.16223433      -0.19692426
N       -1.00562604       1.37013151      -0.81398705
C        0.24129467       0.73787795      -1.00132112
C        1.32943886       0.64141297      -0.11027300
C        1.32143895      -1.41380056       0.30382462
O        1.08062239      -2.18969681      -0.58786427
H       -0.82962050       0.60218681       1.78582126
H       -2.15753730      -0.59275170       1.61687394
H        0.01771082      -1.12202150       1.14080160
H       -2.04842573      -0.47334684      -0.79592428
H       -1.48386547       1.50879615      -1.69227690
H        0.46726694       0.51635843      -2.04121597
H        1.18531246       1.08556052       0.87091845
H        2.29181527       0.92491031      -0.52838775
H        2.25507556      -1.57939314       0.88525066
16
Frame=14 idx=007619 GeodesicLength=1.244575537813625 rxn_smarts="[C:1]([C@@:2]1([H:11])[N:3]([H:12])[C@:4]1([C:5]([C:6](=[O:7])[H:16])([H:14])[H:15])[H:13])([H:8])([H:9])[H:10]>>[C:1](=[C:2]([N:3]([C:4](=[C:5]([H:14])[H:15])[H:13])[H:12])[H:11])([H:8])[H:9].[C:6](=[O:7])([H:10])[H:16]"
C       -1.26240549      -0.17429661       1.17354286
C       -1.40119229       0.15620443      -0.19396571
N       -1.00859658       1.35349689      -0.83122953
C        0.24545880       0.73205286      -0.99797829
C        1.33130648       0.64586543      -0.09928471
C        1.33172074      -1.42555929       0.28580862
O        1.08324948      -2.19526263      -0.60873573
H       -0.81043315       0.60798421       1.77896722
H       -2.17955840      -0.52794123       1.63503042
H       -0.00093005      -1.15932089       1.15334163
H       -2.06517736      -0.47505834      -0.77716624
H       -1.48112421       1.47003382      -1.71566459
H        0.49203251       0.53468884      -2.03808798
H        1.16791387       1.07685201       0.88503388
H        2.28483947       0.97801095      -0.50248945
H        2.27289619      -1.59775045       0.85287759
16
Frame=15 idx=007619 GeodesicLength=1.3322236461761334 rxn_smarts="[C:1]([C@@:2]1([H:11])[N:3]([H:12])[C@:4]1([C:5]([C:6](=[O:7])[H:16])([H:14])[H:15])[H:13])([H:8])([H:9])[H:10]>>[C:1](=[C:2]([N:3]([C:4](=[C:5]([H:14])[H:15])[H:13])[H:12])[H:11])([H:8])[H:9].[C:6](=[O:7])([H:10])[H:16]"
C       -1.26300217      -0.17041982       1.18226233
C       -1.39939755       0.14994099      -0.19111962
N       -1.01113243       1.33623122      -0.84831563
C        0.24970403       0.72583722      -0.99486743
C        1.33332858       0.65006912      -0.08869231
C        1.34221430      -1.43715855       0.26800349
O        1.08565019      -2.20157706      -0.62839333
H       -0.79149176       0.61278610       1.77194200
H       -2.19844315      -0.46206578       1.65149725
H       -0.02096620      -1.19697091       1.16599284
H       -2.08264184      -0.47561663      -0.75813288
H       -1.47771385       1.43062209      -1.73839979
H        0.51659052       0.55454238      -2.03467828
H        1.15097721       1.06775324       0.89833428
H        2.27548677       1.03127792      -0.47597446
H        2.29083733      -1.61525152       0.82054152
16
Frame=16 idx=007619 GeodesicLength=1.4198833334467071 rxn_smarts="[C:1]([C@@:2]1([H:11])[N:3]([H:12])[C@:4]1([C:5]([C:6](=[O:7])[H:16])([H:14])[H:15])[H:13])([H:8])([H:9])[H:10]>>[C:1](=[C:2]([N:3]([C:4](=[C:5]([H:14])[H:15])[H:13])[H:12])[H:11])([H:8])[H:9].[C:6](=[O:7])([H:10])[H:16]"
C       -1.26375818      -0.16670906       1.19085587
C       -1.39752620       0.14345743      -0.18839694
N       -1.01322689       1.31835211      -0.86527339
C        0.25405597       0.71923401      -0.99200578
C        1.33552696       0.65408256      -0.07849923
C        1.35295140      -1.44859154       0.25039044
O        1.08775957      -2.20868244      -0.64681229
H       -0.77279483       0.61671456       1.76475907
H       -2.21410477      -0.39545693       1.66623057
H       -0.04249416      -1.23491836       1.17884252
H       -2.10076658      -0.47494273      -0.73882965
H       -1.47362881       1.39054826      -1.76052795
H        0.54087865       0.57594530      -2.03092368
H        1.13450810       1.05828530       0.91084621
H        2.26366669       1.08463030      -0.44883309
H        2.30895307      -1.63194876       0.78817734
