17
Frame=0 idx=007544 GeodesicLength=0.0 rxn_smarts="[O:1]([C:2]([C:3]([C:4]1([H:13])[C:5]([H:14])([H:15])[O:6][C:7]1([H:16])[H:17])([H:11])[H:12])([H:9])[H:10])[H:8]>>[O:1]([C:2]([C:3]([C:4][C:7]([O:6][C:5]([H:13])([H:14])[H:15])([H:16])[H:17])([H:11])[H:12])([H:9])[H:10])[H:8]"
O        1.96815248       0.11827136       1.31946974
C        2.04496683      -0.44195850       0.01865834
C        0.62757828      -0.78062757      -0.43011601
C       -0.12989239       0.50751995      -0.51071686
C       -2.27033536       0.19410741      -0.73373933
O       -2.19217019       1.15575118       0.26067682
C       -0.89061489       0.87646680       0.76158279
H        2.82847834       0.45971346       1.56519083
H        2.64746018      -1.35802125       0.02479327
H        2.48879047       0.26830147      -0.68696919
H        0.21472447      -1.52023619       0.27385063
H        0.70625000      -1.24049386      -1.41856570
H       -1.22492433       0.35037362      -1.34379965
H       -2.37826797      -0.83189946      -0.36112665
H       -3.01668178       0.43742200      -1.49132695
H       -0.46466715       1.75104314       1.25480121
H       -0.95884698       0.05426648       1.49733670
17
Frame=1 idx=007544 GeodesicLength=0.059141867811798095 rxn_smarts="[O:1]([C:2]([C:3]([C:4]1([H:13])[C:5]([H:14])([H:15])[O:6][C:7]1([H:16])[H:17])([H:11])[H:12])([H:9])[H:10])[H:8]>>[O:1]([C:2]([C:3]([C:4][C:7]([O:6][C:5]([H:13])([H:14])[H:15])([H:16])[H:17])([H:11])[H:12])([H:9])[H:10])[H:8]"
O        1.98710538       0.12676755       1.31497683
C        2.05081841      -0.44099191       0.01674885
C        0.62964094      -0.78703919      -0.41201850
C       -0.13834240       0.49350823      -0.49753943
C       -2.26983738       0.20128760      -0.74518850
O       -2.19926562       1.15041595       0.26474261
C       -0.90096344       0.86481916       0.76944962
H        2.84881766       0.47353375       1.54812515
H        2.65750017      -1.35436773       0.02152821
H        2.48333569       0.26644854      -0.69881550
H        0.22629586      -1.52353576       0.30032293
H        0.69594864      -1.25489021      -1.39799544
H       -1.21829167       0.37309312      -1.36606502
H       -2.39411499      -0.82795530      -0.38639485
H       -3.01586336       0.45794978      -1.49878667
H       -0.46924277       1.73753527       1.26170677
H       -0.97354114       0.04342114       1.50520294
17
Frame=2 idx=007544 GeodesicLength=0.1181633187169226 rxn_smarts="[O:1]([C:2]([C:3]([C:4]1([H:13])[C:5]([H:14])([H:15])[O:6][C:7]1([H:16])[H:17])([H:11])[H:12])([H:9])[H:10])[H:8]>>[O:1]([C:2]([C:3]([C:4][C:7]([O:6][C:5]([H:13])([H:14])[H:15])([H:16])[H:17])([H:11])[H:12])([H:9])[H:10])[H:8]"
O        2.00608517       0.13599679       1.30972861
C        2.05645506      -0.43995227       0.01457747
C        0.63170654      -0.79367594      -0.39343321
C       -0.14713737       0.47887204      -0.48419136
C       -2.26897004       0.20873260      -0.75682237
O       -2.20654348       1.14457017       0.26893595
C       -0.91160976       0.85259377       0.77754567
H        2.86908986       0.48798438       1.52992818
H        2.66741772      -1.35051888       0.01817030
H        2.47721358       0.26427421      -0.71123715
H        0.23828983      -1.52668336       0.32765265
H        0.68544540      -1.27000431      -1.37646709
H       -1.21050094       0.39669295      -1.38727955
H       -2.41018933      -0.82341129      -0.41244905
H       -3.01387585       0.47927923      -1.50674212
H       -0.47413336       1.72333053       1.26893865
H       -0.98874303       0.03191937       1.51314442
17
Frame=3 idx=007544 GeodesicLength=0.17716125203632035 rxn_smarts="[O:1]([C:2]([C:3]([C:4]1([H:13])[C:5]([H:14])([H:15])[O:6][C:7]1([H:16])[H:17])([H:11])[H:12])([H:9])[H:10])[H:8]>>[O:1]([C:2]([C:3]([C:4][C:7]([O:6][C:5]([H:13])([H:14])[H:15])([H:16])[H:17])([H:11])[H:12])([H:9])[H:10])[H:8]"
O        2.02510604       0.14597427       1.30373296
C        2.06189941      -0.43885533       0.01215158
C        0.63379900      -0.80055004      -0.37438289
C       -0.15630117       0.46361686      -0.47069668
C       -2.26778875       0.21645148      -0.76863384
O       -2.21404675       1.13825039       0.27323771
C       -0.92256531       0.83980357       0.78586468
H        2.88930271       0.50310163       1.51061781
H        2.67725990      -1.34651718       0.01472954
H        2.47042604       0.26176124      -0.72421001
H        0.25075135      -1.52968831       0.35580763
H        0.67478506      -1.28588374      -1.35399334
H       -1.20155624       0.42112862      -1.40739798
H       -2.42650333      -0.81824813      -0.43932139
H       -3.01079343       0.50144458      -1.51517845
H       -0.47933709       1.70846166       1.27652047
H       -1.00443744       0.01974845       1.52115221
17
Frame=4 idx=007544 GeodesicLength=0.2360916890865784 rxn_smarts="[O:1]([C:2]([C:3]([C:4]1([H:13])[C:5]([H:14])([H:15])[O:6][C:7]1([H:16])[H:17])([H:11])[H:12])([H:9])[H:10])[H:8]>>[O:1]([C:2]([C:3]([C:4][C:7]([O:6][C:5]([H:13])([H:14])[H:15])([H:16])[H:17])([H:11])[H:12])([H:9])[H:10])[H:8]"
O        2.04408852       0.15671522       1.29694034
C        2.06711711      -0.43769531       0.00946457
C        0.63592732      -0.80763455      -0.35487829
C       -0.16582935       0.44772393      -0.45708610
C       -2.26627400       0.22443936      -0.78057990
O       -2.22175564       1.13144274       0.27762311
C       -0.93382536       0.82643204       0.79437139
H        2.90937435       0.51884237       1.49016997
H        2.68698719      -1.34234347       0.01121430
H        2.46294823       0.25888484      -0.73772071
H        0.26368126      -1.53248687       0.38476870
H        0.66402352      -1.30250998      -1.33054279
H       -1.19139919       0.44636137      -1.42633613
H       -2.44300890      -0.81242199      -0.46699518
H       -3.00658071       0.52444386      -1.52401526
H       -0.48484995       1.69290321       1.28440957
H       -1.02062440       0.00690323       1.52919243
17
Frame=5 idx=007544 GeodesicLength=0.29494573608389296 rxn_smarts="[O:1]([C:2]([C:3]([C:4]1([H:13])[C:5]([H:14])([H:15])[O:6][C:7]1([H:16])[H:17])([H:11])[H:12])([H:9])[H:10])[H:8]>>[O:1]([C:2]([C:3]([C:4][C:7]([O:6][C:5]([H:13])([H:14])[H:15])([H:16])[H:17])([H:11])[H:12])([H:9])[H:10])[H:8]"
O        2.06297183       0.16823629       1.28931135
C        2.07208642      -0.43647406       0.00651354
C        0.63810328      -0.81491181      -0.33493313
C       -0.17572513       0.43117761      -0.44338763
C       -2.26442198       0.23269637      -0.79262714
O       -2.22966570       1.12414363       0.28207122
C       -0.94538922       0.81246747       0.80303845
H        2.92923916       0.53519452       1.46856240
H        2.69658060      -1.33799532       0.00763789
H        2.45476188       0.25561437      -0.75175422
H        0.27708965      -1.53502915       0.41451264
H        0.65321684      -1.31988246      -1.30609209
H       -1.17998515       0.47235020      -1.44401565
H       -2.45966997      -0.80589219      -0.49547115
H       -3.00122325       0.54828990      -1.53318358
H       -0.49067012       1.67664092       1.29258106
H       -1.03729913      -0.00662629       1.53723604
17
Frame=6 idx=007544 GeodesicLength=0.3537130069169998 rxn_smarts="[O:1]([C:2]([C:3]([C:4]1([H:13])[C:5]([H:14])([H:15])[O:6][C:7]1([H:16])[H:17])([H:11])[H:12])([H:9])[H:10])[H:8]>>[O:1]([C:2]([C:3]([C:4][C:7]([O:6][C:5]([H:13])([H:14])[H:15])([H:16])[H:17])([H:11])[H:12])([H:9])[H:10])[H:8]"
O        2.08168574       0.18054631       1.28081213
C        2.07678455      -0.43519092       0.00329727
C        0.64033860      -0.82235847      -0.31457011
C       -0.18599252       0.41396472      -0.42963862
C       -2.26223110       0.24121607      -0.80473777
O       -2.23777037       1.11635226       0.28655915
C       -0.95725044       0.79790678       0.81183168
H        2.94882864       0.55211813       1.44579632
H        2.70602101      -1.33346695       0.00401101
H        2.44585224       0.25192809      -0.76628513
H        0.29098020      -1.53725998       0.44500233
H        0.64242977      -1.33799241      -1.28062761
H       -1.16727919       0.49904188      -1.46036063
H       -2.47644737      -0.79862078      -0.52473456
H       -2.99471484       0.57297938      -1.54260266
H       -0.49678909       1.65967362       1.30099481
H       -1.05444582      -0.02083773       1.54525241
17
Frame=7 idx=007544 GeodesicLength=0.41238432082437754 rxn_smarts="[O:1]([C:2]([C:3]([C:4]1([H:13])[C:5]([H:14])([H:15])[O:6][C:7]1([H:16])[H:17])([H:11])[H:12])([H:9])[H:10])[H:8]>>[O:1]([C:2]([C:3]([C:4][C:7]([O:6][C:5]([H:13])([H:14])[H:15])([H:16])[H:17])([H:11])[H:12])([H:9])[H:10])[H:8]"
O        2.10015812       0.19365337       1.27140782
C        2.08118859      -0.43384742      -0.00018480
C        0.64264360      -0.82995149      -0.29381245
C       -0.19663543       0.39606964      -0.41587605
C       -2.25969878       0.24999376      -0.81687590
O       -2.24606240       1.10806688       0.29106572
C       -0.96940188       0.78274479       0.82071813
H        2.96806986       0.56958727       1.42186640
H        2.71528934      -1.32875424       0.00034827
H        2.43620629       0.24779871      -0.78128906
H        0.30535355      -1.53912263       0.47619961
H        0.63172838      -1.35683258      -1.25413487
H       -1.15324660       0.52638172      -1.47529305
H       -2.49330123      -0.79056716      -0.55477424
H       -2.98704573       0.59851370      -1.55218978
H       -0.50319770       1.64199737       1.30961301
H       -1.07204797      -0.03573172       1.55321123
17
Frame=8 idx=007544 GeodesicLength=0.47095797186142846 rxn_smarts="[O:1]([C:2]([C:3]([C:4]1([H:13])[C:5]([H:14])([H:15])[O:6][C:7]1([H:16])[H:17])([H:11])[H:12])([H:9])[H:10])[H:8]>>[O:1]([C:2]([C:3]([C:4][C:7]([O:6][C:5]([H:13])([H:14])[H:15])([H:16])[H:17])([H:11])[H:12])([H:9])[H:10])[H:8]"
O        2.11831748       0.20756945       1.26105950
C        2.08527537      -0.43244789      -0.00393384
C        0.64502613      -0.83766973      -0.27267960
C       -0.20765904       0.37747253      -0.40213202
C       -2.25681890       0.25902914      -0.82900958
O       -2.25453535       1.09928241       0.29557323
C       -0.98183855       0.76696998       0.82966925
H        2.98688545       0.58760119       1.39674992
H        2.72436714      -1.32385486      -0.00333096
H        2.42581060       0.24318846      -0.79674887
H        0.32020858      -1.54055862       0.50807217
H        0.62117719      -1.37640122      -1.22659344
H       -1.13784601       0.55431509      -1.48873191
H       -2.51019401      -0.78168439      -0.58558969
H       -2.97819458       0.62490717      -1.56186391
H       -0.50988855       1.62359908       1.31840639
H       -1.09009297      -0.05131778       1.56108337
17
Frame=9 idx=007544 GeodesicLength=0.5294226640774384 rxn_smarts="[O:1]([C:2]([C:3]([C:4]1([H:13])[C:5]([H:14])([H:15])[O:6][C:7]1([H:16])[H:17])([H:11])[H:12])([H:9])[H:10])[H:8]>>[O:1]([C:2]([C:3]([C:4][C:7]([O:6][C:5]([H:13])([H:14])[H:15])([H:16])[H:17])([H:11])[H:12])([H:9])[H:10])[H:8]"
O        2.13607976       0.22229364       1.24973639
C        2.08902128      -0.43099598      -0.00794727
C        0.64749347      -0.84548176      -0.25120640
C       -0.21906593       0.35816243      -0.38845238
C       -2.25358898       0.26831029      -0.84110042
O       -2.26318084       1.08999559       0.30006125
C       -0.99454641       0.75058617       0.83864653
H        3.00519505       0.60611824       1.37045853
H        2.73323138      -1.31876817      -0.00700588
H        2.41466291       0.23806770      -0.81263110
H        0.33553272      -1.54150241       0.54056316
H        0.61084914      -1.39667696      -1.19800126
H       -1.12105437       0.58278101      -1.50059807
H       -2.52707244      -0.77193655      -0.61715756
H       -2.96815921       0.65214137      -1.57152689
H       -0.51684765       1.60448949       1.32732308
H       -1.10854988      -0.06758411       1.56883829
17
Frame=10 idx=007544 GeodesicLength=0.5877756606576194 rxn_smarts="[O:1]([C:2]([C:3]([C:4]1([H:13])[C:5]([H:14])([H:15])[O:6][C:7]1([H:16])[H:17])([H:11])[H:12])([H:9])[H:10])[H:8]>>[O:1]([C:2]([C:3]([C:4][C:7]([O:6][C:5]([H:13])([H:14])[H:15])([H:16])[H:17])([H:11])[H:12])([H:9])[H:10])[H:8]"
O        2.15336337       0.23782939       1.23740311
C        2.09240322      -0.42949862      -0.01222330
C        0.65004969      -0.85335851      -0.22942318
C       -0.23085964       0.33812423      -0.37487675
C       -2.25000267       0.27783047      -0.85311490
O       -2.27199194       1.08019905       0.30451289
C       -1.00751436       0.73359020       0.84761686
H        3.02291508       0.62512537       1.34298377
H        2.74186023      -1.31349586      -0.01064995
H        2.40276138       0.23239488      -0.82891117
H        0.35131105      -1.54188749       0.57362269
H        0.60081317      -1.41764389      -1.16834991
H       -1.10284136       0.61171946      -1.51080834
H       -2.54388572      -0.76128118      -0.64946678
H       -2.95692471       0.68021188      -1.58108423
H       -0.52406382       1.58466930       1.33632168
H       -1.12739298      -0.08452868       1.57644750
17
Frame=11 idx=007544 GeodesicLength=0.6460206938983165 rxn_smarts="[O:1]([C:2]([C:3]([C:4]1([H:13])[C:5]([H:14])([H:15])[O:6][C:7]1([H:16])[H:17])([H:11])[H:12])([H:9])[H:10])[H:8]>>[O:1]([C:2]([C:3]([C:4][C:7]([O:6][C:5]([H:13])([H:14])[H:15])([H:16])[H:17])([H:11])[H:12])([H:9])[H:10])[H:8]"
O        2.17008852       0.25418537       1.22401745
C        2.09539898      -0.42796537      -0.01676065
C        0.65269654      -0.86127309      -0.20735633
C       -0.24304442       0.31733796      -0.36144093
C       -2.24605122       0.28758766      -0.86502481
O       -2.28096294       1.06988196       0.30891229
C       -1.02073371       0.71597270       0.85655122
H        3.03995972       0.64462994       1.31429940
H        2.75023379      -1.30804078      -0.01422982
H        2.39010518       0.22611750      -0.84557149
H        0.36752776      -1.54164632       0.60720733
H        0.59113434      -1.43929030      -1.13762349
H       -1.08317129       0.64107424      -1.51927239
H       -2.56058321      -0.74967032      -0.68251736
H       -2.94446796       0.70912548      -1.59044420
H       -0.53152874       1.56413154       1.34536921
H       -1.14660133      -0.10215817       1.58388460
17
Frame=12 idx=007544 GeodesicLength=0.7041627868929551 rxn_smarts="[O:1]([C:2]([C:3]([C:4]1([H:13])[C:5]([H:14])([H:15])[O:6][C:7]1([H:16])[H:17])([H:11])[H:12])([H:9])[H:10])[H:8]>>[O:1]([C:2]([C:3]([C:4][C:7]([O:6][C:5]([H:13])([H:14])[H:15])([H:16])[H:17])([H:11])[H:12])([H:9])[H:10])[H:8]"
O        2.18616825       0.27135816       1.20954657
C        2.09798641      -0.42640407      -0.02155617
C        0.65543366      -0.86919265      -0.18504291
C       -0.25562362       0.29578816      -0.34818928
C       -2.24172788       0.29757202      -0.87679829
O       -2.29008557       1.05903676       0.31324173
C       -1.03418921       0.69773497       0.86541499
H        3.05624142       0.66461484       1.28440477
H        2.75833208      -1.30240364      -0.01771568
H        2.37670021       0.21919313      -0.86258406
H        0.38415604      -1.54070868       0.64125665
H        0.58188224      -1.46159247      -1.10582014
H       -1.06201995       0.67077526      -1.52590411
H       -2.57711135      -0.73706089      -0.71629103
H       -2.93077384       0.73886807      -1.59950632
H       -0.53922662       1.54288525       1.35441846
H       -1.16614227      -0.12046422       1.59112482
17
Frame=13 idx=007544 GeodesicLength=0.7622384599830987 rxn_smarts="[O:1]([C:2]([C:3]([C:4]1([H:13])[C:5]([H:14])([H:15])[O:6][C:7]1([H:16])[H:17])([H:11])[H:12])([H:9])[H:10])[H:8]>>[O:1]([C:2]([C:3]([C:4][C:7]([O:6][C:5]([H:13])([H:14])[H:15])([H:16])[H:17])([H:11])[H:12])([H:9])[H:10])[H:8]"
O        2.20154101       0.28936683       1.19395561
C        2.10015733      -0.42482859      -0.02660424
C        0.65826750      -0.87709848      -0.16251198
C       -0.26861112       0.27345519      -0.33516283
C       -2.23704709       0.30778476      -0.88842745
O       -2.29936881       1.04766346       0.31747924
C       -1.04787016       0.67887620       0.87418398
H        3.07170472       0.68507993       1.25329771
H        2.76616092      -1.29659969      -0.02106231
H        2.36255046       0.21156722      -0.87993360
H        0.40119795      -1.53902009       0.67572972
H        0.57312076      -1.48455543      -1.07292909
H       -1.03938766       0.70077894      -1.53061703
H       -2.59343133      -0.72341451      -0.75080236
H       -2.91586132       0.76945435      -1.60819761
H       -0.54714883       1.52094766       1.36344862
H       -1.18597433      -0.13945775       1.59815363
17
Frame=14 idx=007544 GeodesicLength=0.8201703193757782 rxn_smarts="[O:1]([C:2]([C:3]([C:4]1([H:13])[C:5]([H:14])([H:15])[O:6][C:7]1([H:16])[H:17])([H:11])[H:12])([H:9])[H:10])[H:8]>>[O:1]([C:2]([C:3]([C:4][C:7]([O:6][C:5]([H:13])([H:14])[H:15])([H:16])[H:17])([H:11])[H:12])([H:9])[H:10])[H:8]"
O        2.21607048       0.30820223       1.17713493
C        2.10186134      -0.42325440      -0.03192128
C        0.66117573      -0.88494235      -0.13976625
C       -0.28198793       0.25028374      -0.32235439
C       -2.23190864       0.31825022      -0.89984269
O       -2.30877921       1.03571519       0.32161424
C       -1.06180193       0.65932709       0.88282035
H        3.08613715       0.70616853       1.22077574
H        2.77366182      -1.29059258      -0.02424042
H        2.34765468       0.20311537      -0.89762686
H        0.41857801      -1.53644230       0.71059055
H        0.56491805      -1.50812776      -1.03886975
H       -1.01511028       0.73093380      -1.53324342
H       -2.60945411      -0.70856533      -0.78603926
H       -2.89951095       0.80092666      -1.61634411
H       -0.55532101       1.49817185       1.37242660
H       -1.20618322      -0.15916996       1.60488602
17
Frame=15 idx=007544 GeodesicLength=0.8781381127404203 rxn_smarts="[O:1]([C:2]([C:3]([C:4]1([H:13])[C:5]([H:14])([H:15])[O:6][C:7]1([H:16])[H:17])([H:11])[H:12])([H:9])[H:10])[H:8]>>[O:1]([C:2]([C:3]([C:4][C:7]([O:6][C:5]([H:13])([H:14])[H:15])([H:16])[H:17])([H:11])[H:12])([H:9])[H:10])[H:8]"
O        2.22978317       0.32806541       1.15891836
C        2.10309481      -0.42170084      -0.03752654
C        0.66415808      -0.89274790      -0.11673434
C       -0.29579929       0.22622604      -0.30974814
C       -2.22631360       0.32903344      -0.91114098
O       -2.31836868       1.02315209       0.32561935
C       -1.07603145       0.63900541       0.89137478
H        3.09961562       0.72796872       1.18665144
H        2.78085760      -1.28441594      -0.02714035
H        2.33195166       0.19368310      -0.91577962
H        0.43639481      -1.53291766       0.74599174
H        0.55723948      -1.53244182      -1.00347663
H       -0.98913754       0.76139146      -1.53363137
H       -2.62512153      -0.69247262      -0.82223794
H       -2.88171382       0.83344577      -1.62400060
H       -0.56380773       1.47450427       1.38150681
H       -1.22680161      -0.17977892       1.61135404
17
Frame=16 idx=007544 GeodesicLength=0.9360254468410456 rxn_smarts="[O:1]([C:2]([C:3]([C:4]1([H:13])[C:5]([H:14])([H:15])[O:6][C:7]1([H:16])[H:17])([H:11])[H:12])([H:9])[H:10])[H:8]>>[O:1]([C:2]([C:3]([C:4][C:7]([O:6][C:5]([H:13])([H:14])[H:15])([H:16])[H:17])([H:11])[H:12])([H:9])[H:10])[H:8]"
O        2.24245465       0.34870009       1.13942910
C        2.10381707      -0.42017756      -0.04338034
C        0.66719014      -0.90040619      -0.09360400
C       -0.31000338       0.20133970      -0.29747833
C       -2.22024620       0.34002543      -0.92216674
O       -2.32806094       1.01000878       0.32947167
C       -1.09044894       0.61803829       0.89972542
H        3.11185117       0.75033361       1.15114790
H        2.78768049      -1.27805952      -0.02978351
H        2.31554713       0.18333613      -0.93418941
H        0.45444505      -1.52837073       0.78159237
H        0.55024416      -1.55725273      -0.96697126
H       -0.96151625       0.79183374      -1.53174787
H       -2.64032515      -0.67513049      -0.85908426
H       -2.86248024       0.86674406      -1.63090109
H       -0.57248895       1.45009668       1.39043355
H       -1.24765981      -0.20105930       1.61750679
