11
Frame=0 idx=005927 GeodesicLength=0.0 rxn_smarts="[C:1]([N:2]([C:3](=[O:4])[H:10])[C:5](=[O:6])[H:11])([H:7])([H:8])[H:9]>>[C-:5]#[O+:6].[C:1](/[N:2]=[C:3](/[O:4][H:11])[H:10])([H:7])([H:8])[H:9]"
C        1.42074452      -0.14844272      -0.07150686
N       -0.00649102      -0.00470546       0.00116843
C       -0.64966723       1.11225645      -0.10941623
O       -1.92522150       1.11790543      -0.02745776
C       -1.22805824      -1.22172360       0.24561745
O       -0.81622805      -2.30427146       0.36361032
H        1.68719757      -0.82664369      -0.88361644
H        1.80339508      -0.57081658       0.85903048
H        1.90460603       0.81750802      -0.24446383
H       -0.12988293       2.06460267      -0.27201960
H       -2.06039421      -0.03566909       0.13905408
11
Frame=1 idx=005927 GeodesicLength=0.07672585870763744 rxn_smarts="[C:1]([N:2]([C:3](=[O:4])[H:10])[C:5](=[O:6])[H:11])([H:7])([H:8])[H:9]>>[C-:5]#[O+:6].[C:1](/[N:2]=[C:3](/[O:4][H:11])[H:10])([H:7])([H:8])[H:9]"
C        1.42114857      -0.14823248      -0.08408134
N       -0.00348337       0.00019285       0.03029614
C       -0.64439577       1.11692822      -0.10871178
O       -1.92175315       1.11585801      -0.13383935
C       -1.22834957      -1.22588084       0.29690910
O       -0.82599084      -2.31457920       0.38472248
H        1.66619989      -0.83694274      -0.89405667
H        1.82771610      -0.55972736       0.84112902
H        1.90076847       0.81443445      -0.28447748
H       -0.13023047       2.08495885      -0.15220115
H       -2.06162986      -0.04700977       0.10431102
11
Frame=2 idx=005927 GeodesicLength=0.1543143146247416 rxn_smarts="[C:1]([N:2]([C:3](=[O:4])[H:10])[C:5](=[O:6])[H:11])([H:7])([H:8])[H:9]>>[C-:5]#[O+:6].[C:1](/[N:2]=[C:3](/[O:4][H:11])[H:10])([H:7])([H:8])[H:9]"
C        1.42174597      -0.14784924      -0.09722145
N        0.00045980       0.00508563       0.05533936
C       -0.63715164       1.12228752      -0.10904484
O       -1.90835615       1.11384108      -0.23176084
C       -1.23069444      -1.22909306       0.33543572
O       -0.83743501      -2.32121505       0.41919857
H        1.64761282      -0.84366422      -0.90667420
H        1.84955701      -0.55302344       0.82117822
H        1.89611351       0.81262412      -0.31929362
H       -0.14196260       2.09822745      -0.03469880
H       -2.05988926      -0.05722079       0.06754189
11
Frame=3 idx=005927 GeodesicLength=0.23171650031156532 rxn_smarts="[C:1]([N:2]([C:3](=[O:4])[H:10])[C:5](=[O:6])[H:11])([H:7])([H:8])[H:9]>>[C-:5]#[O+:6].[C:1](/[N:2]=[C:3](/[O:4][H:11])[H:10])([H:7])([H:8])[H:9]"
C        1.42240623      -0.14689214      -0.10890420
N        0.00425223       0.00916703       0.07317552
C       -0.62887460       1.12771365      -0.11242404
O       -1.88976393       1.11504640      -0.31110408
C       -1.23455237      -1.23294563       0.36130279
O       -0.84926085      -2.32686510       0.45405157
H        1.63405393      -0.84869735      -0.91694077
H        1.86642757      -0.54607556       0.80437193
H        1.89134674       0.81183440      -0.34885718
H       -0.15942416       2.10271203       0.06676574
H       -2.05661078      -0.06499774       0.03856272
11
Frame=4 idx=005927 GeodesicLength=0.30943341893422277 rxn_smarts="[C:1]([N:2]([C:3](=[O:4])[H:10])[C:5](=[O:6])[H:11])([H:7])([H:8])[H:9]>>[C-:5]#[O+:6].[C:1](/[N:2]=[C:3](/[O:4][H:11])[H:10])([H:7])([H:8])[H:9]"
C        1.42314595      -0.14571406      -0.11833393
N        0.00890584       0.01432744       0.09421714
C       -0.61966281       1.13380829      -0.11278992
O       -1.86630640       1.11595036      -0.38387115
C       -1.23827871      -1.23601171       0.38765360
O       -0.86266127      -2.33308658       0.47933383
H        1.61982031      -0.85208120      -0.92611819
H        1.88330775      -0.54150782       0.78826383
H        1.88663220       0.81135098      -0.37430725
H       -0.18315685       2.10481691       0.15048514
H       -2.05174601      -0.07185262       0.01546690
11
Frame=5 idx=005927 GeodesicLength=0.3876964356594179 rxn_smarts="[C:1]([N:2]([C:3](=[O:4])[H:10])[C:5](=[O:6])[H:11])([H:7])([H:8])[H:9]>>[C-:5]#[O+:6].[C:1](/[N:2]=[C:3](/[O:4][H:11])[H:10])([H:7])([H:8])[H:9]"
C        1.42387401      -0.14441314      -0.12802942
N        0.01347498       0.01891680       0.11141903
C       -0.61005441       1.14044534      -0.11147451
O       -1.83989976       1.11959472      -0.44837935
C       -1.24294368      -1.23950251       0.40848224
O       -0.87604664      -2.33831654       0.51045698
H        1.60742577      -0.85430750      -0.93575732
H        1.89833095      -0.53751435       0.77226925
H        1.88174356       0.81142548      -0.39795604
H       -0.20988328       2.10277127       0.22966566
H       -2.04602149      -0.07909956      -0.01069651
11
Frame=6 idx=005927 GeodesicLength=0.46635528856955427 rxn_smarts="[C:1]([N:2]([C:3](=[O:4])[H:10])[C:5](=[O:6])[H:11])([H:7])([H:8])[H:9]>>[C-:5]#[O+:6].[C:1](/[N:2]=[C:3](/[O:4][H:11])[H:10])([H:7])([H:8])[H:9]"
C        1.42476318      -0.14301508      -0.13748919
N        0.01818457       0.02336213       0.12624901
C       -0.59995129       1.14752865      -0.10993724
O       -1.81102028       1.12499510      -0.50730058
C       -1.24795695      -1.24301057       0.42670233
O       -0.88986734      -2.34313177       0.54184035
H        1.59646018      -0.85618840      -0.94489716
H        1.91209778      -0.53368193       0.75689633
H        1.87702045       0.81169127      -0.42029537
H       -0.24018972       2.09738724       0.30352567
H       -2.03954058      -0.08593664      -0.03529415
11
Frame=7 idx=005927 GeodesicLength=0.5452520128082655 rxn_smarts="[C:1]([N:2]([C:3](=[O:4])[H:10])[C:5](=[O:6])[H:11])([H:7])([H:8])[H:9]>>[C-:5]#[O+:6].[C:1](/[N:2]=[C:3](/[O:4][H:11])[H:10])([H:7])([H:8])[H:9]"
C        1.42553800      -0.14150888      -0.14651443
N        0.02320237       0.02805903       0.14155350
C       -0.58963593       1.15500311      -0.10627640
O       -1.77924200       1.13150359      -0.56236836
C       -1.25313084      -1.24648846       0.44405067
O       -0.90420874      -2.34778170       0.57251890
H        1.58516511      -0.85719550      -0.95414248
H        1.92559104      -0.53080926       0.74133551
H        1.87212519       0.81214532      -0.44133583
H       -0.27343692       2.09029714       0.37103641
H       -2.03196728      -0.09322440      -0.05985750
11
Frame=8 idx=005927 GeodesicLength=0.6243868673222206 rxn_smarts="[C:1]([N:2]([C:3](=[O:4])[H:10])[C:5](=[O:6])[H:11])([H:7])([H:8])[H:9]>>[C-:5]#[O+:6].[C:1](/[N:2]=[C:3](/[O:4][H:11])[H:10])([H:7])([H:8])[H:9]"
C        1.42630549      -0.13991754      -0.15549669
N        0.02836330       0.03267167       0.15574863
C       -0.57912062       1.16285349      -0.10135527
O       -1.74520056       1.13989069      -0.61334856
C       -1.25858932      -1.25011070       0.45958463
O       -0.91894533      -2.35197700       0.60427155
H        1.57436813      -0.85797582      -0.96319593
H        1.93848000      -0.52792552       0.72590106
H        1.86704892       0.81269865      -0.46198211
H       -0.30926236       2.08068133       0.43471860
H       -2.02344766      -0.10088924      -0.08484592
11
Frame=9 idx=005927 GeodesicLength=0.7035705427642474 rxn_smarts="[C:1]([N:2]([C:3](=[O:4])[H:10])[C:5](=[O:6])[H:11])([H:7])([H:8])[H:9]>>[C-:5]#[O+:6].[C:1](/[N:2]=[C:3](/[O:4][H:11])[H:10])([H:7])([H:8])[H:9]"
C        1.42710081      -0.13823938      -0.16399120
N        0.03368779       0.03742078       0.16937885
C       -0.56846899       1.17095667      -0.09606897
O       -1.70953693       1.14947475      -0.66054073
C       -1.26394766      -1.25383157       0.47468892
O       -0.93412576      -2.35637633       0.63377370
H        1.56398982      -0.85842488      -0.97174058
H        1.95074173      -0.52529694       0.71096586
H        1.86208278       0.81330685      -0.48155439
H       -0.34711000       2.06952457       0.49238070
H       -2.01441360      -0.10851450      -0.10729216
11
Frame=10 idx=005927 GeodesicLength=0.7832295258638127 rxn_smarts="[C:1]([N:2]([C:3](=[O:4])[H:10])[C:5](=[O:6])[H:11])([H:7])([H:8])[H:9]>>[C-:5]#[O+:6].[C:1](/[N:2]=[C:3](/[O:4][H:11])[H:10])([H:7])([H:8])[H:9]"
C        1.42784384      -0.13649360      -0.17268111
N        0.03932279       0.04218484       0.18289070
C       -0.55759184       1.17943294      -0.08898019
O       -1.67076626       1.16071797      -0.70572052
C       -1.26961544      -1.25756156       0.48853268
O       -0.94988881      -2.36010825       0.66498217
H        1.55338367      -0.85886759      -0.98029930
H        1.96307070      -0.52244933       0.69562159
H        1.85659276       0.81389489      -0.50172129
H       -0.38818103       2.05579567       0.54827394
H       -2.00417039      -0.11654597      -0.13089868
11
Frame=11 idx=005927 GeodesicLength=0.8630573953404521 rxn_smarts="[C:1]([N:2]([C:3](=[O:4])[H:10])[C:5](=[O:6])[H:11])([H:7])([H:8])[H:9]>>[C-:5]#[O+:6].[C:1](/[N:2]=[C:3](/[O:4][H:11])[H:10])([H:7])([H:8])[H:9]"
C        1.42857204      -0.13464815      -0.18117467
N        0.04510907       0.04693184       0.19594592
C       -0.54666871       1.18813228      -0.08091942
O       -1.63008810       1.17362909      -0.74775574
C       -1.27533766      -1.26153944       0.50154484
O       -0.96616703      -2.36384193       0.69537687
H        1.54305188      -0.85946124      -0.98823346
H        1.97515086      -0.51905962       0.68060823
H        1.85073668       0.81443969      -0.52202816
H       -0.43105598       2.04016540       0.59999697
H       -1.99330304      -0.12474792      -0.15336138
11
Frame=12 idx=005927 GeodesicLength=0.9429457473280063 rxn_smarts="[C:1]([N:2]([C:3](=[O:4])[H:10])[C:5](=[O:6])[H:11])([H:7])([H:8])[H:9]>>[C-:5]#[O+:6].[C:1](/[N:2]=[C:3](/[O:4][H:11])[H:10])([H:7])([H:8])[H:9]"
C        1.42931490      -0.13269625      -0.18939098
N        0.05097705       0.05166442       0.20836685
C       -0.53573079       1.19701398      -0.07236609
O       -1.58799531       1.18813287      -0.78663939
C       -1.28099760      -1.26579547       0.51411509
O       -0.98287130      -2.36780401       0.72429149
H        1.53316662      -0.86010715      -0.99553168
H        1.98684127      -0.51523893       0.66607290
H        1.84465043       0.81497585      -0.54212469
H       -0.47519867       2.02285996       0.64702772
H       -1.98215659      -0.13300527      -0.17382121
11
Frame=13 idx=005927 GeodesicLength=1.023273371297114 rxn_smarts="[C:1]([N:2]([C:3](=[O:4])[H:10])[C:5](=[O:6])[H:11])([H:7])([H:8])[H:9]>>[C-:5]#[O+:6].[C:1](/[N:2]=[C:3](/[O:4][H:11])[H:10])([H:7])([H:8])[H:9]"
C        1.42999046      -0.13066841      -0.19758599
N        0.05714774       0.05649433       0.22102549
C       -0.52468607       1.20614475      -0.06245444
O       -1.54310042       1.20420213      -0.82354179
C       -1.28668875      -1.27020331       0.52617999
O       -1.00014060      -2.37160119       0.75315959
H        1.52297139      -0.86078824      -1.00259273
H        1.99866980      -0.51114746       0.65130623
H        1.83796793       0.81543600      -0.56266961
H       -0.52194015       2.00359684       0.69089853
H       -1.97019131      -0.14146544      -0.19372527
11
Frame=14 idx=005927 GeodesicLength=1.1038103882441401 rxn_smarts="[C:1]([N:2]([C:3](=[O:4])[H:10])[C:5](=[O:6])[H:11])([H:7])([H:8])[H:9]>>[C-:5]#[O+:6].[C:1](/[N:2]=[C:3](/[O:4][H:11])[H:10])([H:7])([H:8])[H:9]"
C        1.43065975      -0.12853507      -0.20561636
N        0.06341973       0.06126877       0.23323500
C       -0.51364678       1.21543810      -0.05177803
O       -1.49640835       1.22208529      -0.85771161
C       -1.29233734      -1.27496729       0.53775753
O       -1.01784783      -2.37562876       0.78092099
H        1.51310807      -0.86180661      -1.00889465
H        2.01035739      -0.50623340       0.63691037
H        1.83073403       0.81578495      -0.58361583
H       -0.56999690       1.98251906       0.73067296
H       -1.95804178      -0.14992505      -0.21188035
11
Frame=15 idx=005927 GeodesicLength=1.1844630847117186 rxn_smarts="[C:1]([N:2]([C:3](=[O:4])[H:10])[C:5](=[O:6])[H:11])([H:7])([H:8])[H:9]>>[C-:5]#[O+:6].[C:1](/[N:2]=[C:3](/[O:4][H:11])[H:10])([H:7])([H:8])[H:9]"
C        1.43131120      -0.12627381      -0.21343660
N        0.06967984       0.06592253       0.24483067
C       -0.50271623       1.22481001      -0.04055442
O       -1.44831223       1.24183077      -0.88905411
C       -1.29790510      -1.28019014       0.54905848
O       -1.03589491      -2.38011713       0.80722965
H        1.50374373      -0.86311091      -1.01440279
H        2.02178217      -0.50046937       0.62301508
H        1.82295910       0.81607676      -0.60472683
H       -0.61860405       1.95992460       0.76592365
H       -1.94604352      -0.15840329      -0.22788278
11
Frame=16 idx=005927 GeodesicLength=1.2653150220559044 rxn_smarts="[C:1]([N:2]([C:3](=[O:4])[H:10])[C:5](=[O:6])[H:11])([H:7])([H:8])[H:9]>>[C-:5]#[O+:6].[C:1](/[N:2]=[C:3](/[O:4][H:11])[H:10])([H:7])([H:8])[H:9]"
C        1.43184167      -0.12390103      -0.22099849
N        0.07600799       0.07059596       0.25649008
C       -0.49193104       1.23422838      -0.02853177
O       -1.39830931       1.26319481      -0.91795446
C       -1.30328904      -1.28589749       0.56039291
O       -1.05419547      -2.38521210       0.83205678
H        1.49434028      -0.86436630      -1.01944243
H        2.03308713      -0.49437668       0.60926443
H        1.81452420       0.81633658      -0.62580038
H       -0.66797096       1.93648496       0.79640650
H       -1.93410544      -0.16708709      -0.24188317
