13
Frame=0 idx=004573 GeodesicLength=0.0 rxn_smarts="[C:1]([C@@:2]1([H:10])[C:3]([H:11])([H:12])[N:4]1[C:5](=[O:6])[H:13])([H:7])([H:8])[H:9]>>[C:1]([C-:2]([N+:4]1=[C:5]([H:13])[O:6][C:3]1([H:11])[H:12])[H:10])([H:7])([H:8])[H:9]"
C       -1.70223831      -0.25565887       0.84004266
C       -0.64598693      -0.76805259      -0.09470702
C        1.02353273       0.16564448      -1.41018008
N        0.56758257      -0.05511771      -0.10016274
C        1.44910258       0.72377545       0.47705028
O        2.19243396       1.16901144      -0.47889544
H       -1.44668884      -0.33974188       1.90927754
H       -2.62734953      -0.81534256       0.69369364
H       -1.93001527       0.79759317       0.64460881
H       -0.46475391      -1.84037746      -0.08750680
H        1.56162474      -0.63132187      -1.91310832
H        0.46137740       0.87304657      -2.00470064
H        1.56137881       0.97654182       1.52458812
13
Frame=1 idx=004573 GeodesicLength=0.07301262016404977 rxn_smarts="[C:1]([C@@:2]1([H:10])[C:3]([H:11])([H:12])[N:4]1[C:5](=[O:6])[H:13])([H:7])([H:8])[H:9]>>[C:1]([C-:2]([N+:4]1=[C:5]([H:13])[O:6][C:3]1([H:11])[H:12])[H:10])([H:7])([H:8])[H:9]"
C       -1.71623879      -0.25546890       0.80924896
C       -0.61825164      -0.78059172      -0.06754526
C        0.98109491       0.18350938      -1.39779695
N        0.56973299      -0.03349304      -0.07119919
C        1.49417347       0.71164239       0.48520682
O        2.21184825       1.15411695      -0.49250133
H       -1.49185516      -0.28358496       1.88795876
H       -2.62095943      -0.84767613       0.66291985
H       -1.96785160       0.78011873       0.55746087
H       -0.40995560      -1.84629369      -0.01266379
H        1.50283672      -0.60646352      -1.92812500
H        0.41086537       0.90384183      -1.96924690
H        1.65456051       0.92034268       1.53628316
13
Frame=2 idx=004573 GeodesicLength=0.14526789294212383 rxn_smarts="[C:1]([C@@:2]1([H:10])[C:3]([H:11])([H:12])[N:4]1[C:5](=[O:6])[H:13])([H:7])([H:8])[H:9]>>[C:1]([C-:2]([N+:4]1=[C:5]([H:13])[O:6][C:3]1([H:11])[H:12])[H:10])([H:7])([H:8])[H:9]"
C       -1.72982312      -0.25678114       0.77913675
C       -0.59140581      -0.78802163      -0.03944344
C        0.93997085       0.20041304      -1.38304056
N        0.57044806      -0.00769323      -0.04134526
C        1.53802440       0.70137758       0.49107641
O        2.23048974       1.13902535      -0.50783255
H       -1.53907061      -0.23470860       1.86398585
H       -2.61373149      -0.87933237       0.63138928
H       -2.00179225       0.75954967       0.47598274
H       -0.35815895      -1.84498747       0.05979821
H        1.44452683      -0.58444208      -1.93696537
H        0.36367685       0.93177748      -1.93465306
H        1.74684550       0.86382340       1.54191099
13
Frame=3 idx=004573 GeodesicLength=0.21706515491255263 rxn_smarts="[C:1]([C@@:2]1([H:10])[C:3]([H:11])([H:12])[N:4]1[C:5](=[O:6])[H:13])([H:7])([H:8])[H:9]>>[C:1]([C-:2]([N+:4]1=[C:5]([H:13])[O:6][C:3]1([H:11])[H:12])[H:10])([H:7])([H:8])[H:9]"
C       -1.74305429      -0.25912612       0.74935187
C       -0.56535616      -0.79065649      -0.01026935
C        0.89998200       0.21688796      -1.36607335
N        0.56995631       0.02202122      -0.01049241
C        1.58045229       0.69244343       0.49527481
O        2.24765838       1.12448019      -0.52417203
H       -1.58758748      -0.18972155       1.83741880
H       -2.60490045      -0.91170476       0.60049509
H       -2.03369633       0.73582137       0.39707272
H       -0.30899091      -1.83716889       0.13078588
H        1.38699042      -0.56437891      -1.94032657
H        0.31916164       0.95760646      -1.90087570
H        1.83938458       0.80349609       1.54181024
13
Frame=4 idx=004573 GeodesicLength=0.2886907259682135 rxn_smarts="[C:1]([C@@:2]1([H:10])[C:3]([H:11])([H:12])[N:4]1[C:5](=[O:6])[H:13])([H:7])([H:8])[H:9]>>[C:1]([C-:2]([N+:4]1=[C:5]([H:13])[O:6][C:3]1([H:11])[H:12])[H:10])([H:7])([H:8])[H:9]"
C       -1.75536275      -0.26260293       0.71983515
C       -0.53980832      -0.78917210       0.01991144
C        0.86071259       0.23367562      -1.34696794
N        0.56888197       0.05457223       0.02136515
C        1.62269882       0.68172505       0.49808827
O        2.26494158       1.10749488      -0.54090984
H       -1.63634316      -0.14651576       1.80806304
H       -2.59368418      -0.94533021       0.57170551
H       -2.06347853       0.70815238       0.31877534
H       -0.26253035      -1.82394952       0.20019675
H        1.32855147      -0.54506706      -1.94017454
H        0.27731573       0.98388631      -1.86623177
H        1.92810514       0.74313112       1.53634345
13
Frame=5 idx=004573 GeodesicLength=0.3594539913562026 rxn_smarts="[C:1]([C@@:2]1([H:10])[C:3]([H:11])([H:12])[N:4]1[C:5](=[O:6])[H:13])([H:7])([H:8])[H:9]>>[C:1]([C-:2]([N+:4]1=[C:5]([H:13])[O:6][C:3]1([H:11])[H:12])[H:10])([H:7])([H:8])[H:9]"
C       -1.76637199      -0.26656996       0.69108937
C       -0.51507320      -0.78352697       0.05076682
C        0.82294559       0.24975840      -1.32628531
N        0.56760159       0.08928304       0.05371102
C        1.66214730       0.67236890       0.49960388
O        2.28003501       1.09129799      -0.55788987
H       -1.68502043      -0.10787122       1.77696810
H       -2.58060323      -0.97798233       0.54342363
H       -2.08908448       0.67900256       0.24435150
H       -0.21931589      -1.80588801       0.26723555
H        1.27213546      -0.52750181      -1.93555626
H        0.23766212       1.00764121      -1.83289925
H        2.01294215       0.67998821       1.52548081
13
Frame=6 idx=004573 GeodesicLength=0.4296856727079788 rxn_smarts="[C:1]([C@@:2]1([H:10])[C:3]([H:11])([H:12])[N:4]1[C:5](=[O:6])[H:13])([H:7])([H:8])[H:9]>>[C:1]([C-:2]([N+:4]1=[C:5]([H:13])[O:6][C:3]1([H:11])[H:12])[H:10])([H:7])([H:8])[H:9]"
C       -1.77555169      -0.27104922       0.66315903
C       -0.49117855      -0.77466643       0.08172866
C        0.78643135       0.26564074      -1.30429729
N        0.56676881       0.12459370       0.08623807
C        1.69970870       0.66187991       0.50006639
O        2.29412977       1.07368403      -0.57463209
H       -1.73203288      -0.07166063       1.74403712
H       -2.56525257      -1.01001019       0.51752659
H       -2.11057974       0.64779676       0.17227602
H       -0.17969657      -1.78451716       0.33104019
H        1.21654811      -0.51060951      -1.92837042
H        0.20020428       1.03083279      -1.79951991
H        2.09050098       0.61808518       1.51074764
13
Frame=7 idx=004573 GeodesicLength=0.4994706995802019 rxn_smarts="[C:1]([C@@:2]1([H:10])[C:3]([H:11])([H:12])[N:4]1[C:5](=[O:6])[H:13])([H:7])([H:8])[H:9]>>[C:1]([C-:2]([N+:4]1=[C:5]([H:13])[O:6][C:3]1([H:11])[H:12])[H:10])([H:7])([H:8])[H:9]"
C       -1.78287155      -0.27574046       0.63613740
C       -0.46831486      -0.76297707       0.11248758
C        0.75136956       0.28107054      -1.28135922
N        0.56652620       0.16000444       0.11860603
C        1.73442226       0.65163842       0.49979860
O        2.30650655       1.05588457      -0.59090323
H       -1.77698585      -0.03802478       1.70966188
H       -2.54792347      -1.04084978       0.49386826
H       -2.12779391       0.61535936       0.10307558
H       -0.14362275      -1.76056844       0.39151573
H        1.16279791      -0.49456809      -1.91860895
H        0.16460131       1.05266332      -1.76678398
H        2.16128862       0.55610797       1.49250432
13
Frame=8 idx=004573 GeodesicLength=0.5689245863898094 rxn_smarts="[C:1]([C@@:2]1([H:10])[C:3]([H:11])([H:12])[N:4]1[C:5](=[O:6])[H:13])([H:7])([H:8])[H:9]>>[C:1]([C-:2]([N+:4]1=[C:5]([H:13])[O:6][C:3]1([H:11])[H:12])[H:10])([H:7])([H:8])[H:9]"
C       -1.78823959      -0.28044478       0.61019071
C       -0.44647050      -0.74885846       0.14294720
C        0.71790622       0.29562530      -1.25788735
N        0.56689120       0.19526678       0.15037677
C        1.76588006       0.64265911       0.49894261
O        2.31680919       1.03864753      -0.60671258
H       -1.81994059      -0.00866913       1.67466994
H       -2.52912732      -1.06944565       0.47072397
H       -2.13988321       0.58349361       0.03854356
H       -0.11072128      -1.73454960       0.44901846
H        1.11157107      -0.47993115      -1.90631017
H        0.13041871       1.07212812      -1.73542796
H        2.22490604       0.49407831       1.47092483
13
Frame=9 idx=004573 GeodesicLength=0.6384501825684707 rxn_smarts="[C:1]([C@@:2]1([H:10])[C:3]([H:11])([H:12])[N:4]1[C:5](=[O:6])[H:13])([H:7])([H:8])[H:9]>>[C:1]([C-:2]([N+:4]1=[C:5]([H:13])[O:6][C:3]1([H:11])[H:12])[H:10])([H:7])([H:8])[H:9]"
C       -1.79175430      -0.28521987       0.58515361
C       -0.42577395      -0.73292532       0.17259347
C        0.68577257       0.30996838      -1.23394481
N        0.56802954       0.22973444       0.18152464
C        1.79481914       0.63356873       0.49780785
O        2.32579235       1.02091301      -0.62174313
H       -1.85998475       0.01955507       1.63844903
H       -2.50860301      -1.09696237       0.45079172
H       -2.14845975       0.55038104      -0.02395004
H       -0.08095176      -1.70733979       0.50304402
H        1.06198293      -0.46561473      -1.89257421
H        0.09777964       1.09097881      -1.70438166
H        2.28135137       0.43296260       1.44722951
13
Frame=10 idx=004573 GeodesicLength=0.7081104208485394 rxn_smarts="[C:1]([C@@:2]1([H:10])[C:3]([H:11])([H:12])[N:4]1[C:5](=[O:6])[H:13])([H:7])([H:8])[H:9]>>[C:1]([C-:2]([N+:4]1=[C:5]([H:13])[O:6][C:3]1([H:11])[H:12])[H:10])([H:7])([H:8])[H:9]"
C       -1.79348518      -0.28998453       0.56111596
C       -0.40624981      -0.71557099       0.20116971
C        0.65499523       0.32401931      -1.20982956
N        0.56990820       0.26321110       0.21178970
C        1.82133672       0.62443596       0.49645634
O        2.33351581       1.00279427      -0.63602544
H       -1.89704933       0.04632152       1.60136918
H       -2.48674068      -1.12303976       0.43373198
H       -2.15352258       0.51653629      -0.08388220
H       -0.05404387      -1.67941560       0.55358314
H        1.01418207      -0.45168756      -1.87771134
H        0.06653645       1.10906831      -1.67387314
H        2.33061697       0.37331169       1.42210569
13
Frame=11 idx=004573 GeodesicLength=0.7779701868216482 rxn_smarts="[C:1]([C@@:2]1([H:10])[C:3]([H:11])([H:12])[N:4]1[C:5](=[O:6])[H:13])([H:7])([H:8])[H:9]>>[C:1]([C-:2]([N+:4]1=[C:5]([H:13])[O:6][C:3]1([H:11])[H:12])[H:10])([H:7])([H:8])[H:9]"
C       -1.79355881      -0.29468816       0.53811413
C       -0.38784298      -0.69708327       0.22862281
C        0.62556144       0.33765703      -1.18577642
N        0.57244026       0.29570913       0.24099814
C        1.84556229       0.61544556       0.49491596
O        2.33999242       0.98453191      -0.64964256
H       -1.93130805       0.07109734       1.56385796
H       -2.46393012      -1.14740049       0.41875504
H       -2.15509528       0.48268556      -0.14067591
H       -0.02963341      -1.65104438       0.60092365
H        0.96829795      -0.43833336      -1.86188279
H        0.03647659       1.12612065      -1.64418202
H        2.37303769       0.31530248       1.39597201
13
Frame=12 idx=004573 GeodesicLength=0.8481616497074422 rxn_smarts="[C:1]([C@@:2]1([H:10])[C:3]([H:11])([H:12])[N:4]1[C:5](=[O:6])[H:13])([H:7])([H:8])[H:9]>>[C:1]([C-:2]([N+:4]1=[C:5]([H:13])[O:6][C:3]1([H:11])[H:12])[H:10])([H:7])([H:8])[H:9]"
C       -1.79212570      -0.29938594       0.51605756
C       -0.37051365      -0.67781340       0.25474025
C        0.59731728       0.35121593      -1.16183916
N        0.57563879       0.32704404       0.26915456
C        1.86786381       0.60608679       0.49323773
O        2.34554141       0.96571710      -0.66258780
H       -1.96262068       0.09515173       1.52558392
H       -2.44027694      -1.17041464       0.40689857
H       -2.15386659       0.44792053      -0.19535000
H       -0.00746850      -1.62264820       0.64491796
H        0.92388985      -0.42501816      -1.84558026
H        0.00753743       1.14286132      -1.61484574
H        2.40908349       0.25928289       1.36961240
13
Frame=13 idx=004573 GeodesicLength=0.9187126692621843 rxn_smarts="[C:1]([C@@:2]1([H:10])[C:3]([H:11])([H:12])[N:4]1[C:5](=[O:6])[H:13])([H:7])([H:8])[H:9]>>[C:1]([C-:2]([N+:4]1=[C:5]([H:13])[O:6][C:3]1([H:11])[H:12])[H:10])([H:7])([H:8])[H:9]"
C       -1.78940612      -0.30399634       0.49485666
C       -0.35423374      -0.65790220       0.27960580
C        0.57023545       0.36457896      -1.13807958
N        0.57941800       0.35728235       0.29627417
C        1.88831433       0.59670749       0.49153132
O        2.35001904       0.94695243      -0.67483789
H       -1.99131558       0.11816772       1.48673414
H       -2.41605699      -1.19196483       0.39752173
H       -2.15006317       0.41266564      -0.24770093
H        0.01268564      -1.59425478       0.68608394
H        0.88119931      -0.41191837      -1.82871856
H       -0.02046601       1.15899090      -1.58604679
H        2.43966985       0.20469103       1.34277601
13
Frame=14 idx=004573 GeodesicLength=0.9896694962564331 rxn_smarts="[C:1]([C@@:2]1([H:10])[C:3]([H:11])([H:12])[N:4]1[C:5](=[O:6])[H:13])([H:7])([H:8])[H:9]>>[C:1]([C-:2]([N+:4]1=[C:5]([H:13])[O:6][C:3]1([H:11])[H:12])[H:10])([H:7])([H:8])[H:9]"
C       -1.78545267      -0.30859906       0.47455268
C       -0.33885141      -0.63752382       0.30321531
C        0.54423044       0.37786229      -1.11462264
N        0.58370893       0.38654837       0.32228872
C        1.90713736       0.58714847       0.48973054
O        2.35365840       0.92792596      -0.68653468
H       -2.01752610       0.14025307       1.44738735
H       -2.39147199      -1.21207113       0.39049245
H       -2.14372758       0.37692699      -0.29772295
H        0.03119801      -1.56603368       0.72447072
H        0.83995224      -0.39890641      -1.81157374
H       -0.04769316       1.17466833      -1.55774853
H        2.46483755       0.15180060       1.31606478
13
Frame=15 idx=004573 GeodesicLength=1.0608998810997232 rxn_smarts="[C:1]([C@@:2]1([H:10])[C:3]([H:11])([H:12])[N:4]1[C:5](=[O:6])[H:13])([H:7])([H:8])[H:9]>>[C:1]([C-:2]([N+:4]1=[C:5]([H:13])[O:6][C:3]1([H:11])[H:12])[H:10])([H:7])([H:8])[H:9]"
C       -1.78045456      -0.31310357       0.45509648
C       -0.32441184      -0.61696428       0.32536957
C        0.51927007       0.39101428      -1.09155058
N        0.58846805       0.41460781       0.34718559
C        1.92442605       0.57736473       0.48790191
O        2.35648853       0.90879498      -0.69762484
H       -2.04114393       0.16156540       1.40766125
H       -2.36680072      -1.23067417       0.38595404
H       -2.13527348       0.34075764      -0.34548464
H        0.04810665      -1.53832360       0.75990607
H        0.80029461      -0.38592433      -1.79431962
H       -0.07417940       1.18990615      -1.52992443
H        2.48520999       0.10097896       1.28982919
13
Frame=16 idx=004573 GeodesicLength=1.132355610296099 rxn_smarts="[C:1]([C@@:2]1([H:10])[C:3]([H:11])([H:12])[N:4]1[C:5](=[O:6])[H:13])([H:7])([H:8])[H:9]>>[C:1]([C-:2]([N+:4]1=[C:5]([H:13])[O:6][C:3]1([H:11])[H:12])[H:10])([H:7])([H:8])[H:9]"
C       -1.77450497      -0.31751819       0.43652567
C       -0.31080333      -0.59635737       0.34610169
C        0.49530712       0.40398499      -1.06897898
N        0.59360426       0.44156672       0.37091081
C        1.94028534       0.56744791       0.48602195
O        2.35861091       0.88951072      -0.70820914
H       -2.06232665       0.18184380       1.36784420
H       -2.34227748      -1.24770750       0.38336871
H       -2.12474902       0.30458837      -0.39071483
H        0.06369418      -1.51122955       0.79250976
H        0.76219265      -0.37305346      -1.77707840
H       -0.10007738       1.20456810      -1.50270894
H        2.50104438       0.05235545       1.26440751
