17
Frame=0 idx=011915 GeodesicLength=0.0 rxn_smarts="[C:1]([C@@:2]1([H:11])[C@@:3]2([H:12])[C:4]([H:13])([H:14])[C:5]([H:15])=[C:6]([H:16])[C@@:7]12[H:17])([H:8])([H:9])[H:10]>>[C:1]([C@@:2]1([H:11])[C@@:3]2([H:12])[C@:6]([C:5](=[C:4]([H:13])[H:14])[H:15])([H:16])[C@@:7]12[H:17])([H:8])([H:9])[H:10]"
C       -1.78039519       0.44079243      -0.38188167
C       -1.17862353      -0.88214566       0.03483079
C        0.00033867      -1.59154105      -0.35584005
C        1.30563073       1.27472546      -0.97256079
C        1.45510596       0.91796252       0.30230529
C        1.10338237      -0.30005743       1.01719926
C       -0.02875513      -1.13647267       1.06280334
H       -2.17936352       0.35854206      -1.39580363
H       -2.60898374       0.69880098       0.28077253
H       -1.06345281       1.25667962      -0.36877765
H       -1.95242843      -1.58852580       0.34636047
H        0.75417815      -1.55699484      -1.12356365
H        1.61633609       2.25764186      -1.30467338
H        0.88965925       0.60774748      -1.71653966
H        1.98782939       1.62141756       0.94253279
H        1.88676655      -0.59905656       1.71447264
H       -0.20722476      -1.77951600       1.91836344
17
Frame=1 idx=011915 GeodesicLength=0.09854437119464164 rxn_smarts="[C:1]([C@@:2]1([H:11])[C@@:3]2([H:12])[C:4]([H:13])([H:14])[C:5]([H:15])=[C:6]([H:16])[C@@:7]12[H:17])([H:8])([H:9])[H:10]>>[C:1]([C@@:2]1([H:11])[C@@:3]2([H:12])[C@:6]([C:5](=[C:4]([H:13])[H:14])[H:15])([H:16])[C@@:7]12[H:17])([H:8])([H:9])[H:10]"
C       -1.78221692       0.45721972      -0.36427020
C       -1.17633430      -0.86906859       0.03341013
C        0.02100373      -1.54825630      -0.36217490
C        1.28675848       1.24703203      -0.97869686
C        1.45875629       0.91358489       0.30338857
C        1.10180960      -0.29512888       1.02363778
C       -0.03703291      -1.12873943       1.06551808
H       -2.16690586       0.39529200      -1.38515150
H       -2.62261032       0.69461816       0.29138777
H       -1.07241938       1.27821584      -0.31913028
H       -1.94649909      -1.59352770       0.30891359
H        0.78121907      -1.59350443      -1.12019908
H        1.55409366       2.24035408      -1.31935970
H        0.95179268       0.55777451      -1.74217040
H        1.97718957       1.63426953       0.93531572
H        1.88049077      -0.59477854       1.72583087
H       -0.20909506      -1.79535690       1.90375039
17
Frame=2 idx=011915 GeodesicLength=0.197350318440898 rxn_smarts="[C:1]([C@@:2]1([H:11])[C@@:3]2([H:12])[C:4]([H:13])([H:14])[C:5]([H:15])=[C:6]([H:16])[C@@:7]12[H:17])([H:8])([H:9])[H:10]>>[C:1]([C@@:2]1([H:11])[C@@:3]2([H:12])[C@:6]([C:5](=[C:4]([H:13])[H:14])[H:15])([H:16])[C@@:7]12[H:17])([H:8])([H:9])[H:10]"
C       -1.78417276       0.47335343      -0.34614597
C       -1.17412434      -0.85629635       0.03165767
C        0.04140150      -1.50428627      -0.36910975
C        1.26776424       1.21850162      -0.98504363
C        1.46101370       0.91070993       0.30445188
C        1.09964051      -0.28921118       1.02973918
C       -0.04469023      -1.12184894       1.06690269
H       -2.15580053       0.43224786      -1.37292191
H       -2.63533071       0.69040286       0.30283525
H       -1.08159024       1.29828463      -0.26975491
H       -1.93962259      -1.59785754       0.27050108
H        0.80283993      -1.63135624      -1.11418026
H        1.49158971       2.21995397      -1.33501126
H        1.02161659       0.51041297      -1.76438518
H        1.96496256       1.64852240       0.92741481
H        1.87421274      -0.58958222       1.73610555
H       -0.20971006      -1.81195093       1.88694475
17
Frame=3 idx=011915 GeodesicLength=0.29627797778910975 rxn_smarts="[C:1]([C@@:2]1([H:11])[C@@:3]2([H:12])[C:4]([H:13])([H:14])[C:5]([H:15])=[C:6]([H:16])[C@@:7]12[H:17])([H:8])([H:9])[H:10]>>[C:1]([C@@:2]1([H:11])[C@@:3]2([H:12])[C@:6]([C:5](=[C:4]([H:13])[H:14])[H:15])([H:16])[C@@:7]12[H:17])([H:8])([H:9])[H:10]"
C       -1.78641346       0.48892528      -0.32754427
C       -1.17190468      -0.84396466       0.02942496
C        0.06154639      -1.45991916      -0.37662409
C        1.24991471       1.18880976      -0.99172268
C        1.46162010       0.90956182       0.30565022
C        1.09694753      -0.28239459       1.03534005
C       -0.05167609      -1.11584454       1.06684512
H       -2.14721099       0.46860598      -1.35881242
H       -2.64662174       0.68635301       0.31591360
H       -1.09064354       1.31650621      -0.22210757
H       -1.93176854      -1.60151174       0.23118678
H        0.81803892      -1.66959577      -1.10610144
H        1.42990809       2.19608646      -1.35190028
H        1.09873942       0.46650150      -1.78190884
H        1.95066408       1.66440456       0.91910898
H        1.86791389      -0.58341359       1.74529710
H       -0.20905409      -1.82911055       1.86795477
17
Frame=4 idx=011915 GeodesicLength=0.39511189131904856 rxn_smarts="[C:1]([C@@:2]1([H:11])[C@@:3]2([H:12])[C:4]([H:13])([H:14])[C:5]([H:15])=[C:6]([H:16])[C@@:7]12[H:17])([H:8])([H:9])[H:10]>>[C:1]([C@@:2]1([H:11])[C@@:3]2([H:12])[C@:6]([C:5](=[C:4]([H:13])[H:14])[H:15])([H:16])[C@@:7]12[H:17])([H:8])([H:9])[H:10]"
C       -1.78898599       0.50361137      -0.30852619
C       -1.16951567      -0.83218888       0.02655721
C        0.08145239      -1.41548568      -0.38456127
C        1.23449423       1.15786351      -0.99873742
C        1.46041314       0.91028102       0.30709474
C        1.09376264      -0.27477406       1.04028474
C       -0.05802273      -1.11068006       1.06526567
H       -2.14196472       0.50350676      -1.34264062
H       -2.65600343       0.68244391       0.33129414
H       -1.09917195       1.33261901      -0.17750243
H       -1.92287490      -1.60446465       0.19107534
H        0.82619004      -1.70719133      -1.09656287
H        1.37050392       2.16847858      -1.37025799
H        1.18149053       0.42682263      -1.79359019
H        1.93402330       1.68196661       0.91062122
H        1.86148926      -0.57627396       1.75335008
H       -0.20728006      -1.84653479       1.84683585
17
Frame=5 idx=011915 GeodesicLength=0.49370163103370135 rxn_smarts="[C:1]([C@@:2]1([H:11])[C@@:3]2([H:12])[C:4]([H:13])([H:14])[C:5]([H:15])=[C:6]([H:16])[C@@:7]12[H:17])([H:8])([H:9])[H:10]>>[C:1]([C@@:2]1([H:11])[C@@:3]2([H:12])[C@:6]([C:5](=[C:4]([H:13])[H:14])[H:15])([H:16])[C@@:7]12[H:17])([H:8])([H:9])[H:10]"
C       -1.79205876       0.51729819      -0.28934930
C       -1.16682199      -0.82103131       0.02291427
C        0.10128170      -1.37160161      -0.39280328
C        1.22232589       1.12577121      -1.00602687
C        1.45757925       0.91276109       0.30897722
C        1.09041050      -0.26663226       1.04460034
C       -0.06358122      -1.10634973       1.06234180
H       -2.14060594       0.53639138      -1.32480698
H       -2.66351626       0.67874469       0.34915714
H       -1.10711513       1.34680487      -0.13676438
H       -1.91295319      -1.60664025       0.15031845
H        0.82693458      -1.74323536      -1.08635174
H        1.31432560       2.13713273      -1.39031322
H        1.26787481       0.39181196      -1.79894083
H        1.91506228       1.70107666       0.90235646
H        1.85523420      -0.56841862       1.76054587
H       -0.20437631      -1.86388365       1.82414507
17
Frame=6 idx=011915 GeodesicLength=0.5919976944123795 rxn_smarts="[C:1]([C@@:2]1([H:11])[C@@:3]2([H:12])[C:4]([H:13])([H:14])[C:5]([H:15])=[C:6]([H:16])[C@@:7]12[H:17])([H:8])([H:9])[H:10]>>[C:1]([C@@:2]1([H:11])[C@@:3]2([H:12])[C@:6]([C:5](=[C:4]([H:13])[H:14])[H:15])([H:16])[C@@:7]12[H:17])([H:8])([H:9])[H:10]"
C       -1.79548021       0.52972874      -0.27016776
C       -1.16366052      -0.81052908       0.01846547
C        0.12105982      -1.32868400      -0.40100864
C        1.21379393       1.09293014      -1.01336037
C        1.45327179       0.91682733       0.31123287
C        1.08696014      -0.25810474       1.04820938
C       -0.06846047      -1.10267895       1.05819947
H       -2.14270445       0.56682050      -1.30558325
H       -2.66916954       0.67483376       0.36926080
H       -1.11430479       1.35909314      -0.10005173
H       -1.90202604      -1.60794858       0.10919612
H        0.82048489      -1.77683492      -1.07592479
H        1.26253561       2.10226286      -1.41193067
H        1.35507421       0.36165037      -1.79791037
H        1.89419663       1.72132280       0.89429025
H        1.84908995      -0.55996459       1.76684207
H       -0.20066094      -1.88072475       1.80024116
17
Frame=7 idx=011915 GeodesicLength=0.6900471955294954 rxn_smarts="[C:1]([C@@:2]1([H:11])[C@@:3]2([H:12])[C:4]([H:13])([H:14])[C:5]([H:15])=[C:6]([H:16])[C@@:7]12[H:17])([H:8])([H:9])[H:10]>>[C:1]([C@@:2]1([H:11])[C@@:3]2([H:12])[C@:6]([C:5](=[C:4]([H:13])[H:14])[H:15])([H:16])[C@@:7]12[H:17])([H:8])([H:9])[H:10]"
C       -1.79908359       0.54085245      -0.25122342
C       -1.15992162      -0.80066861       0.01325336
C        0.14083856      -1.28725170      -0.40889295
C        1.20874210       1.05973914      -1.02049888
C        1.44780986       0.92213345       0.31377687
C        1.08360500      -0.24941679       1.05113748
C       -0.07268202      -1.09954609       1.05311198
H       -2.14744369       0.59474652      -1.28552840
H       -2.67322985       0.67044642       0.39091367
H       -1.12077669       1.36972630      -0.06699335
H       -1.89019175      -1.60828257       0.06804459
H        0.80737902      -1.80733900      -1.06567047
H        1.21532142       2.06433061      -1.43479416
H        1.44082114       0.33616582      -1.79111967
H        1.87197303       1.74221883       0.88639287
H        1.84319301      -0.55115305       1.77235726
H       -0.19635393      -1.89670173       1.77573323
17
Frame=8 idx=011915 GeodesicLength=0.7879281524396679 rxn_smarts="[C:1]([C@@:2]1([H:11])[C@@:3]2([H:12])[C:4]([H:13])([H:14])[C:5]([H:15])=[C:6]([H:16])[C@@:7]12[H:17])([H:8])([H:9])[H:10]>>[C:1]([C@@:2]1([H:11])[C@@:3]2([H:12])[C@:6]([C:5](=[C:4]([H:13])[H:14])[H:15])([H:16])[C@@:7]12[H:17])([H:8])([H:9])[H:10]"
C       -1.80267058       0.55067959      -0.23270514
C       -1.15556280      -0.79141100       0.00738706
C        0.16061862      -1.24770741      -0.41620687
C        1.20672264       1.02656508      -1.02722862
C        1.44149107       0.92831894       0.31646529
C        1.08047412      -0.24074569       1.05342076
C       -0.07631770      -1.09682608       1.04734954
H       -2.15382027       0.62031602      -1.26514070
H       -2.67601708       0.66535195       0.41330670
H       -1.12661487       1.37891568      -0.03693298
H       -1.87761062      -1.60756634       0.02720902
H        0.78850256      -1.83428494      -1.05582140
H        1.17251665       2.02384831      -1.45846287
H        1.52337652       0.31499739      -1.77951113
H        1.84897869       1.76328243       0.87853847
H        1.83762819      -0.54217584       1.77717532
H       -0.19169513      -1.91155809       1.75115755
17
Frame=9 idx=011915 GeodesicLength=0.88568742982191 rxn_smarts="[C:1]([C@@:2]1([H:11])[C@@:3]2([H:12])[C:4]([H:13])([H:14])[C:5]([H:15])=[C:6]([H:16])[C@@:7]12[H:17])([H:8])([H:9])[H:10]>>[C:1]([C@@:2]1([H:11])[C@@:3]2([H:12])[C@:6]([C:5](=[C:4]([H:13])[H:14])[H:15])([H:16])[C@@:7]12[H:17])([H:8])([H:9])[H:10]"
C       -1.80609829       0.55928284      -0.21475306
C       -1.15061821      -0.78270766       0.00100669
C        0.18038485      -1.21035877      -0.42280694
C        1.20720573       0.99365571      -1.03339357
C        1.43459704       0.93504527       0.31915920
C        1.07768509      -0.23224465       1.05509675
C       -0.07942923      -1.09443333       1.04115532
H       -2.16095886       0.64376291      -1.24484627
H       -2.67789031       0.65945547       0.43570685
H       -1.13192651       1.38685605      -0.00915820
H       -1.86450282      -1.60577405      -0.01301273
H        0.76484263      -1.85732141      -1.04648831
H        1.13371414       1.98125430      -1.48250807
H        1.60170302       0.29773990      -1.76409055
H        1.82567507       1.78412888       0.87058761
H        1.83249241      -0.53318234       1.78137848
H       -0.18687575      -1.92515913       1.72696683
17
Frame=10 idx=011915 GeodesicLength=0.9833996044792074 rxn_smarts="[C:1]([C@@:2]1([H:11])[C@@:3]2([H:12])[C:4]([H:13])([H:14])[C:5]([H:15])=[C:6]([H:16])[C@@:7]12[H:17])([H:8])([H:9])[H:10]>>[C:1]([C@@:2]1([H:11])[C@@:3]2([H:12])[C@:6]([C:5](=[C:4]([H:13])[H:14])[H:15])([H:16])[C@@:7]12[H:17])([H:8])([H:9])[H:10]"
C       -1.80923471       0.56676401      -0.19742958
C       -1.14514714      -0.77448857      -0.00573533
C        0.20007225      -1.17533833      -0.42859917
C        1.20961577       0.96118813      -1.03891780
C        1.42728692       0.94203558       0.32171392
C        1.07525247      -0.22400922       1.05620136
C       -0.08212716      -1.09229305       1.03471565
H       -2.16814978       0.66537604      -1.22490119
H       -2.67908693       0.65272462       0.45757692
H       -1.13679217       1.39369202       0.01694797
H       -1.85105923      -1.60290124      -0.05236245
H        0.73754816      -1.87633831      -1.03769927
H        1.09847101       1.93695569      -1.50652958
H        1.67527200       0.28393586      -1.74583368
H        1.80238483       1.80446111       0.86239453
H        1.82777620      -0.52428311       1.78500424
H       -0.18208250      -1.93748123       1.70345346
17
Frame=11 idx=011915 GeodesicLength=1.0811085582292155 rxn_smarts="[C:1]([C@@:2]1([H:11])[C@@:3]2([H:12])[C:4]([H:13])([H:14])[C:5]([H:15])=[C:6]([H:16])[C@@:7]12[H:17])([H:8])([H:9])[H:10]>>[C:1]([C@@:2]1([H:11])[C@@:3]2([H:12])[C@:6]([C:5](=[C:4]([H:13])[H:14])[H:15])([H:16])[C@@:7]12[H:17])([H:8])([H:9])[H:10]"
C       -1.81201684       0.57325139      -0.18075194
C       -1.13924040      -0.76668284      -0.01270467
C        0.21961692      -1.14268349      -0.43356721
C        1.21347545       0.92924831      -1.04378797
C        1.41968039       0.94907642       0.32402261
C        1.07317260      -0.21610609       1.05677622
C       -0.08451012      -1.09035851       1.02816913
H       -2.17494172       0.68543791      -1.20546404
H       -2.67980747       0.64522069       0.47857958
H       -1.14128267       1.39955749       0.04186690
H       -1.83746645      -1.59897626      -0.09066876
H        0.70772208      -1.89139198      -1.02943112
H        1.06634928       1.89127826      -1.53022418
H        1.74394335       0.27317338      -1.72557707
H        1.77929620       1.82409232       0.85386152
H        1.82346285      -0.51555756       1.78809932
H       -0.17745345      -1.94857944       1.68080169
17
Frame=12 idx=011915 GeodesicLength=1.1788277136586514 rxn_smarts="[C:1]([C@@:2]1([H:11])[C@@:3]2([H:12])[C:4]([H:13])([H:14])[C:5]([H:15])=[C:6]([H:16])[C@@:7]12[H:17])([H:8])([H:9])[H:10]>>[C:1]([C@@:2]1([H:11])[C@@:3]2([H:12])[C@:6]([C:5](=[C:4]([H:13])[H:14])[H:15])([H:16])[C@@:7]12[H:17])([H:8])([H:9])[H:10]"
C       -1.81444026       0.57888104      -0.16469940
C       -1.13300260      -0.75922525      -0.01978745
C        0.23896006      -1.11235020      -0.43774136
C        1.21840024       0.89787942      -1.04804188
C        1.41184740       0.95602084       0.32600727
C        1.07141562      -0.20857332       1.05686783
C       -0.08667220      -1.08860300       1.02161727
H       -2.18110047       0.70420780      -1.18660722
H       -2.68021535       0.63705074       0.49855374
H       -1.14547063       1.40457803       0.06594421
H       -1.82388564      -1.59405439      -0.12782875
H        0.67637715      -1.90269599      -1.02163842
H        1.03701483       1.84450854      -1.55338695
H        1.80782904       0.26508934      -1.70400445
H        1.75651386       1.84291628       0.84492440
H        1.81951771      -0.50706387       1.79071117
H       -0.17308877      -1.95856600       1.65910998
17
Frame=13 idx=011915 GeodesicLength=1.2765304013300955 rxn_smarts="[C:1]([C@@:2]1([H:11])[C@@:3]2([H:12])[C:4]([H:13])([H:14])[C:5]([H:15])=[C:6]([H:16])[C@@:7]12[H:17])([H:8])([H:9])[H:10]>>[C:1]([C@@:2]1([H:11])[C@@:3]2([H:12])[C@:6]([C:5](=[C:4]([H:13])[H:14])[H:15])([H:16])[C@@:7]12[H:17])([H:8])([H:9])[H:10]"
C       -1.81652087       0.58375728      -0.14922056
C       -1.12654353      -0.75205819      -0.02689788
C        0.25801514      -1.08422127      -0.44115456
C        1.22408113       0.86711114      -1.05172714
C        1.40382570       0.96277658       0.32761109
C        1.06991706      -0.20140201       1.05651150
C       -0.08872221      -1.08697709       1.01510825
H       -2.18652275       0.72187487      -1.16830675
H       -2.68040816       0.62829834       0.51744757
H       -1.14940543       1.40884343       0.08941876
H       -1.81045807      -1.58819821      -0.16380618
H        0.64446534      -1.91055885      -1.01424677
H        1.01026731       1.79690141      -1.57585694
H        1.86707161       0.25934744      -1.68165066
H        1.73415426       1.86085057       0.83554984
H        1.81587490      -0.49881537       1.79284825
H       -0.16909143      -1.96753007       1.63837218
17
Frame=14 idx=011915 GeodesicLength=1.3742572212111341 rxn_smarts="[C:1]([C@@:2]1([H:11])[C@@:3]2([H:12])[C:4]([H:13])([H:14])[C:5]([H:15])=[C:6]([H:16])[C@@:7]12[H:17])([H:8])([H:9])[H:10]>>[C:1]([C@@:2]1([H:11])[C@@:3]2([H:12])[C@:6]([C:5](=[C:4]([H:13])[H:14])[H:15])([H:16])[C@@:7]12[H:17])([H:8])([H:9])[H:10]"
C       -1.81829559       0.58800127      -0.13428855
C       -1.11994196      -0.74512507      -0.03396764
C        0.27677954      -1.05817973      -0.44389435
C        1.23030067       0.83690197      -1.05488737
C        1.39566496       0.96925660       0.32880900
C        1.06867429      -0.19461053       1.05574350
C       -0.09068789      -1.08548568       1.00869252
H       -2.19119564       0.73863013      -1.15058713
H       -2.68048701       0.61910784       0.53524816
H       -1.15313214       1.41243433       0.11245333
H       -1.79726717      -1.58146892      -0.19859268
H        0.61249660      -1.91529605      -1.00718648
H        0.98583442       1.74865535      -1.59751750
H        1.92202827       0.25571828      -1.65891240
H        1.71216987       1.87789524       0.82570648
H        1.81252006      -0.49082493       1.79458214
H       -0.16546128      -1.97561009       1.61859898
17
Frame=15 idx=011915 GeodesicLength=1.4720006012422115 rxn_smarts="[C:1]([C@@:2]1([H:11])[C@@:3]2([H:12])[C:4]([H:13])([H:14])[C:5]([H:15])=[C:6]([H:16])[C@@:7]12[H:17])([H:8])([H:9])[H:10]>>[C:1]([C@@:2]1([H:11])[C@@:3]2([H:12])[C@:6]([C:5](=[C:4]([H:13])[H:14])[H:15])([H:16])[C@@:7]12[H:17])([H:8])([H:9])[H:10]"
C       -1.81979351       0.59169878      -0.11985597
C       -1.11327008      -0.73838335      -0.04094555
C        0.29521897      -1.03407502      -0.44601677
C        1.23689229       0.80723447      -1.05757208
C        1.38739138       0.97541906       0.32958320
C        1.06764697      -0.18818042       1.05459572
C       -0.09262622      -1.08410519       1.00238765
H       -2.19513381       0.75460590      -1.13340373
H       -2.68049896       0.60957033       0.55199090
H       -1.15667541       1.41541114       0.13515288
H       -1.78437961      -1.57393292      -0.23220891
H        0.58096857      -1.91728103      -1.00039472
H        0.96356252       1.69996807      -1.61827561
H        1.97296498       0.25398250      -1.63611458
H        1.69056594       1.89404996       0.81539010
H        1.80939972      -0.48307850       1.79594720
H       -0.16223375      -1.98290378       1.59974026
17
Frame=16 idx=011915 GeodesicLength=1.569759844943646 rxn_smarts="[C:1]([C@@:2]1([H:11])[C@@:3]2([H:12])[C:4]([H:13])([H:14])[C:5]([H:15])=[C:6]([H:16])[C@@:7]12[H:17])([H:8])([H:9])[H:10]>>[C:1]([C@@:2]1([H:11])[C@@:3]2([H:12])[C@:6]([C:5](=[C:4]([H:13])[H:14])[H:15])([H:16])[C@@:7]12[H:17])([H:8])([H:9])[H:10]"
C       -1.82104602       0.59492392      -0.10588230
C       -1.10658367      -0.73179833      -0.04779430
C        0.31331949      -1.01175745      -0.44757908
C        1.24373226       0.77808332      -1.05982839
C        1.37902780       0.98123917       0.32993044
C        1.06680655      -0.18209062       1.05310061
C       -0.09457423      -1.08281775       0.99620439
H       -2.19837380       0.76991111      -1.11671746
H       -2.68048235       0.59976753       0.56772286
H       -1.16005719       1.41782446       0.15758980
H       -1.77183407      -1.56565469      -0.26469360
H        0.55020659      -1.91689079      -0.99381551
H        0.94331889       1.65102825      -1.63806512
H        2.02015643       0.25395664      -1.61350710
H        1.66933020       1.90933313       0.80460941
H        1.80647516      -0.47555867       1.79698108
H       -0.15942204      -1.98949923       1.58174429
