9
Frame=0 idx=001210 GeodesicLength=0.0 rxn_smarts="[C:1]([C:2]#[C:3][C:4](=[O:5])[H:9])([H:6])([H:7])[H:8]>>[C:1](=[C:2]=[C:3]=[C:4]=[O:5])([H:6])[H:8].[H:7][H:9]"
C       -1.40412417       0.19608456      -0.06386889
C       -0.32206648       0.95087027      -0.36435312
C        0.92146716       1.06353624      -0.41853283
C        1.70490938      -0.02311325      -0.00569611
O        2.77419946      -0.45022669       0.14834075
H       -1.96036394       0.40178001       0.84549140
H       -0.33569554      -0.87351418       0.34177114
H       -1.97124608      -0.26208529      -0.86844136
H        0.59292020      -1.00333168       0.38528899
9
Frame=1 idx=001210 GeodesicLength=0.08179971884626573 rxn_smarts="[C:1]([C:2]#[C:3][C:4](=[O:5])[H:9])([H:6])([H:7])[H:8]>>[C:1](=[C:2]=[C:3]=[C:4]=[O:5])([H:6])[H:8].[H:7][H:9]"
C       -1.40752140       0.19277568      -0.06139801
C       -0.32403762       0.95076017      -0.36146672
C        0.92103980       1.05554543      -0.41030839
C        1.71362376      -0.03703989      -0.03465461
O        2.79565724      -0.41944815       0.15727197
H       -1.97220392       0.41708816       0.83854436
H       -0.34724777      -0.89195043       0.34948603
H       -1.98271068      -0.24305311      -0.87284932
H        0.60340057      -1.02467785       0.39537468
9
Frame=2 idx=001210 GeodesicLength=0.1615596977444535 rxn_smarts="[C:1]([C:2]#[C:3][C:4](=[O:5])[H:9])([H:6])([H:7])[H:8]>>[C:1](=[C:2]=[C:3]=[C:4]=[O:5])([H:6])[H:8].[H:7][H:9]"
C       -1.41036789       0.19003450      -0.05744442
C       -0.32572541       0.94883363      -0.36256968
C        0.92043562       1.04297740      -0.41250193
C        1.72274453      -0.04601704      -0.05104174
O        2.81374505      -0.38489944       0.17390330
H       -1.97735840       0.43350861       0.83620253
H       -0.35920200      -0.91256189       0.35169184
H       -1.99865551      -0.22141296      -0.87236367
H        0.61438403      -1.05046280       0.39412377
9
Frame=3 idx=001210 GeodesicLength=0.24225020746634632 rxn_smarts="[C:1]([C:2]#[C:3][C:4](=[O:5])[H:9])([H:6])([H:7])[H:8]>>[C:1](=[C:2]=[C:3]=[C:4]=[O:5])([H:6])[H:8].[H:7][H:9]"
C       -1.41350316       0.18729134      -0.05397321
C       -0.32746619       0.94684616      -0.36427710
C        0.91985630       1.03008149      -0.41534309
C        1.73246546      -0.05267420      -0.06116833
O        2.83181439      -0.35149099       0.18601669
H       -1.98239939       0.44983539       0.83327574
H       -0.37201673      -0.93365339       0.35362200
H       -2.01459085      -0.19958201      -0.87181235
H        0.62584016      -1.07665377       0.39365964
9
Frame=4 idx=001210 GeodesicLength=0.3234325303048472 rxn_smarts="[C:1]([C:2]#[C:3][C:4](=[O:5])[H:9])([H:6])([H:7])[H:8]>>[C:1](=[C:2]=[C:3]=[C:4]=[O:5])([H:6])[H:8].[H:7][H:9]"
C       -1.41682295       0.18452957      -0.05102504
C       -0.32917440       0.94503559      -0.36579127
C        0.91932127       1.01735223      -0.41694222
C        1.74257525      -0.05830369      -0.06874400
O        2.84950991      -0.31904513       0.19401233
H       -1.98806796       0.46610561       0.82914923
H       -0.38575739      -0.95468674       0.35663441
H       -2.02945587      -0.17808429      -0.87175091
H        0.63787214      -1.10290316       0.39445747
9
Frame=5 idx=001210 GeodesicLength=0.40374641308070197 rxn_smarts="[C:1]([C:2]#[C:3][C:4](=[O:5])[H:9])([H:6])([H:7])[H:8]>>[C:1](=[C:2]=[C:3]=[C:4]=[O:5])([H:6])[H:8].[H:7][H:9]"
C       -1.42013601       0.18185432      -0.04849748
C       -0.33086364       0.94317633      -0.36742293
C        0.91863562       1.00426753      -0.41830400
C        1.75256739      -0.06302010      -0.07355464
O        2.86674292      -0.28690942       0.19901686
H       -1.99329700       0.48208548       0.82455037
H       -0.40029848      -0.97617262       0.35874833
H       -2.04369691      -0.15623904      -0.87170416
H        0.65034610      -1.12904249       0.39716766
9
Frame=6 idx=001210 GeodesicLength=0.4846501854843356 rxn_smarts="[C:1]([C:2]#[C:3][C:4](=[O:5])[H:9])([H:6])([H:7])[H:8]>>[C:1](=[C:2]=[C:3]=[C:4]=[O:5])([H:6])[H:8].[H:7][H:9]"
C       -1.42358787       0.17953341      -0.04580177
C       -0.33248497       0.94116040      -0.36988302
C        0.91794298       0.99041000      -0.42117811
C        1.76311196      -0.06712070      -0.07698328
O        2.88311461      -0.25359619       0.20580769
H       -1.99749521       0.49855842       0.82040572
H       -0.41597302      -0.99773022       0.36136264
H       -2.05817973      -0.13431458      -0.87050759
H        0.66355124      -1.15690055       0.39677772
9
Frame=7 idx=001210 GeodesicLength=0.5653661468882196 rxn_smarts="[C:1]([C:2]#[C:3][C:4](=[O:5])[H:9])([H:6])([H:7])[H:8]>>[C:1](=[C:2]=[C:3]=[C:4]=[O:5])([H:6])[H:8].[H:7][H:9]"
C       -1.42714936       0.17746326      -0.04327727
C       -0.33406535       0.93910662      -0.37265647
C        0.91721202       0.97595298      -0.42450520
C        1.77391231      -0.07071123      -0.07902791
O        2.89892195      -0.21974894       0.21203542
H       -2.00102656       0.51493344       0.81631054
H       -0.43271378      -1.01966304       0.36348341
H       -2.07248500      -0.11201104      -0.86890796
H        0.67739377      -1.18532205       0.39654544
9
Frame=8 idx=001210 GeodesicLength=0.6460406383423553 rxn_smarts="[C:1]([C:2]#[C:3][C:4](=[O:5])[H:9])([H:6])([H:7])[H:8]>>[C:1](=[C:2]=[C:3]=[C:4]=[O:5])([H:6])[H:8].[H:7][H:9]"
C       -1.43077816       0.17569551      -0.04081639
C       -0.33554674       0.93695857      -0.37594718
C        0.91646059       0.96078422      -0.42862206
C        1.78496162      -0.07380294      -0.07978974
O        2.91382105      -0.18508196       0.21854370
H       -2.00367430       0.53142367       0.81243156
H       -0.45066119      -1.04185025       0.36544329
H       -2.08669614      -0.08943414      -0.86665885
H        0.69211326      -1.21469268       0.39541567
9
Frame=9 idx=001210 GeodesicLength=0.7268387885538763 rxn_smarts="[C:1]([C:2]#[C:3][C:4](=[O:5])[H:9])([H:6])([H:7])[H:8]>>[C:1](=[C:2]=[C:3]=[C:4]=[O:5])([H:6])[H:8].[H:7][H:9]"
C       -1.43469545       0.17402102      -0.03902191
C       -0.33700516       0.93529545      -0.37824486
C        0.91566651       0.94625520      -0.42989013
C        1.79617423      -0.07664171      -0.08001634
O        2.92887104      -0.15159963       0.22045392
H       -2.00756485       0.54744515       0.80709168
H       -0.47007900      -1.06383394       0.36868620
H       -2.09924550      -0.06729632      -0.86570266
H        0.70787818      -1.24364522       0.39664410
9
Frame=10 idx=001210 GeodesicLength=0.8070961719544001 rxn_smarts="[C:1]([C:2]#[C:3][C:4](=[O:5])[H:9])([H:6])([H:7])[H:8]>>[C:1](=[C:2]=[C:3]=[C:4]=[O:5])([H:6])[H:8].[H:7][H:9]"
C       -1.43897428       0.17241866      -0.03810744
C       -0.33852600       0.93423118      -0.37900537
C        0.91480456       0.93274444      -0.42712805
C        1.80746837      -0.07920601      -0.07959706
O        2.94486950      -0.11968316       0.21593492
H       -2.01332875       0.56275352       0.79980048
H       -0.49082487      -1.08544175       0.37318881
H       -2.10972881      -0.04566583      -0.86665623
H        0.72424028      -1.27215106       0.40156992
9
Frame=11 idx=001210 GeodesicLength=0.8878553359431562 rxn_smarts="[C:1]([C:2]#[C:3][C:4](=[O:5])[H:9])([H:6])([H:7])[H:8]>>[C:1](=[C:2]=[C:3]=[C:4]=[O:5])([H:6])[H:8].[H:7][H:9]"
C       -1.44337925       0.17123099      -0.03708498
C       -0.33985411       0.93291170      -0.38061755
C        0.91391919       0.91816158      -0.42576585
C        1.81911613      -0.08130844      -0.07798654
O        2.95974279      -0.08646534       0.21293780
H       -2.01796111       0.57859707       0.79298807
H       -0.51347769      -1.10720536       0.37805108
H       -2.12042790      -0.02385461      -0.86669751
H        0.74232195      -1.30206758       0.40417549
9
Frame=12 idx=001210 GeodesicLength=0.9680112297745438 rxn_smarts="[C:1]([C:2]#[C:3][C:4](=[O:5])[H:9])([H:6])([H:7])[H:8]>>[C:1](=[C:2]=[C:3]=[C:4]=[O:5])([H:6])[H:8].[H:7][H:9]"
C       -1.44830464       0.17009419      -0.03710620
C       -0.34131490       0.93235474      -0.38004849
C        0.91293413       0.90500205      -0.41899729
C        1.83091550      -0.08307409      -0.07553500
O        2.97637136      -0.05525741       0.20180263
H       -2.02522646       0.59356759       0.78376052
H       -0.53773010      -1.12851125       0.38446898
H       -2.12872924      -0.00266756      -0.86937858
H        0.76108435      -1.33150825       0.41103343
9
Frame=13 idx=001210 GeodesicLength=1.0484603961169292 rxn_smarts="[C:1]([C:2]#[C:3][C:4](=[O:5])[H:9])([H:6])([H:7])[H:8]>>[C:1](=[C:2]=[C:3]=[C:4]=[O:5])([H:6])[H:8].[H:7][H:9]"
C       -1.45324631       0.16951065      -0.03673000
C       -0.34246456       0.93114586      -0.38115994
C        0.91193953       0.88996994      -0.41527136
C        1.84310191      -0.08430870      -0.07164532
O        2.99106834      -0.02173084       0.19444505
H       -2.03043627       0.60964914       0.77562202
H       -0.56423301      -1.14994592       0.39125177
H       -2.13783682       0.01882493      -0.87030592
H        0.78210719      -1.36311506       0.41379371
9
Frame=14 idx=001210 GeodesicLength=1.128577601210604 rxn_smarts="[C:1]([C:2]#[C:3][C:4](=[O:5])[H:9])([H:6])([H:7])[H:8]>>[C:1](=[C:2]=[C:3]=[C:4]=[O:5])([H:6])[H:8].[H:7][H:9]"
C       -1.45876157       0.16906339      -0.03726955
C       -0.34370398       0.93057627      -0.38020010
C        0.91084041       0.87619934      -0.40614416
C        1.85557686      -0.08502970      -0.06648175
O        3.00742913       0.01011627       0.17942969
H       -2.03817774       0.62518100       0.76516334
H       -0.59287393      -1.17085444       0.39994623
H       -2.14473583       0.03960874      -0.87376785
H        0.80440666      -1.39486086       0.41932415
9
Frame=15 idx=001210 GeodesicLength=1.2088923107771992 rxn_smarts="[C:1]([C:2]#[C:3][C:4](=[O:5])[H:9])([H:6])([H:7])[H:8]>>[C:1](=[C:2]=[C:3]=[C:4]=[O:5])([H:6])[H:8].[H:7][H:9]"
C       -1.46435106       0.16929107      -0.03723293
C       -0.34467790       0.92897561      -0.38153433
C        0.90967862       0.86015968      -0.40042300
C        1.86856979      -0.08497268      -0.05915088
O        3.02206081       0.04485628       0.16896522
H       -2.04377555       0.64271297       0.75563839
H       -0.62410039      -1.19135949       0.41046689
H       -2.15262121       0.06019325      -0.87520821
H        0.82921690      -1.42985670       0.41847884
9
Frame=16 idx=001210 GeodesicLength=1.2892633237274154 rxn_smarts="[C:1]([C:2]#[C:3][C:4](=[O:5])[H:9])([H:6])([H:7])[H:8]>>[C:1](=[C:2]=[C:3]=[C:4]=[O:5])([H:6])[H:8].[H:7][H:9]"
C       -1.47031823       0.16999353      -0.03723684
C       -0.34555001       0.92696253      -0.38324375
C        0.90843100       0.84337622      -0.39371825
C        1.88201226      -0.08402470      -0.04925688
O        3.03666402       0.08046892       0.15718317
H       -2.04956888       0.66147630       0.74527557
H       -0.65810050      -1.21104960       0.42381772
H       -2.15998894       0.08002185      -0.87683591
H        0.85641928      -1.46722504       0.41401516
