16
Frame=0 idx=005404 GeodesicLength=0.0 rxn_smarts="[C:1]([C@@:2]1([H:10])[O:3][C:4]1([C:5]([H:11])([H:12])[H:13])[C:6]([H:14])([H:15])[H:16])([H:7])([H:8])[H:9]>>[C:1]([O:3][C:4]([C:2][H:10])([C:5]([H:11])([H:12])[H:13])[C:6]([H:14])([H:15])[H:16])([H:7])([H:8])[H:9]"
C       -2.12458411       0.44870914      -0.21903668
C       -0.74545201      -1.01458477      -0.02386474
O       -0.49466893       0.46351337      -0.84440748
C        0.44589213      -0.16710941       0.02804430
C        1.65355732      -0.58087802      -0.78127087
C        0.77254101       0.60036270       1.28454339
H       -2.83906368      -0.33856694      -0.43330091
H       -2.32092292       1.30782229      -0.86381542
H       -2.14668241       0.72157390       0.82708415
H       -0.66470362      -1.73261387      -0.85015237
H        1.34227853      -1.00899459      -1.73399678
H        2.30770590       0.27177597      -0.97651330
H        2.22817335      -1.33021572      -0.23251462
H        1.37646829      -0.02352933       1.94649695
H       -0.13201873       0.87983687       1.82211878
H        1.34147991       1.50289834       1.05058561
16
Frame=1 idx=005404 GeodesicLength=0.04634344362335858 rxn_smarts="[C:1]([C@@:2]1([H:10])[O:3][C:4]1([C:5]([H:11])([H:12])[H:13])[C:6]([H:14])([H:15])[H:16])([H:7])([H:8])[H:9]>>[C:1]([O:3][C:4]([C:2][H:10])([C:5]([H:11])([H:12])[H:13])[C:6]([H:14])([H:15])[H:16])([H:7])([H:8])[H:9]"
C       -2.12163386       0.44496249      -0.20947604
C       -0.74641009      -1.01340004      -0.03223573
O       -0.49629437       0.44797536      -0.85800609
C        0.44728427      -0.16919317       0.02302741
C        1.65884978      -0.58697407      -0.77811184
C        0.76791056       0.61027224       1.27319667
H       -2.84547541      -0.31766959      -0.47641982
H       -2.30123821       1.34738935      -0.79746535
H       -2.16857047       0.66804902       0.84812787
H       -0.66450668      -1.74128935      -0.84924810
H        1.35321650      -1.02526785      -1.72802684
H        2.31133184       0.26562366      -0.97932527
H        2.23383309      -1.32923858      -0.22016891
H        1.37104600      -0.00701643       1.94214600
H       -0.13621217       0.89444644       1.80855463
H        1.33686921       1.51133053       1.03343141
16
Frame=2 idx=005404 GeodesicLength=0.09270520222988543 rxn_smarts="[C:1]([C@@:2]1([H:10])[O:3][C:4]1([C:5]([H:11])([H:12])[H:13])[C:6]([H:14])([H:15])[H:16])([H:7])([H:8])[H:9]>>[C:1]([O:3][C:4]([C:2][H:10])([C:5]([H:11])([H:12])[H:13])[C:6]([H:14])([H:15])[H:16])([H:7])([H:8])[H:9]"
C       -2.11850344       0.44135874      -0.19974009
C       -0.74741669      -1.01230812      -0.04074909
O       -0.49804745       0.43257624      -0.87162731
C        0.44846441      -0.17114065       0.01788560
C        1.66394866      -0.59279206      -0.77498919
C        0.76291157       0.62004098       1.26182350
H       -2.85113411      -0.29339024      -0.51736301
H       -2.27971931       1.38225500      -0.72999566
H       -2.19015215       0.61481588       0.86637518
H       -0.66459820      -1.74976924      -0.84857921
H        1.36401414      -1.04125125      -1.72198110
H        2.31473839       0.25975620      -0.98209375
H        2.23926564      -1.32789486      -0.20792208
H        1.36529638       0.00936904       1.93761871
H       -0.14086194       0.90866860       1.79492004
H        1.33179410       1.51970573       1.01641747
16
Frame=3 idx=005404 GeodesicLength=0.13928753005580508 rxn_smarts="[C:1]([C@@:2]1([H:10])[O:3][C:4]1([C:5]([H:11])([H:12])[H:13])[C:6]([H:14])([H:15])[H:16])([H:7])([H:8])[H:9]>>[C:1]([O:3][C:4]([C:2][H:10])([C:5]([H:11])([H:12])[H:13])[C:6]([H:14])([H:15])[H:16])([H:7])([H:8])[H:9]"
C       -2.11526151       0.43780624      -0.18994757
C       -0.74850095      -1.01119662      -0.04934868
O       -0.49991751       0.41732504      -0.88513096
C        0.44946325      -0.17294606       0.01266964
C        1.66886961      -0.59826956      -0.77184200
C        0.75764658       0.62956487       1.25041681
H       -2.85620699      -0.26593857      -0.55577776
H       -2.25662331       1.41225798      -0.66197726
H       -2.21141910       0.56227676       0.88163990
H       -0.66500671      -1.75788955      -0.84803799
H        1.37463570      -1.05679850      -1.71575319
H        2.31796674       0.25417061      -0.98472895
H        2.24449417      -1.32610198      -0.19579222
H        1.35937956       0.02555390       1.93281791
H       -0.14585737       0.92230845       1.78123568
H        1.32633785       1.52787700       0.99955664
16
Frame=4 idx=005404 GeodesicLength=0.18590347985463168 rxn_smarts="[C:1]([C@@:2]1([H:10])[O:3][C:4]1([C:5]([H:11])([H:12])[H:13])[C:6]([H:14])([H:15])[H:16])([H:7])([H:8])[H:9]>>[C:1]([O:3][C:4]([C:2][H:10])([C:5]([H:11])([H:12])[H:13])[C:6]([H:14])([H:15])[H:16])([H:7])([H:8])[H:9]"
C       -2.11194807       0.43429381      -0.18017763
C       -0.74963803      -1.01018169      -0.05797709
O       -0.50187657       0.40231942      -0.89853282
C        0.45030508      -0.17462231       0.00741328
C        1.67363699      -0.60346990      -0.76879460
C        0.75214814       0.63891041       1.23917374
H       -2.86072313      -0.23569559      -0.59162729
H       -2.23228136       1.43768893      -0.59395683
H       -2.23235780       0.51079156       0.89415116
H       -0.66565483      -1.76589498      -0.84765534
H        1.38510905      -1.07201352      -1.70957785
H        2.32104238       0.24891504      -0.98739015
H        2.24954078      -1.32403462      -0.18387506
H        1.35333079       0.04150320       1.92798197
H       -0.15115875       0.93545089       1.76783696
H        1.32052534       1.53603935       0.98300756
16
Frame=5 idx=005404 GeodesicLength=0.23284695548894047 rxn_smarts="[C:1]([C@@:2]1([H:10])[O:3][C:4]1([C:5]([H:11])([H:12])[H:13])[C:6]([H:14])([H:15])[H:16])([H:7])([H:8])[H:9]>>[C:1]([O:3][C:4]([C:2][H:10])([C:5]([H:11])([H:12])[H:13])[C:6]([H:14])([H:15])[H:16])([H:7])([H:8])[H:9]"
C       -2.10860038       0.43071652      -0.17052763
C       -0.75080560      -1.00905251      -0.06658442
O       -0.50397053       0.38752870      -0.91162610
C        0.45100972      -0.17614027       0.00215845
C        1.67818691      -0.60831556      -0.76567599
C        0.74655311       0.64794738       1.22794374
H       -2.86466650      -0.20277637      -0.62496201
H       -2.20708261       1.45842605      -0.52617724
H       -2.25287400       0.46048183       0.90376456
H       -0.66654529      -1.77347332      -0.84722631
H        1.39529333      -1.08672075      -1.70314360
H        2.32388595       0.24390837      -0.98986486
H        2.25437402      -1.32151815      -0.17209272
H        1.34733449       0.05716625       1.92285096
H       -0.15656278       0.94792420       1.75450090
H        1.31447014       1.54389763       0.96666227
16
Frame=6 idx=005404 GeodesicLength=0.2799243962189298 rxn_smarts="[C:1]([C@@:2]1([H:10])[O:3][C:4]1([C:5]([H:11])([H:12])[H:13])[C:6]([H:14])([H:15])[H:16])([H:7])([H:8])[H:9]>>[C:1]([O:3][C:4]([C:2][H:10])([C:5]([H:11])([H:12])[H:13])[C:6]([H:14])([H:15])[H:16])([H:7])([H:8])[H:9]"
C       -2.10527275       0.42711187      -0.16102679
C       -0.75202105      -1.00797311      -0.07513438
O       -0.50612044       0.37303440      -0.92449631
C        0.45160631      -0.17753318      -0.00308464
C        1.68262438      -0.61291593      -0.76264412
C        0.74084460       0.65679458       1.21690385
H       -2.86807564      -0.16746141      -0.65581068
H       -2.18126548       1.47493337      -0.45890898
H       -2.27315514       0.41147298       0.91081761
H       -0.66762512      -1.78093835      -0.84682162
H        1.40534239      -1.10113253      -1.69672149
H        2.32663602       0.23918437      -0.99239144
H        2.25907623      -1.31876665      -0.16053202
H        1.34135808       0.07257315       1.91767291
H       -0.16212778       0.95988143       1.74155863
H        1.30817540       1.55173500       0.95061949
16
Frame=7 idx=005404 GeodesicLength=0.32731685020743456 rxn_smarts="[C:1]([C@@:2]1([H:10])[O:3][C:4]1([C:5]([H:11])([H:12])[H:13])[C:6]([H:14])([H:15])[H:16])([H:7])([H:8])[H:9]>>[C:1]([O:3][C:4]([C:2][H:10])([C:5]([H:11])([H:12])[H:13])[C:6]([H:14])([H:15])[H:16])([H:7])([H:8])[H:9]"
C       -2.10189601       0.42341530      -0.15179846
C       -0.75326653      -1.00681618      -0.08362112
O       -0.50834423       0.35876485      -0.93707611
C        0.45209350      -0.17879685      -0.00827843
C        1.68682891      -0.61720462      -0.75957296
C        0.73513495       0.66537549       1.20599214
H       -2.87091143      -0.12990486      -0.68411408
H       -2.15497983       1.48720479      -0.39246252
H       -2.29308381       0.36378111       0.91522877
H       -0.66893092      -1.78808603      -0.84636024
H        1.41506090      -1.11512985      -1.69011473
H        2.32912952       0.23470612      -0.99480793
H        2.26355775      -1.31561668      -0.14910666
H        1.33559561       0.08775095       1.91232536
H       -0.16764670       0.97116199       1.72893276
H        1.30165832       1.55939446       0.93483422
16
Frame=8 idx=005404 GeodesicLength=0.3748628747335838 rxn_smarts="[C:1]([C@@:2]1([H:10])[O:3][C:4]1([C:5]([H:11])([H:12])[H:13])[C:6]([H:14])([H:15])[H:16])([H:7])([H:8])[H:9]>>[C:1]([O:3][C:4]([C:2][H:10])([C:5]([H:11])([H:12])[H:13])[C:6]([H:14])([H:15])[H:16])([H:7])([H:8])[H:9]"
C       -2.09857820       0.41966476      -0.14280857
C       -0.75457243      -1.00571054      -0.09199725
O       -0.51057533       0.34479127      -0.94941019
C        0.45250776      -0.17995268      -0.01342263
C        1.69094113      -0.62129283      -0.75659665
C        0.72941082       0.67379928       1.19532158
H       -2.87314723      -0.09030371      -0.71005520
H       -2.12857974       1.49567240      -0.32691938
H       -2.31289684       0.31745815       0.91733930
H       -0.67042359      -1.79517756      -0.84586200
H        1.42463762      -1.12890469      -1.68353781
H        2.33157487       0.23047105      -0.99731953
H        2.26792614      -1.31227829      -0.13790399
H        1.32998985       0.10272105       1.90697740
H       -0.17319758       0.98194545       1.71684370
H        1.29498274       1.56709688       0.91935123
16
Frame=9 idx=005404 GeodesicLength=0.42283240955467066 rxn_smarts="[C:1]([C@@:2]1([H:10])[O:3][C:4]1([C:5]([H:11])([H:12])[H:13])[C:6]([H:14])([H:15])[H:16])([H:7])([H:8])[H:9]>>[C:1]([O:3][C:4]([C:2][H:10])([C:5]([H:11])([H:12])[H:13])[C:6]([H:14])([H:15])[H:16])([H:7])([H:8])[H:9]"
C       -2.09532132       0.41583101      -0.13410557
C       -0.75582672      -1.00441755      -0.10022278
O       -0.51291866       0.33107030      -0.96129951
C        0.45286216      -0.18097984      -0.01849444
C        1.69487917      -0.62512530      -0.75350832
C        0.72375304       0.68191457       1.18465091
H       -2.87460421      -0.04857324      -0.73369228
H       -2.10246013       1.50024706      -0.26225153
H       -2.33249096       0.27243679       0.91694953
H       -0.67199915      -1.80183476      -0.84509589
H        1.43393573      -1.14230146      -1.67659234
H        2.33377826       0.22634189      -0.99969478
H        2.27219739      -1.30858003      -0.12680679
H        1.32473051       0.11743188       1.90127301
H       -0.17862333       0.99205016       1.70493064
H        1.28810823       1.57448854       0.90396015
16
Frame=10 idx=005404 GeodesicLength=0.4710201692945429 rxn_smarts="[C:1]([C@@:2]1([H:10])[O:3][C:4]1([C:5]([H:11])([H:12])[H:13])[C:6]([H:14])([H:15])[H:16])([H:7])([H:8])[H:9]>>[C:1]([O:3][C:4]([C:2][H:10])([C:5]([H:11])([H:12])[H:13])[C:6]([H:14])([H:15])[H:16])([H:7])([H:8])[H:9]"
C       -2.09211715       0.41193207      -0.12570570
C       -0.75714103      -1.00313271      -0.10831644
O       -0.51523502       0.31759523      -0.97297076
C        0.45316533      -0.18190870      -0.02350690
C        1.69872894      -0.62878474      -0.75048314
C        0.71814873       0.68988255       1.17419798
H       -2.87535980      -0.00498976      -0.75496251
H       -2.07662053       1.50135834      -0.19870687
H       -2.35205654       0.22868088       0.91441462
H       -0.67376245      -1.80838865      -0.84424341
H        1.44308566      -1.15552651      -1.66962264
H        2.33594378       0.22238324      -1.00216818
H        2.27636065      -1.30466300      -0.11586094
H        1.31971912       0.13200442       1.89556531
H       -0.18397538       1.00165430       1.69357540
H        1.28111568       1.58190304       0.88879420
16
Frame=11 idx=005404 GeodesicLength=0.5194063915125875 rxn_smarts="[C:1]([C@@:2]1([H:10])[O:3][C:4]1([C:5]([H:11])([H:12])[H:13])[C:6]([H:14])([H:15])[H:16])([H:7])([H:8])[H:9]>>[C:1]([O:3][C:4]([C:2][H:10])([C:5]([H:11])([H:12])[H:13])[C:6]([H:14])([H:15])[H:16])([H:7])([H:8])[H:9]"
C       -2.08896280       0.40797102      -0.11763124
C       -0.75845531      -1.00180610      -0.11623777
O       -0.51757461       0.30435129      -0.98432045
C        0.45342250      -0.18273828      -0.02843638
C        1.70243239      -0.63226561      -0.74746179
C        0.71264026       0.69767029       1.16390249
H       -2.87516726       0.04029515      -0.77399582
H       -2.05135062       1.49915285      -0.13631158
H       -2.37156864       0.18626249       0.90969228
H       -0.67564669      -1.81479554      -0.84317649
H        1.45198466      -1.16852808      -1.66250988
H        2.33795557       0.21856570      -1.00465331
H        2.28040123      -1.30053123      -0.10509129
H        1.31507141       0.14641564       1.88971385
H       -0.18916522       1.01071201       1.68269919
H        1.27398313       1.58926841       0.87381819
16
Frame=12 idx=005404 GeodesicLength=0.5680402359657727 rxn_smarts="[C:1]([C@@:2]1([H:10])[O:3][C:4]1([C:5]([H:11])([H:12])[H:13])[C:6]([H:14])([H:15])[H:16])([H:7])([H:8])[H:9]>>[C:1]([O:3][C:4]([C:2][H:10])([C:5]([H:11])([H:12])[H:13])[C:6]([H:14])([H:15])[H:16])([H:7])([H:8])[H:9]"
C       -2.08580204       0.40395078      -0.10989258
C       -0.75976078      -1.00043869      -0.12402270
O       -0.51989516       0.29132876      -0.99539124
C        0.45363168      -0.18347014      -0.03331068
C        1.70598847      -0.63558127      -0.74440366
C        0.70720800       0.70528757       1.15368842
H       -2.87401032       0.08730747      -0.79061639
H       -2.02673067       1.49380094      -0.07507270
H       -2.39098691       0.14498754       0.90282401
H       -0.67764082      -1.82103365      -0.84191331
H        1.46067651      -1.18135263      -1.65517366
H        2.33981770       0.21486278      -1.00712410
H        2.28428523      -1.29616410      -0.09440989
H        1.31072970       0.16069596       1.88366320
H       -0.19418596       1.01922461       1.67222588
H        1.26667537       1.59659407       0.85892939
16
Frame=13 idx=005404 GeodesicLength=0.616848751736817 rxn_smarts="[C:1]([C@@:2]1([H:10])[O:3][C:4]1([C:5]([H:11])([H:12])[H:13])[C:6]([H:14])([H:15])[H:16])([H:7])([H:8])[H:9]>>[C:1]([O:3][C:4]([C:2][H:10])([C:5]([H:11])([H:12])[H:13])[C:6]([H:14])([H:15])[H:16])([H:7])([H:8])[H:9]"
C       -2.08274645       0.39990182      -0.10250115
C       -0.76108622      -0.99902289      -0.13161669
O       -0.52222474       0.27848266      -1.00621964
C        0.45381968      -0.18411345      -0.03811320
C        1.70947038      -0.63876477      -0.74135935
C        0.70190011       0.71275672       1.14362122
H       -2.87183825       0.13582669      -0.80493781
H       -2.00303667       1.48549761      -0.01507102
H       -2.41048669       0.10498610       0.89389823
H       -0.67975613      -1.82714069      -0.84040004
H        1.46919780      -1.19400984      -1.64772106
H        2.34163459       0.21122991      -1.00964060
H        2.28811605      -1.29162070      -0.08387102
H        1.30680782       0.17487969       1.87749380
H       -0.19902357       1.02721962       1.66227701
H        1.25925228       1.60389153       0.84416133
16
Frame=14 idx=005404 GeodesicLength=0.6658075577837104 rxn_smarts="[C:1]([C@@:2]1([H:10])[O:3][C:4]1([C:5]([H:11])([H:12])[H:13])[C:6]([H:14])([H:15])[H:16])([H:7])([H:8])[H:9]>>[C:1]([O:3][C:4]([C:2][H:10])([C:5]([H:11])([H:12])[H:13])[C:6]([H:14])([H:15])[H:16])([H:7])([H:8])[H:9]"
C       -2.07974553       0.39584040      -0.09546481
C       -0.76242274      -0.99755525      -0.13901826
O       -0.52454822       0.26578300      -1.01680862
C        0.45397864      -0.18466909      -0.04285120
C        1.71284581      -0.64180971      -0.73830592
C        0.69670753       0.72007446       1.13365823
H       -2.86852408       0.18572436      -0.81687382
H       -1.98032241       1.47440621       0.04364917
H       -2.43004739       0.06622680       0.88290812
H       -0.68198202      -1.83311739      -0.83859421
H        1.47752084      -1.20649296      -1.64010027
H        2.34335959       0.20767116      -1.01217060
H        2.29185207      -1.28688574      -0.07346381
H        1.30329490       0.18897428       1.87114185
H       -0.20365490       1.03467515       1.65281564
H        1.25168792       1.61115433       0.82947851
16
Frame=15 idx=005404 GeodesicLength=0.7148498390618236 rxn_smarts="[C:1]([C@@:2]1([H:10])[O:3][C:4]1([C:5]([H:11])([H:12])[H:13])[C:6]([H:14])([H:15])[H:16])([H:7])([H:8])[H:9]>>[C:1]([O:3][C:4]([C:2][H:10])([C:5]([H:11])([H:12])[H:13])[C:6]([H:14])([H:15])[H:16])([H:7])([H:8])[H:9]"
C       -2.07679275       0.39178527      -0.08877898
C       -0.76376163      -0.99605114      -0.14621743
O       -0.52685880       0.25320266      -1.02719401
C        0.45410911      -0.18514161      -0.04753350
C        1.71612048      -0.64473711      -0.73525912
C        0.69161347       0.72726365       1.12379703
H       -2.86395828       0.23687586      -0.82640468
H       -1.95870746       1.46070232       0.10108404
H       -2.44967247       0.02871584       0.86990799
H       -0.68429341      -1.83900207      -0.83647424
H        1.48566231      -1.21882105      -1.63234421
H        2.34500098       0.20417015      -1.01473144
H        2.29548822      -1.28199649      -0.06319420
H        1.30017212       0.20300286       1.86461911
H       -0.20808811       1.04162523       1.64386030
H        1.24396624       1.61840563       0.81486333
16
Frame=16 idx=005404 GeodesicLength=0.7639398215288689 rxn_smarts="[C:1]([C@@:2]1([H:10])[O:3][C:4]1([C:5]([H:11])([H:12])[H:13])[C:6]([H:14])([H:15])[H:16])([H:7])([H:8])[H:9]>>[C:1]([O:3][C:4]([C:2][H:10])([C:5]([H:11])([H:12])[H:13])[C:6]([H:14])([H:15])[H:16])([H:7])([H:8])[H:9]"
C       -2.07388515       0.38776490      -0.08245051
C       -0.76511531      -0.99451179      -0.15320343
O       -0.52915989       0.24070302      -1.03739520
C        0.45420831      -0.18553404      -0.05216389
C        1.71929214      -0.64754752      -0.73221576
C        0.68661850       0.73433397       1.11402109
H       -2.85805542       0.28910706      -0.83349581
H       -1.93822690       1.44453211       0.15723928
H       -2.46940003      -0.00753073       0.85488501
H       -0.68670001      -1.84480980      -0.83400057
H        1.49361239      -1.23098301      -1.62445099
H        2.34656105       0.20072601      -1.01730823
H        2.29902197      -1.27696004      -0.05306737
H        1.29745631       0.21698783       1.85790121
H       -0.21231026       1.04806931       1.63540918
H        1.23608230       1.62565273       0.80029600
