13
Frame=0 idx=005528 GeodesicLength=0.0 rxn_smarts="[O:1]=[C:2]([C:3]([C@@:4]1([H:10])[C:5]([H:11])([H:12])[N:6]1[H:13])([H:8])[H:9])[H:7]>>[O:1]=[C:2]([C:3]([C:4][N:6]([C:5]([H:10])([H:11])[H:12])[H:13])([H:8])[H:9])[H:7]"
O        1.15688276       1.90949406       0.44689139
C        1.71515981       0.90890169       0.08559514
C        1.04515560      -0.42938681      -0.06297989
C       -0.20749569      -0.63047816       0.76541099
C       -1.48959420       0.19062213      -0.22448591
N       -1.21634832      -1.23913591      -0.04143835
H        2.78479031       0.94116319      -0.20424584
H        1.74213035      -1.20097833       0.28227924
H        0.91614510      -0.61247121      -1.14306276
H       -0.83418764       0.72265118       0.61138761
H       -1.20545158       0.56601115      -1.20103196
H       -2.47390255       0.49135366       0.11974768
H       -1.93328400      -1.61774658       0.56593260
13
Frame=1 idx=005528 GeodesicLength=0.05292837119280953 rxn_smarts="[O:1]=[C:2]([C:3]([C@@:4]1([H:10])[C:5]([H:11])([H:12])[N:6]1[H:13])([H:8])[H:9])[H:7]>>[O:1]=[C:2]([C:3]([C:4][N:6]([C:5]([H:10])([H:11])[H:12])[H:13])([H:8])[H:9])[H:7]"
O        1.16555874       1.90751831       0.45718630
C        1.71812950       0.90815553       0.08427558
C        1.04818054      -0.43012580      -0.06496667
C       -0.20537884      -0.62905260       0.76045107
C       -1.49328484       0.19146942      -0.22729201
N       -1.21847197      -1.23641137      -0.03497501
H        2.78635306       0.94065047      -0.21123730
H        1.74706254      -1.20115006       0.27752156
H        0.91780911      -0.61039521      -1.14511225
H       -0.84665578       0.72587801       0.63330768
H       -1.20180166       0.56223080      -1.20355926
H       -2.48492907       0.48737241       0.09963219
H       -1.93257133      -1.61613992       0.57476815
13
Frame=2 idx=005528 GeodesicLength=0.10579786898333388 rxn_smarts="[O:1]=[C:2]([C:3]([C@@:4]1([H:10])[C:5]([H:11])([H:12])[N:6]1[H:13])([H:8])[H:9])[H:7]>>[O:1]=[C:2]([C:3]([C:4][N:6]([C:5]([H:10])([H:11])[H:12])[H:13])([H:8])[H:9])[H:7]"
O        1.17394819       1.90545467       0.46702769
C        1.72095178       0.90742820       0.08285419
C        1.05126128      -0.43096860      -0.06695226
C       -0.20328074      -0.62763350       0.75541671
C       -1.49687241       0.19247800      -0.23009140
N       -1.22061687      -1.23352399      -0.02861199
H        2.78776417       0.94028595      -0.21821581
H        1.75207419      -1.20130447       0.27294211
H        0.91958580      -0.60852630      -1.14714222
H       -0.85934849       0.72850986       0.65581384
H       -1.19806016       0.55861736      -1.20600879
H       -2.49549571       0.48351388       0.07950078
H       -1.93191103      -1.61433106       0.58346715
13
Frame=3 idx=005528 GeodesicLength=0.15861555096060048 rxn_smarts="[O:1]=[C:2]([C:3]([C@@:4]1([H:10])[C:5]([H:11])([H:12])[N:6]1[H:13])([H:8])[H:9])[H:7]>>[O:1]=[C:2]([C:3]([C:4][N:6]([C:5]([H:10])([H:11])[H:12])[H:13])([H:8])[H:9])[H:7]"
O        1.18206516       1.90331591       0.47642815
C        1.72363737       0.90671992       0.08133551
C        1.05439490      -0.43190808      -0.06893549
C       -0.20120603      -0.62620350       0.75030881
C       -1.50036427       0.19364868      -0.23289109
N       -1.22277924      -1.23047221      -0.02234693
H        2.78903649       0.94005829      -0.22517632
H        1.75715740      -1.20144041       0.26854220
H        0.92147331      -0.60685555      -1.14915297
H       -0.87226081       0.73052883       0.67888230
H       -1.19425192       0.55514854      -1.20840237
H       -2.50560476       0.47978479       0.05937751
H       -1.93129759      -1.61232521       0.59203069
13
Frame=4 idx=005528 GeodesicLength=0.21139433780826464 rxn_smarts="[O:1]=[C:2]([C:3]([C@@:4]1([H:10])[C:5]([H:11])([H:12])[N:6]1[H:13])([H:8])[H:9])[H:7]>>[O:1]=[C:2]([C:3]([C:4][N:6]([C:5]([H:10])([H:11])[H:12])[H:13])([H:8])[H:9])[H:7]"
O        1.18992894       1.90111763       0.48540403
C        1.72619976       0.90603258       0.07972427
C        1.05757802      -0.43293662      -0.07091523
C       -0.19916126      -0.62474476       0.74512983
C       -1.50376931       0.19498109      -0.23569884
N       -1.22495655      -1.22725658      -0.01617702
H        2.79018626       0.93995692      -0.23211556
H        1.76230275      -1.20155799       0.26432229
H        0.92347004      -0.60537373      -1.15114622
H       -0.88538751       0.73192156       0.70248852
H       -1.19040048       0.55180184      -1.21076345
H       -2.51526329       0.47618890       0.03928611
H       -1.93072737      -1.61013086       0.60046129
13
Frame=5 idx=005528 GeodesicLength=0.2641161366732219 rxn_smarts="[O:1]=[C:2]([C:3]([C@@:4]1([H:10])[C:5]([H:11])([H:12])[N:6]1[H:13])([H:8])[H:9])[H:7]>>[O:1]=[C:2]([C:3]([C:4][N:6]([C:5]([H:10])([H:11])[H:12])[H:13])([H:8])[H:9])[H:7]"
O        1.19755460       1.89886323       0.49396661
C        1.72864772       0.90536187       0.07802839
C        1.06080632      -0.43404312      -0.07288998
C       -0.19714659      -0.62323508       0.73987729
C       -1.50709689       0.19647338      -0.23852223
N       -1.22713936      -1.22387051      -0.01009764
H        2.79122122       0.93996240      -0.23902232
H        1.76750117      -1.20165286       0.26028129
H        0.92557018      -0.60406308      -1.15311864
H       -0.89872076       0.73266757       0.72659672
H       -1.18653697       0.54855038      -1.21311010
H       -2.52447635       0.47273310       0.01924970
H       -1.93018428      -1.60774728       0.60876088
13
Frame=6 idx=005528 GeodesicLength=0.3168213110914699 rxn_smarts="[O:1]=[C:2]([C:3]([C@@:4]1([H:10])[C:5]([H:11])([H:12])[N:6]1[H:13])([H:8])[H:9])[H:7]>>[O:1]=[C:2]([C:3]([C:4][N:6]([C:5]([H:10])([H:11])[H:12])[H:13])([H:8])[H:9])[H:7]"
O        1.20499096       1.89655336       0.50220673
C        1.73099704       0.90471165       0.07624987
C        1.06407687      -0.43522149      -0.07484801
C       -0.19517437      -0.62165630       0.73456103
C       -1.51035285       0.19812496      -0.24137450
N       -1.22932990      -1.22031563      -0.00410405
H        2.79213645       0.94008603      -0.24597999
H        1.77274496      -1.20172110       0.25643470
H        0.92777625      -0.60292542      -1.15506072
H       -0.91226303       0.73276202       0.75119324
H       -1.18266458       0.54537307      -1.21546839
H       -2.53326275       0.46940857      -0.00074372
H       -1.92967505      -1.60517973       0.61693381
13
Frame=7 idx=005528 GeodesicLength=0.3695065953802586 rxn_smarts="[O:1]=[C:2]([C:3]([C@@:4]1([H:10])[C:5]([H:11])([H:12])[N:6]1[H:13])([H:8])[H:9])[H:7]>>[O:1]=[C:2]([C:3]([C:4][N:6]([C:5]([H:10])([H:11])[H:12])[H:13])([H:8])[H:9])[H:7]"
O        1.21228704       1.89418333       0.51021162
C        1.73326621       0.90407908       0.07441742
C        1.06738555      -0.43646194      -0.07677695
C       -0.19325170      -0.61998425       0.72918920
C       -1.51354412       0.19993216      -0.24427008
N       -1.23152380      -1.21659138       0.00181706
H        2.79291541       0.94033495      -0.25306927
H        1.77802285      -1.20176724       0.25278591
H        0.93008722      -0.60194003      -1.15696455
H       -0.92601211       0.73219221       0.77624296
H       -1.17879793       0.54223381      -1.21786696
H       -2.54163829       0.46621560      -0.02071035
H       -1.92919633      -1.60242630       0.62499398
13
Frame=8 idx=005528 GeodesicLength=0.42217875891903456 rxn_smarts="[O:1]=[C:2]([C:3]([C@@:4]1([H:10])[C:5]([H:11])([H:12])[N:6]1[H:13])([H:8])[H:9])[H:7]>>[O:1]=[C:2]([C:3]([C:4][N:6]([C:5]([H:10])([H:11])[H:12])[H:13])([H:8])[H:9])[H:7]"
O        1.21945641       1.89177577       0.51793196
C        1.73546954       0.90346538       0.07252061
C        1.07072411      -0.43774848      -0.07868847
C       -0.19137969      -0.61819415       0.72375730
C       -1.51669108       0.20188783      -0.24721437
N       -1.23371274      -1.21269462       0.00766768
H        2.79360783       0.94066578      -0.26018527
H        1.78331807      -1.20178635       0.24931630
H        0.93248915      -0.60108518      -1.15884059
H       -0.93995494       0.73095864       0.80171058
H       -1.17498018       0.53911618      -1.22032068
H       -2.54962091       0.46313995      -0.04060077
H       -1.92872558      -1.59950075       0.63294571
13
Frame=9 idx=005528 GeodesicLength=0.47483818446276377 rxn_smarts="[O:1]=[C:2]([C:3]([C@@:4]1([H:10])[C:5]([H:11])([H:12])[N:6]1[H:13])([H:8])[H:9])[H:7]>>[O:1]=[C:2]([C:3]([C:4][N:6]([C:5]([H:10])([H:11])[H:12])[H:13])([H:8])[H:9])[H:7]"
O        1.22653319       1.88934409       0.52538443
C        1.73762546       0.90287259       0.07056591
C        1.07408754      -0.43906867      -0.08058114
C       -0.18956493      -0.61626343       0.71826828
C       -1.51980920       0.20398609      -0.25021600
N       -1.23589357      -1.20862674       0.01345327
H        2.79423403       0.94106282      -0.26732053
H        1.78861716      -1.20177758       0.24602210
H        0.93497873      -0.60034429      -1.16069013
H       -0.95408294       0.72905655       0.82756537
H       -1.17123531       0.53599919      -1.22284780
H       -2.55723323       0.46017429      -0.06039828
H       -1.92825692      -1.59641490       0.64079451
13
Frame=10 idx=005528 GeodesicLength=0.5274896614901529 rxn_smarts="[O:1]=[C:2]([C:3]([C@@:4]1([H:10])[C:5]([H:11])([H:12])[N:6]1[H:13])([H:8])[H:9])[H:7]>>[O:1]=[C:2]([C:3]([C:4][N:6]([C:5]([H:10])([H:11])[H:12])[H:13])([H:8])[H:9])[H:7]"
O        1.23355467       1.88689631       0.53259263
C        1.73975156       0.90230058       0.06855998
C        1.07746892      -0.44040911      -0.08245266
C       -0.18781296      -0.61416740       0.71272518
C       -1.52291391       0.20621942      -0.25328576
N       -1.23806045      -1.20438617       0.01918040
H        2.79481116       0.94150830      -0.27447211
H        1.79390516      -1.20173928       0.24289873
H        0.93754818      -0.59969825      -1.16251191
H       -0.96838730       0.72648621       0.85377713
H       -1.16758674       0.53286255      -1.22546595
H       -2.56449972       0.45730370      -0.08009234
H       -1.92777857      -1.59317686       0.64854666
13
Frame=11 idx=005528 GeodesicLength=0.580137910731259 rxn_smarts="[O:1]=[C:2]([C:3]([C@@:4]1([H:10])[C:5]([H:11])([H:12])[N:6]1[H:13])([H:8])[H:9])[H:7]>>[O:1]=[C:2]([C:3]([C:4][N:6]([C:5]([H:10])([H:11])[H:12])[H:13])([H:8])[H:9])[H:7]"
O        1.24056176       1.88444059       0.53958206
C        1.74186692       0.90174968       0.06650996
C        1.08086133      -0.44175579      -0.08430062
C       -0.18612974      -0.61188072       0.70713137
C       -1.52602210       0.20857922      -0.25643510
N       -1.24020818      -1.19997203       0.02485612
H        2.79535738       0.94198457      -0.28163879
H        1.79916642      -1.20167009       0.23994112
H        0.94019014      -0.59912714      -1.16430488
H       -0.98285909       0.72325013       0.88031692
H       -1.16405719       0.52968674      -1.22819221
H       -2.57144792       0.45451061      -0.09967521
H       -1.92727972      -1.58979578       0.65620924
13
Frame=12 idx=005528 GeodesicLength=0.632787493923235 rxn_smarts="[O:1]=[C:2]([C:3]([C@@:4]1([H:10])[C:5]([H:11])([H:12])[N:6]1[H:13])([H:8])[H:9])[H:7]>>[O:1]=[C:2]([C:3]([C:4][N:6]([C:5]([H:10])([H:11])[H:12])[H:13])([H:8])[H:9])[H:7]"
O        1.24759617       1.88198495       0.54637667
C        1.74399088       0.90122022       0.06442296
C        1.08425758      -0.44309450      -0.08612264
C       -0.18452111      -0.60937794       0.70149020
C       -1.52915124       0.21105615      -0.25967572
N       -1.24233176      -1.19538331       0.03048769
H        2.79589125       0.94247361      -0.28881890
H        1.80438490      -1.20156887       0.23714366
H        0.94289689      -0.59861062      -1.16606800
H       -0.99748884       0.71935194       0.90715874
H       -1.16066798       0.52645429      -1.23104198
H       -2.57810725       0.45177492      -0.11914227
H       -1.92674948      -1.58628084       0.66378959
13
Frame=13 idx=005528 GeodesicLength=0.6854439722127629 rxn_smarts="[O:1]=[C:2]([C:3]([C@@:4]1([H:10])[C:5]([H:11])([H:12])[N:6]1[H:13])([H:8])[H:9])[H:7]>>[O:1]=[C:2]([C:3]([C:4][N:6]([C:5]([H:10])([H:11])[H:12])[H:13])([H:8])[H:9])[H:7]"
O        1.25470149       1.87953725       0.55300061
C        1.74614328       0.90071298       0.06230549
C        1.08765016      -0.44441060      -0.08791685
C       -0.18299294      -0.60663309       0.69580495
C       -1.53231966       0.21363987      -0.26302006
N       -1.24442660      -1.19061904       0.03608296
H        2.79643267       0.94295691      -0.29600935
H        1.80954396      -1.20143466       0.23449958
H        0.94566005      -0.59812772      -1.16780086
H       -1.01226682       0.71479692       0.93427943
H       -1.15743963       0.52314867      -1.23403010
H       -2.58450896       0.44907359      -0.13849204
H       -1.92617701      -1.58264108       0.67129624
13
Frame=14 idx=005528 GeodesicLength=0.738108523775803 rxn_smarts="[O:1]=[C:2]([C:3]([C@@:4]1([H:10])[C:5]([H:11])([H:12])[N:6]1[H:13])([H:8])[H:9])[H:7]>>[O:1]=[C:2]([C:3]([C:4][N:6]([C:5]([H:10])([H:11])[H:12])[H:13])([H:8])[H:9])[H:7]"
O        1.26192110       1.87710460       0.55947595
C        1.74834435       0.90022839       0.06016458
C        1.09103155      -0.44568909      -0.08968180
C       -0.18155062      -0.60361947       0.69007814
C       -1.53554661       0.21631944      -0.26648079
N       -1.24648766      -1.18567730       0.04165044
H        2.79700251       0.94341464      -0.30320467
H        1.81462683      -1.20126727       0.23200078
H        0.94847118      -0.59765577      -1.16950294
H       -1.02718367       0.70959048       0.96165694
H       -1.15439279       0.51975410      -1.23717004
H       -2.59068582       0.44638155      -0.15772493
H       -1.92555035      -1.57888428       0.67873835
13
Frame=15 idx=005528 GeodesicLength=0.7907805177799053 rxn_smarts="[O:1]=[C:2]([C:3]([C@@:4]1([H:10])[C:5]([H:11])([H:12])[N:6]1[H:13])([H:8])[H:9])[H:7]>>[O:1]=[C:2]([C:3]([C:4][N:6]([C:5]([H:10])([H:11])[H:12])[H:13])([H:8])[H:9])[H:7]"
O        1.26925452       1.87471378       0.56574050
C        1.75060618       0.89976487       0.05800198
C        1.09439573      -0.44692227      -0.09141518
C       -0.18019782      -0.60032487       0.68431011
C       -1.53884558       0.21909045      -0.27006095
N       -1.24851102      -1.18055548       0.04718290
H        2.79762996       0.94382069      -0.31035567
H        1.81962028      -1.20106609       0.22965016
H        0.95132496      -0.59718682      -1.17117315
H       -1.04221582       0.70372374       0.98929403
H       -1.15154054       0.51628024      -1.24045865
H       -2.59666028       0.44369108      -0.17681566
H       -1.92486056      -1.57502930       0.68609958
13
Frame=16 idx=005528 GeodesicLength=0.8434691814125073 rxn_smarts="[O:1]=[C:2]([C:3]([C@@:4]1([H:10])[C:5]([H:11])([H:12])[N:6]1[H:13])([H:8])[H:9])[H:7]>>[O:1]=[C:2]([C:3]([C:4][N:6]([C:5]([H:10])([H:11])[H:12])[H:13])([H:8])[H:9])[H:7]"
O        1.27678711       1.87235123       0.57189666
C        1.75295591       0.89932466       0.05582854
C        1.09773233      -0.44808765      -0.09311687
C       -0.17894218      -0.59670741       0.67850560
C       -1.54224025       0.22193432      -0.27378397
N       -1.25049193      -1.17525053       0.05270471
H        2.79832704       0.94416146      -0.31750187
H        1.82450141      -1.20083012       0.22742791
H        0.95420892      -0.59668472      -1.17281228
H       -1.05736526       0.69721532       1.01716083
H       -1.14890301       0.51269208      -1.24392243
H       -2.60247586       0.44095202      -0.19580206
H       -1.92409423      -1.57107067       0.69341523
