11
Frame=0 idx=005389 GeodesicLength=0.0 rxn_smarts="[N:1]([c:2]1[c:3]([H:9])[c:4]([H:10])[n:5][n:6]1[H:11])([H:7])[H:8]>>[N:1]([C:2]1=[C+:3][C:4]([H:9])([H:10])[N-:5][N:6]1[H:11])([H:7])[H:8]"
N       -1.95468640       0.07945505       0.07483987
C       -0.56164780      -0.06063675      -0.02507296
C        0.24483066      -1.17231678      -0.27304063
C        1.56647558      -0.50857371      -0.14322012
N        1.48382300       0.87903452       0.02474348
N        0.20963173       1.05194949       0.12733999
H       -2.36543601      -0.82404373       0.26060369
H       -2.37054468       0.44902508      -0.76978276
H        1.38463473      -0.97054452       0.89040387
H        2.50389860      -0.89816595      -0.51906604
H       -0.14097946       1.97481727       0.35225162
11
Frame=1 idx=005389 GeodesicLength=0.06599922688219317 rxn_smarts="[N:1]([c:2]1[c:3]([H:9])[c:4]([H:10])[n:5][n:6]1[H:11])([H:7])[H:8]>>[N:1]([C:2]1=[C+:3][C:4]([H:9])([H:10])[N-:5][N:6]1[H:11])([H:7])[H:8]"
N       -1.95300124       0.08076622       0.07541167
C       -0.56041080      -0.05626327      -0.03420338
C        0.25011664      -1.16406838      -0.27629871
C        1.56952622      -0.50426273      -0.13871599
N        1.48603234       0.88007621       0.04734303
N        0.21028932       1.05672613       0.12645665
H       -2.36166764      -0.82012759       0.27733566
H       -2.37526858       0.43901535      -0.77079172
H        1.37235041      -1.00887668       0.89036732
H        2.50522118      -0.88634203      -0.52664765
H       -0.14318786       1.98335677       0.32974312
11
Frame=2 idx=005389 GeodesicLength=0.13203848688805775 rxn_smarts="[N:1]([c:2]1[c:3]([H:9])[c:4]([H:10])[n:5][n:6]1[H:11])([H:7])[H:8]>>[N:1]([C:2]1=[C+:3][C:4]([H:9])([H:10])[N-:5][N:6]1[H:11])([H:7])[H:8]"
N       -1.95122508       0.08204612       0.07620145
C       -0.55913998      -0.05188198      -0.04313005
C        0.25546783      -1.15564208      -0.27991137
C        1.57256386      -0.49985565      -0.13357227
N        1.48774891       0.88103261       0.07018779
N        0.21088716       1.06165458       0.12512871
H       -2.35757610      -0.81605253       0.29427390
H       -2.37997274       0.42883316      -0.77140446
H        1.35950834      -1.04807342       0.88911888
H        2.50662290      -0.87385182      -0.53342758
H       -0.14488510       1.99179101       0.30653500
11
Frame=3 idx=005389 GeodesicLength=0.19807222709611577 rxn_smarts="[N:1]([c:2]1[c:3]([H:9])[c:4]([H:10])[n:5][n:6]1[H:11])([H:7])[H:8]>>[N:1]([C:2]1=[C+:3][C:4]([H:9])([H:10])[N-:5][N:6]1[H:11])([H:7])[H:8]"
N       -1.94939010       0.08332228       0.07709902
C       -0.55785344      -0.04754373      -0.05169113
C        0.26087535      -1.14713001      -0.28345666
C        1.57556808      -0.49535363      -0.12784253
N        1.48892730       0.88196443       0.09279744
N        0.21141284       1.06670929       0.12321431
H       -2.35327333      -0.81175154       0.31124680
H       -2.38452044       0.41848723      -0.77180480
H        1.34629478      -1.08785120       0.88666772
H        2.50803469      -0.86080703      -0.53946350
H       -0.14607573       1.99995391       0.28323333
11
Frame=4 idx=005389 GeodesicLength=0.263970527586576 rxn_smarts="[N:1]([c:2]1[c:3]([H:9])[c:4]([H:10])[n:5][n:6]1[H:11])([H:7])[H:8]>>[N:1]([C:2]1=[C+:3][C:4]([H:9])([H:10])[N-:5][N:6]1[H:11])([H:7])[H:8]"
N       -1.94752647       0.08460722       0.07801483
C       -0.55656639      -0.04329821      -0.05978020
C        0.26632635      -1.13863061      -0.28661942
C        1.57853185      -0.49079025      -0.12158426
N        1.48958018       0.88299203       0.11481617
N        0.21187232       1.07189284       0.12065235
H       -2.34885911      -0.80719641       0.32813727
H       -2.38882799       0.40798120      -0.77215585
H        1.33288274      -1.12798339       0.88301227
H        2.50939830      -0.84737758      -0.54480195
H       -0.14681178       2.00780314       0.26030879
11
Frame=5 idx=005389 GeodesicLength=0.3299727094361192 rxn_smarts="[N:1]([c:2]1[c:3]([H:9])[c:4]([H:10])[n:5][n:6]1[H:11])([H:7])[H:8]>>[N:1]([C:2]1=[C+:3][C:4]([H:9])([H:10])[N-:5][N:6]1[H:11])([H:7])[H:8]"
N       -1.94563718       0.08592361       0.07875356
C       -0.55526190      -0.03918355      -0.06734616
C        0.27180270      -1.13030048      -0.28885881
C        1.58143325      -0.48620242      -0.11481760
N        1.48970535       0.88419580       0.13501031
N        0.21229905       1.07725989       0.11688953
H       -2.34447840      -0.80233490       0.34469165
H       -2.39270825       0.39733651      -0.77274784
H        1.31947001      -1.16800936       0.87860208
H        2.51057821      -0.83378402      -0.54950984
H       -0.14720284       2.01509891       0.23933312
11
Frame=6 idx=005389 GeodesicLength=0.395953293203855 rxn_smarts="[N:1]([c:2]1[c:3]([H:9])[c:4]([H:10])[n:5][n:6]1[H:11])([H:7])[H:8]>>[N:1]([C:2]1=[C+:3][C:4]([H:9])([H:10])[N-:5][N:6]1[H:11])([H:7])[H:8]"
N       -1.94376634       0.08727275       0.07934523
C       -0.55395123      -0.03520181      -0.07443668
C        0.27731530      -1.12214681      -0.29026939
C        1.58433086      -0.48160924      -0.10755761
N        1.48944157       0.88570114       0.15362863
N        0.21272899       1.08280503       0.11210419
H       -2.34016589      -0.79717927       0.36098920
H       -2.39628819       0.38654942      -0.77353320
H        1.30609644      -1.20809736       0.87329158
H        2.51166049      -0.82013624      -0.55353565
H       -0.14740200       2.02204239       0.21997370
11
Frame=7 idx=005389 GeodesicLength=0.46258903778529825 rxn_smarts="[N:1]([c:2]1[c:3]([H:9])[c:4]([H:10])[n:5][n:6]1[H:11])([H:7])[H:8]>>[N:1]([C:2]1=[C+:3][C:4]([H:9])([H:10])[N-:5][N:6]1[H:11])([H:7])[H:8]"
N       -1.94182818       0.08865460       0.07985403
C       -0.55258562      -0.03134450      -0.08105673
C        0.28290893      -1.11409465      -0.29084588
C        1.58721826      -0.47689130      -0.09995659
N        1.48879975       0.88750204       0.17119073
N        0.21316376       1.08841563       0.10661881
H       -2.33579673      -0.79165208       0.37715124
H       -2.39944427       0.37551765      -0.77443269
H        1.29240349      -1.24844147       0.86689045
H        2.51265659      -0.80636028      -0.55699142
H       -0.14749599       2.02869436       0.20157806
11
Frame=8 idx=005389 GeodesicLength=0.5270694909579885 rxn_smarts="[N:1]([c:2]1[c:3]([H:9])[c:4]([H:10])[n:5][n:6]1[H:11])([H:7])[H:8]>>[N:1]([C:2]1=[C+:3][C:4]([H:9])([H:10])[N-:5][N:6]1[H:11])([H:7])[H:8]"
N       -1.93986721       0.09004149       0.08007964
C       -0.55119745      -0.02769222      -0.08724297
C        0.28848098      -1.10628447      -0.29060268
C        1.59004559      -0.47233460      -0.09158157
N        1.48795197       0.88984477       0.18585041
N        0.21362815       1.09411879       0.09975115
H       -2.33154009      -0.78584378       0.39285283
H       -2.40220686       0.36443248      -0.77566675
H        1.27908529      -1.28799536       0.85971751
H        2.51330841      -0.79314950      -0.55943225
H       -0.14768878       2.03486242       0.18627468
11
Frame=9 idx=005389 GeodesicLength=0.5929760191289074 rxn_smarts="[N:1]([c:2]1[c:3]([H:9])[c:4]([H:10])[n:5][n:6]1[H:11])([H:7])[H:8]>>[N:1]([C:2]1=[C+:3][C:4]([H:9])([H:10])[N-:5][N:6]1[H:11])([H:7])[H:8]"
N       -1.93790013       0.09147767       0.08016192
C       -0.54973765      -0.02411929      -0.09287706
C        0.29414446      -1.09860529      -0.28919914
C        1.59290022      -0.46764681      -0.08294212
N        1.48686652       0.89262046       0.19883254
N        0.21414650       1.09999614       0.09210539
H       -2.32741727      -0.77967905       0.40821070
H       -2.40452556       0.35321609      -0.77709023
H        1.26568725      -1.32802573       0.85174335
H        2.51392767      -0.77994761      -0.56133544
H       -0.14809202       2.04071342       0.17239010
11
Frame=10 idx=005389 GeodesicLength=0.6589277544879399 rxn_smarts="[N:1]([c:2]1[c:3]([H:9])[c:4]([H:10])[n:5][n:6]1[H:11])([H:7])[H:8]>>[N:1]([C:2]1=[C+:3][C:4]([H:9])([H:10])[N-:5][N:6]1[H:11])([H:7])[H:8]"
N       -1.93591535       0.09291778       0.08015600
C       -0.54822823      -0.02066178      -0.09803784
C        0.29985326      -1.09105720      -0.28699789
C        1.59577148      -0.46288078      -0.07376837
N        1.48567445       0.89595272       0.21016967
N        0.21470263       1.10600209       0.08379767
H       -2.32337571      -0.77325749       0.42332455
H       -2.40650922       0.34187501      -0.77863516
H        1.25227604      -1.36838954       0.84269116
H        2.51442096      -0.76693162      -0.56245079
H       -0.14867031       2.04643081       0.15975101
11
Frame=11 idx=005389 GeodesicLength=0.7238342577454684 rxn_smarts="[N:1]([c:2]1[c:3]([H:9])[c:4]([H:10])[n:5][n:6]1[H:11])([H:7])[H:8]>>[N:1]([C:2]1=[C+:3][C:4]([H:9])([H:10])[N-:5][N:6]1[H:11])([H:7])[H:8]"
N       -1.93389808       0.09433562       0.08009223
C       -0.54665084      -0.01733835      -0.10273264
C        0.30563691      -1.08356991      -0.28411372
C        1.59865047      -0.45808000      -0.06395566
N        1.48442254       0.89981474       0.21979294
N        0.21527956       1.11200442       0.07488025
H       -2.31939337      -0.76658322       0.43815825
H       -2.40814058       0.33043377      -0.78020378
H        1.23878971      -1.40862461       0.83232793
H        2.51478557      -0.75431818      -0.56262971
H       -0.14948188       2.05192572       0.14838391
11
Frame=12 idx=005389 GeodesicLength=0.7893755189384283 rxn_smarts="[N:1]([c:2]1[c:3]([H:9])[c:4]([H:10])[n:5][n:6]1[H:11])([H:7])[H:8]>>[N:1]([C:2]1=[C+:3][C:4]([H:9])([H:10])[N-:5][N:6]1[H:11])([H:7])[H:8]"
N       -1.93185133       0.09577889       0.08004204
C       -0.54501835      -0.01406196      -0.10700438
C        0.31150254      -1.07609999      -0.28048311
C        1.60154190      -0.45307272      -0.05358171
N        1.48307118       0.90422858       0.22841166
N        0.21586367       1.11813718       0.06554687
H       -2.31542550      -0.75958324       0.45299143
H       -2.40950795       0.31875595      -0.78176307
H        1.22518662      -1.44975002       0.82036505
H        2.51513144      -0.74177098      -0.56185985
H       -0.15049423       2.05743832       0.13733508
11
Frame=13 idx=005389 GeodesicLength=0.8547743338025341 rxn_smarts="[N:1]([c:2]1[c:3]([H:9])[c:4]([H:10])[n:5][n:6]1[H:11])([H:7])[H:8]>>[N:1]([C:2]1=[C+:3][C:4]([H:9])([H:10])[N-:5][N:6]1[H:11])([H:7])[H:8]"
N       -1.92976701       0.09719016       0.08003538
C       -0.54330322      -0.01085171      -0.11077363
C        0.31746785      -1.06862189      -0.27617725
C        1.60444130      -0.44795367      -0.04250145
N        1.48171328       0.90921517       0.23538362
N        0.21646734       1.12436909       0.05571430
H       -2.31152174      -0.75241519       0.46755309
H       -2.41054994       0.30705229      -0.78320698
H        1.21142927      -1.49128050       0.80696861
H        2.51542232      -0.72947515      -0.56004314
H       -0.15179945       2.06277139       0.12704745
11
Frame=14 idx=005389 GeodesicLength=0.9200304041582225 rxn_smarts="[N:1]([c:2]1[c:3]([H:9])[c:4]([H:10])[n:5][n:6]1[H:11])([H:7])[H:8]>>[N:1]([C:2]1=[C+:3][C:4]([H:9])([H:10])[N-:5][N:6]1[H:11])([H:7])[H:8]"
N       -1.92765201       0.09858999       0.08011055
C       -0.54152329      -0.00770297      -0.11408883
C        0.32352877      -1.06111751      -0.27119507
C        1.60733635      -0.44263572      -0.03066556
N        1.48033956       0.91478445       0.24126256
N        0.21707104       1.13067028       0.04552539
H       -2.30764254      -0.74497256       0.48212565
H       -2.41133787       0.29513322      -0.78453801
H        1.19747993      -1.53341862       0.79155915
H        2.51572378      -0.71741841      -0.55703253
H       -0.15332371       2.06808785       0.11693670
11
Frame=15 idx=005389 GeodesicLength=0.985400114666237 rxn_smarts="[N:1]([c:2]1[c:3]([H:9])[c:4]([H:10])[n:5][n:6]1[H:11])([H:7])[H:8]>>[N:1]([C:2]1=[C+:3][C:4]([H:9])([H:10])[N-:5][N:6]1[H:11])([H:7])[H:8]"
N       -1.92549569       0.09998945       0.08036835
C       -0.53968434      -0.00456948      -0.11697887
C        0.32970384      -1.05351251      -0.26564028
C        1.61020583      -0.43708087      -0.01793701
N        1.47890771       0.92090542       0.24636160
N        0.21765410       1.13706806       0.03503914
H       -2.30372350      -0.73724780       0.49685000
H       -2.41193744       0.28298244      -0.78560138
H        1.18330395      -1.57651691       0.77373738
H        2.51609877      -0.70546366      -0.55259841
H       -0.15503324       2.07344586       0.10639946
11
Frame=16 idx=005389 GeodesicLength=1.050780566741588 rxn_smarts="[N:1]([c:2]1[c:3]([H:9])[c:4]([H:10])[n:5][n:6]1[H:11])([H:7])[H:8]>>[N:1]([C:2]1=[C+:3][C:4]([H:9])([H:10])[N-:5][N:6]1[H:11])([H:7])[H:8]"
N       -1.92327781       0.10139305       0.08091868
C       -0.53778614      -0.00143002      -0.11952533
C        0.33601368      -1.04574849      -0.25967935
C        1.61301158      -0.43127404      -0.00411762
N        1.47736400       0.92753526       0.25104262
N        0.21822282       1.14355247       0.02426269
H       -2.29966701      -0.72920042       0.51196261
H       -2.41243994       0.27051658      -0.78623324
H        1.16878517      -1.62070761       0.75290837
H        2.51664212      -0.69353599      -0.54640201
H       -0.15686847       2.07889920       0.09486257
