15
Frame=0 idx=003659 GeodesicLength=0.0 rxn_smarts="[C:1]([C:2](/[C:3](=[N:4]\[O:5][H:12])[C:6]([H:13])([H:14])[H:15])([H:10])[H:11])([H:7])([H:8])[H:9]>>[C:1]([C:2]([C+:3]([N:4]([O-:5])[H:12])[C:6]([H:13])([H:14])[H:15])([H:10])[H:11])([H:7])([H:8])[H:9]"
C        1.79757421       0.10244168       0.30108909
C        0.69558739      -0.19899101      -0.71752327
C       -0.66569200       0.00785830      -0.12974321
N       -1.15313039       1.18040976      -0.11043823
O       -0.49337997       2.29813087      -0.60873136
C       -1.44618084      -1.12016629       0.45716709
H        1.72746745       1.13978591       0.62854243
H        1.72111116      -0.54368431       1.17829272
H        2.78172260      -0.05026534      -0.14360074
H        0.80123284       0.47260631      -1.57179389
H        0.77351296      -1.22795493      -1.07549969
H       -1.62935925       2.19176765      -0.02267978
H       -2.38472901      -0.76770306       0.88157633
H       -1.66035836      -1.87074140      -0.30743173
H       -0.86537875      -1.61349414       1.24077420
15
Frame=1 idx=003659 GeodesicLength=0.035745286409712626 rxn_smarts="[C:1]([C:2](/[C:3](=[N:4]\[O:5][H:12])[C:6]([H:13])([H:14])[H:15])([H:10])[H:11])([H:7])([H:8])[H:9]>>[C:1]([C:2]([C+:3]([N:4]([O-:5])[H:12])[C:6]([H:13])([H:14])[H:15])([H:10])[H:11])([H:7])([H:8])[H:9]"
C        1.79663867       0.10582896       0.30037923
C        0.69668197      -0.20204568      -0.71850306
C       -0.66548761       0.00601773      -0.13346539
N       -1.16071205       1.17573349      -0.12873537
O       -0.49422023       2.29252052      -0.60708749
C       -1.44724570      -1.12025148       0.45497289
H        1.72408161       1.14416126       0.62407119
H        1.72053879      -0.53733616       1.17979970
H        2.78170992      -0.04701711      -0.14229348
H        0.80369134       0.46519924      -1.57603458
H        0.77621957      -1.23300087      -1.07040298
H       -1.61764044       2.20159793       0.00667745
H       -2.38628904      -0.76635408       0.87732446
H       -1.66014721      -1.87336809      -0.30753323
H       -0.86781958      -1.61168566       1.24083064
15
Frame=2 idx=003659 GeodesicLength=0.07147762761859552 rxn_smarts="[C:1]([C:2](/[C:3](=[N:4]\[O:5][H:12])[C:6]([H:13])([H:14])[H:15])([H:10])[H:11])([H:7])([H:8])[H:9]>>[C:1]([C:2]([C+:3]([N:4]([O-:5])[H:12])[C:6]([H:13])([H:14])[H:15])([H:10])[H:11])([H:7])([H:8])[H:9]"
C        1.79589080       0.10902255       0.29963600
C        0.69772452      -0.20483057      -0.71935854
C       -0.66520970       0.00450685      -0.13677914
N       -1.16779352       1.17140988      -0.14594603
O       -0.49506293       2.28721920      -0.60442375
C       -1.44829583      -1.12010840       0.45292034
H        1.72117733       1.14829007       0.61974677
H        1.72014203      -0.53131183       1.18116251
H        2.78177001      -0.04409269      -0.14121879
H        0.80603771       0.45829583      -1.57994404
H        0.77864324      -1.23765126      -1.06548353
H       -1.60693243       2.20943864       0.03317491
H       -2.38771701      -0.76474830       0.87343905
H       -1.66015982      -1.87546156      -0.30771294
H       -0.87021442      -1.60997841       1.24078718
15
Frame=3 idx=003659 GeodesicLength=0.10716251741273689 rxn_smarts="[C:1]([C:2](/[C:3](=[N:4]\[O:5][H:12])[C:6]([H:13])([H:14])[H:15])([H:10])[H:11])([H:7])([H:8])[H:9]>>[C:1]([C:2]([C+:3]([N:4]([O-:5])[H:12])[C:6]([H:13])([H:14])[H:15])([H:10])[H:11])([H:7])([H:8])[H:9]"
C        1.79554158       0.11173743       0.29885776
C        0.69874836      -0.20724401      -0.72002946
C       -0.66472094       0.00339708      -0.13937639
N       -1.17414805       1.16755075      -0.16149125
O       -0.49558345       2.28240564      -0.59985710
C       -1.44921981      -1.11971170       0.45118600
H        1.71908237       1.15179349       0.61590604
H        1.72021959      -0.52616885       1.18218761
H        2.78203887      -0.04170831      -0.14056998
H        0.80826188       0.45221137      -1.58330577
H        0.78066108      -1.24172543      -1.06097249
H       -1.59924156       2.21573352       0.05445070
H       -2.38879240      -0.76286686       0.87034441
H       -1.66048190      -1.87680553      -0.30793244
H       -0.87236561      -1.60859861       1.24060236
15
Frame=4 idx=003659 GeodesicLength=0.14284771259246581 rxn_smarts="[C:1]([C:2](/[C:3](=[N:4]\[O:5][H:12])[C:6]([H:13])([H:14])[H:15])([H:10])[H:11])([H:7])([H:8])[H:9]>>[C:1]([C:2]([C+:3]([N:4]([O-:5])[H:12])[C:6]([H:13])([H:14])[H:15])([H:10])[H:11])([H:7])([H:8])[H:9]"
C        1.79542808       0.11419098       0.29805668
C        0.69977751      -0.20945955      -0.72059737
C       -0.66411150       0.00252440      -0.14159982
N       -1.17998875       1.16396342      -0.17606359
O       -0.49604283       2.27782281      -0.59431345
C       -1.45008390      -1.11915326       0.44960258
H        1.71748321       1.15498250       0.61225024
H        1.72052950      -0.52144372       1.18306772
H        2.78243967      -0.03968723      -0.14013750
H        0.81044311       0.44655798      -1.58637113
H        0.78246635      -1.24549141      -1.05666413
H       -1.59325981       2.22107531       0.07300491
H       -2.38968441      -0.76078721       0.86764140
H       -1.66098614      -1.87771107      -0.30820390
H       -0.87441009      -1.60738394       1.24032734
15
Frame=5 idx=003659 GeodesicLength=0.17850503472677792 rxn_smarts="[C:1]([C:2](/[C:3](=[N:4]\[O:5][H:12])[C:6]([H:13])([H:14])[H:15])([H:10])[H:11])([H:7])([H:8])[H:9]>>[C:1]([C:2]([C+:3]([N:4]([O-:5])[H:12])[C:6]([H:13])([H:14])[H:15])([H:10])[H:11])([H:7])([H:8])[H:9]"
C        1.79549121       0.11645934       0.29723420
C        0.70081862      -0.21154151      -0.72109114
C       -0.66341239       0.00182263      -0.14356973
N       -1.18540260       1.16056889      -0.18992769
O       -0.49651427       2.27337155      -0.58809584
C       -1.45091068      -1.11846998       0.44811374
H        1.71625608       1.15795638       0.60869085
H        1.72099963      -0.51699133       1.18385285
H        2.78294246      -0.03794429      -0.13985630
H        0.81260550       0.44119421      -1.58922797
H        0.78412725      -1.24904551      -1.05248384
H       -1.58853176       2.22573266       0.08970954
H       -2.39045621      -0.75854449       0.86517894
H       -1.66161420      -1.87830279      -0.30851925
H       -0.87639863      -1.60626575       1.23999164
15
Frame=6 idx=003659 GeodesicLength=0.21415297735175362 rxn_smarts="[C:1]([C:2](/[C:3](=[N:4]\[O:5][H:12])[C:6]([H:13])([H:14])[H:15])([H:10])[H:11])([H:7])([H:8])[H:9]>>[C:1]([C:2]([C+:3]([N:4]([O-:5])[H:12])[C:6]([H:13])([H:14])[H:15])([H:10])[H:11])([H:7])([H:8])[H:9]"
C        1.79568922       0.11859915       0.29639364
C        0.70187621      -0.21353558      -0.72152997
C       -0.66264782       0.00124497      -0.14537263
N       -1.19045291       1.15731508      -0.20325946
O       -0.49705722       2.26898495      -0.58143109
C       -1.45171743      -1.11768868       0.44667886
H        1.71531194       1.16079060       0.60516317
H        1.72157568      -0.51270058       1.18458497
H        2.78352751      -0.03641849      -0.13967643
H        0.81476627       0.43602031      -1.59193712
H        0.78569172      -1.25245652      -1.04837888
H       -1.58471232       2.22987727       0.10517636
H       -2.39114831      -0.75616331       0.86286364
H       -1.66234088      -1.87866112      -0.30887980
H       -0.87836166      -1.60520804       1.23960474
15
Frame=7 idx=003659 GeodesicLength=0.24981327135850812 rxn_smarts="[C:1]([C:2](/[C:3](=[N:4]\[O:5][H:12])[C:6]([H:13])([H:14])[H:15])([H:10])[H:11])([H:7])([H:8])[H:9]>>[C:1]([C:2]([C+:3]([N:4]([O-:5])[H:12])[C:6]([H:13])([H:14])[H:15])([H:10])[H:11])([H:7])([H:8])[H:9]"
C        1.79598643       0.12066081       0.29553297
C        0.70294992      -0.21547505      -0.72192842
C       -0.66183909       0.00075583      -0.14707304
N       -1.19518606       1.15416561      -0.21617461
O       -0.49771397       2.26461414      -0.57448737
C       -1.45252040      -1.11683289       0.44526253
H        1.71459388       1.16355668       0.60158990
H        1.72220101      -0.50845690       1.18530606
H        2.78417482      -0.03508118      -0.13955627
H        0.81693012       0.43095821      -1.59454741
H        0.78719490      -1.25577516      -1.04430474
H       -1.58150280       2.23361497       0.11988833
H       -2.39180395      -0.75367139       0.86060230
H       -1.66313230      -1.87885601      -0.30928903
H       -0.88033251      -1.60417768       1.23917878
15
Frame=8 idx=003659 GeodesicLength=0.2854836707853095 rxn_smarts="[C:1]([C:2](/[C:3](=[N:4]\[O:5][H:12])[C:6]([H:13])([H:14])[H:15])([H:10])[H:11])([H:7])([H:8])[H:9]>>[C:1]([C:2]([C+:3]([N:4]([O-:5])[H:12])[C:6]([H:13])([H:14])[H:15])([H:10])[H:11])([H:7])([H:8])[H:9]"
C        1.79635631       0.12268737       0.29465386
C        0.70403871      -0.21738844      -0.72229888
C       -0.66100991       0.00032820      -0.14872664
N       -1.19964563       1.15109839      -0.22875299
O       -0.49853088       2.26022445      -0.56742370
C       -1.45333751      -1.11592019       0.44383413
H        1.71404253       1.16631122       0.59792943
H        1.72284487      -0.50417986       1.18604550
H        2.78487432      -0.03388492      -0.13946627
H        0.81909826       0.42593908      -1.59710330
H        0.78866845      -1.25904794      -1.04022167
H       -1.57862510       2.23700928       0.13423800
H       -2.39246499      -0.75108837       0.85832202
H       -1.66396933      -1.87894371      -0.30975534
H       -0.88234009      -1.60314455       1.23872586
15
Frame=9 idx=003659 GeodesicLength=0.3211929079656221 rxn_smarts="[C:1]([C:2](/[C:3](=[N:4]\[O:5][H:12])[C:6]([H:13])([H:14])[H:15])([H:10])[H:11])([H:7])([H:8])[H:9]>>[C:1]([C:2]([C+:3]([N:4]([O-:5])[H:12])[C:6]([H:13])([H:14])[H:15])([H:10])[H:11])([H:7])([H:8])[H:9]"
C        1.79677261       0.12469916       0.29375261
C        0.70514018      -0.21928380      -0.72264315
C       -0.66016236      -0.00005535      -0.15035761
N       -1.20384724       1.14809221      -0.24105207
O       -0.49949568       2.25579271      -0.56028645
C       -1.45416922      -1.11496200       0.44238250
H        1.71362712       1.16907557       0.59414739
H        1.72347130      -0.49983091       1.18680694
H        2.78560018      -0.03280936      -0.13939165
H        0.82127579       0.42094076      -1.59961313
H        0.79012021      -1.26228368      -1.03610418
H       -1.57596672       2.24010085       0.14838653
H       -2.39312895      -0.74843013       0.85600065
H       -1.66484081      -1.87894467      -0.31027251
H       -0.88439641      -1.60210137       1.23824415
15
Frame=10 idx=003659 GeodesicLength=0.356855516299913 rxn_smarts="[C:1]([C:2](/[C:3](=[N:4]\[O:5][H:12])[C:6]([H:13])([H:14])[H:15])([H:10])[H:11])([H:7])([H:8])[H:9]>>[C:1]([C:2]([C+:3]([N:4]([O-:5])[H:12])[C:6]([H:13])([H:14])[H:15])([H:10])[H:11])([H:7])([H:8])[H:9]"
C        1.79724310       0.12668042       0.29283339
C        0.70625451      -0.22115393      -0.72295722
C       -0.65929125      -0.00039331      -0.15194525
N       -1.20779126       1.14514394      -0.25306182
O       -0.50059771       2.25132756      -0.55304720
C       -1.45500941      -1.11395902       0.44092347
H        1.71334404       1.17182077       0.59028713
H        1.72410741      -0.49546275       1.18756904
H        2.78635826      -0.03184177      -0.13934461
H        0.82346217       0.41598068      -1.60206460
H        0.79154292      -1.26546827      -1.03197101
H       -1.57360084       2.24294037       0.16220996
H       -2.39378273      -0.74570020       0.85367146
H       -1.66575369      -1.87884776      -0.31083185
H       -0.88648554      -1.60106675       1.23772912
15
Frame=11 idx=003659 GeodesicLength=0.39254762912460045 rxn_smarts="[C:1]([C:2](/[C:3](=[N:4]\[O:5][H:12])[C:6]([H:13])([H:14])[H:15])([H:10])[H:11])([H:7])([H:8])[H:9]>>[C:1]([C:2]([C+:3]([N:4]([O-:5])[H:12])[C:6]([H:13])([H:14])[H:15])([H:10])[H:11])([H:7])([H:8])[H:9]"
C        1.79776863       0.12864550       0.29190062
C        0.70738511      -0.22301702      -0.72324705
C       -0.65840406      -0.00069804      -0.15350477
N       -1.21151124       1.14225060      -0.26482084
O       -0.50185606       2.24682451      -0.54575244
C       -1.45586541      -1.11292193       0.43944481
H        1.71318267       1.17457405       0.58633050
H        1.72475401      -0.49103752       1.18835670
H        2.78715919      -0.03097696      -0.13930904
H        0.82565455       0.41102294      -1.60448208
H        0.79295588      -1.26863228      -1.02781002
H       -1.57146199       2.24559004       0.17584394
H       -2.39443653      -0.74289915       0.85132782
H       -1.66671620      -1.87866972      -0.31145362
H       -0.88860854      -1.60005501       1.23717547
15
Frame=12 idx=003659 GeodesicLength=0.4282336515696755 rxn_smarts="[C:1]([C:2](/[C:3](=[N:4]\[O:5][H:12])[C:6]([H:13])([H:14])[H:15])([H:10])[H:11])([H:7])([H:8])[H:9]>>[C:1]([C:2]([C+:3]([N:4]([O-:5])[H:12])[C:6]([H:13])([H:14])[H:15])([H:10])[H:11])([H:7])([H:8])[H:9]"
C        1.79835479       0.13057491       0.29095717
C        0.70853197      -0.22486358      -0.72350493
C       -0.65748978      -0.00096524      -0.15501136
N       -1.21500648       1.13940702      -0.27633630
O       -0.50325434       2.24228605      -0.53838469
C       -1.45672593      -1.11184934       0.43796396
H        1.71312473       1.17729296       0.58234017
H        1.72544219      -0.48662717       1.18913605
H        2.78800171      -0.03018874      -0.13930682
H        0.82785597       0.40608940      -1.60684661
H        0.79434507      -1.27175705      -1.02363604
H       -1.56963041       2.24810809       0.18916656
H       -2.39506992      -0.74003359       0.84900353
H       -1.66772961      -1.87839583      -0.31212409
H       -0.89074995      -1.59907789       1.23658339
15
Frame=13 idx=003659 GeodesicLength=0.463917463540355 rxn_smarts="[C:1]([C:2](/[C:3](=[N:4]\[O:5][H:12])[C:6]([H:13])([H:14])[H:15])([H:10])[H:11])([H:7])([H:8])[H:9]>>[C:1]([C:2]([C+:3]([N:4]([O-:5])[H:12])[C:6]([H:13])([H:14])[H:15])([H:10])[H:11])([H:7])([H:8])[H:9]"
C        1.79898333       0.13249379       0.29000372
C        0.70969380      -0.22670556      -0.72373556
C       -0.65655987      -0.00120946      -0.15649394
N       -1.21829673       1.13660101      -0.28764469
O       -0.50480457       2.23769716      -0.53100914
C       -1.45759918      -1.11075112       0.43646501
H        1.71314313       1.18001037       0.57828552
H        1.72614353      -0.48217797       1.18992621
H        2.78887500      -0.02945975      -0.13931691
H        0.83006604       0.40114713      -1.60917770
H        0.79572586      -1.27486131      -1.01942608
H       -1.56796369       2.25050689       0.20234980
H       -2.39569000      -0.73711133       0.84668322
H       -1.66879959      -1.87804421      -0.31285173
H       -0.89291706      -1.59813564       1.23594227
15
Frame=14 idx=003659 GeodesicLength=0.4996037201114602 rxn_smarts="[C:1]([C:2](/[C:3](=[N:4]\[O:5][H:12])[C:6]([H:13])([H:14])[H:15])([H:10])[H:11])([H:7])([H:8])[H:9]>>[C:1]([C:2]([C+:3]([N:4]([O-:5])[H:12])[C:6]([H:13])([H:14])[H:15])([H:10])[H:11])([H:7])([H:8])[H:9]"
C        1.79963843       0.13442561       0.28903859
C        0.71086856      -0.22855264      -0.72394387
C       -0.65562423      -0.00144339      -0.15797648
N       -1.22140031       1.13382227      -0.29877349
O       -0.50651681       2.23304723      -0.52367514
C       -1.45849288      -1.10963651       0.43493354
H        1.71322267       1.18276031       0.57412442
H        1.72682777      -0.47763300       1.19074658
H        2.78976895      -0.02878632      -0.13932000
H        0.83228311       0.39616940      -1.61149219
H        0.79711143      -1.27796085      -1.01515885
H       -1.56633133       2.25278628       0.21555141
H       -2.39631143      -0.73414277       0.84433737
H       -1.66992088      -1.87763501      -0.31364371
H       -0.89512305      -1.59722062       1.23525181
15
Frame=15 idx=003659 GeodesicLength=0.5352962418486084 rxn_smarts="[C:1]([C:2](/[C:3](=[N:4]\[O:5][H:12])[C:6]([H:13])([H:14])[H:15])([H:10])[H:11])([H:7])([H:8])[H:9]>>[C:1]([C:2]([C+:3]([N:4]([O-:5])[H:12])[C:6]([H:13])([H:14])[H:15])([H:10])[H:11])([H:7])([H:8])[H:9]"
C        1.80031227       0.13638870       0.28805913
C        0.71205381      -0.23041304      -0.72412831
C       -0.65468842      -0.00167537      -0.15946600
N       -1.22433114       1.13106376      -0.30973533
O       -0.50839473       2.22832959      -0.51641318
C       -1.45941550      -1.10851400       0.43335841
H        1.71335827       1.18556977       0.56981956
H        1.72748260      -0.47294477       1.19161269
H        2.79067771      -0.02816401      -0.13930816
H        0.83450232       0.39113359      -1.61379855
H        0.79850950      -1.28106816      -1.01081263
H       -1.56464103       2.25495071       0.22887539
H       -2.39695116      -0.73113953       0.84193786
H       -1.67109067      -1.87718122      -0.31450998
H       -0.89738385      -1.59633600       1.23450910
15
Frame=16 idx=003659 GeodesicLength=0.5709982709171821 rxn_smarts="[C:1]([C:2](/[C:3](=[N:4]\[O:5][H:12])[C:6]([H:13])([H:14])[H:15])([H:10])[H:11])([H:7])([H:8])[H:9]>>[C:1]([C:2]([C+:3]([N:4]([O-:5])[H:12])[C:6]([H:13])([H:14])[H:15])([H:10])[H:11])([H:7])([H:8])[H:9]"
C        1.80099276       0.13839829       0.28706198
C        0.71324673      -0.23229373      -0.72429283
C       -0.65376086      -0.00191470      -0.16098079
N       -1.22710243       1.12831987      -0.32054837
O       -0.51043639       2.22353927      -0.50924220
C       -1.46037351      -1.10738927       0.43173059
H        1.71353795       1.18845872       0.56534369
H        1.72808991      -0.46807954       1.19253148
H        2.79159362      -0.02758253      -0.13927133
H        0.83672250       0.38602227      -1.61610698
H        0.79992657      -1.28419281      -1.00637529
H       -1.56280168       2.25699378       0.24242139
H       -2.39762643      -0.72810933       0.83945231
H       -1.67229541      -1.87670568      -0.31544738
H       -0.89971333      -1.59546461       1.23372373
