13
Frame=0 idx=009061 GeodesicLength=0.0 rxn_smarts="[O:1]=[C:2]1[C:3]([H:8])([H:9])[C:4]([H:10])([H:11])[C:5](=[O:6])[C:7]1([H:12])[H:13]>>[O:1]=[C:2]1[C:3]([H:8])([H:9])[C@@:4]2([H:11])[C@:5]([H:10])([O:6]2)[C:7]1([H:12])[H:13]"
O        0.52492165      -2.42091912      -0.21258994
C        0.28546162      -1.24850560      -0.21512996
C       -1.12080566      -0.64895467      -0.36578916
C       -0.99469453       0.67332528       0.23826743
C        0.37733208       1.08345588       0.49168481
O        0.62377100       2.29451681       0.08208044
C        1.24936874      -0.09650750      -0.06419112
H       -1.94090135      -1.27177024      -0.00549687
H       -1.29929099      -0.50585706      -1.44664891
H        0.38811355       0.89691797       1.63075194
H       -1.80042755       1.38780202       0.37121312
H        2.10785130      -0.34791221       0.55150874
H        1.59930012       0.20440849      -1.05566052
13
Frame=1 idx=009061 GeodesicLength=0.08717302003353983 rxn_smarts="[O:1]=[C:2]1[C:3]([H:8])([H:9])[C:4]([H:10])([H:11])[C:5](=[O:6])[C:7]1([H:12])[H:13]>>[O:1]=[C:2]1[C:3]([H:8])([H:9])[C@@:4]2([H:11])[C@:5]([H:10])([O:6]2)[C:7]1([H:12])[H:13]"
O        0.52670181      -2.41810777      -0.25534028
C        0.28773680      -1.24574509      -0.22848508
C       -1.11773552      -0.64190398      -0.36067591
C       -0.98521063       0.68091688       0.24877832
C        0.39345600       1.08119502       0.48424570
O        0.59363438       2.28574074       0.03745974
C        1.25885762      -0.10133160      -0.06014715
H       -1.92952171      -1.26670873       0.01480881
H       -1.31326697      -0.50083723      -1.43799641
H        0.34445929       0.90567664       1.63709361
H       -1.79509716       1.38878898       0.39018522
H        2.10181860      -0.36039022       0.57424859
H        1.63416749       0.19270636      -1.04417516
13
Frame=2 idx=009061 GeodesicLength=0.17439077485650978 rxn_smarts="[O:1]=[C:2]1[C:3]([H:8])([H:9])[C:4]([H:10])([H:11])[C:5](=[O:6])[C:7]1([H:12])[H:13]>>[O:1]=[C:2]1[C:3]([H:8])([H:9])[C@@:4]2([H:11])[C@:5]([H:10])([O:6]2)[C:7]1([H:12])[H:13]"
O        0.52855753      -2.41407521      -0.29816876
C        0.29004282      -1.24250116      -0.24221245
C       -1.11472381      -0.63503677      -0.35533044
C       -0.97589347       0.68862805       0.25884211
C        0.40907544       1.07911262       0.47807469
O        0.56440582       2.27448162      -0.00585491
C        1.26799592      -0.10576998      -0.05603448
H       -1.91747956      -1.26208028       0.03568134
H       -1.32774495      -0.49637880      -1.42879931
H        0.30188746       0.91460589       1.64227381
H       -1.78979360       1.39025221       0.40716551
H        2.09519535      -0.37291520       0.59621403
H        1.66847505       0.18167700      -1.03185113
13
Frame=3 idx=009061 GeodesicLength=0.2616862253764988 rxn_smarts="[O:1]=[C:2]1[C:3]([H:8])([H:9])[C:4]([H:10])([H:11])[C:5](=[O:6])[C:7]1([H:12])[H:13]>>[O:1]=[C:2]1[C:3]([H:8])([H:9])[C@@:4]2([H:11])[C@:5]([H:10])([O:6]2)[C:7]1([H:12])[H:13]"
O        0.53048701      -2.40884413      -0.34103006
C        0.29236362      -1.23876900      -0.25633833
C       -1.11179177      -0.62839561      -0.34975243
C       -0.96680210       0.69643908       0.26843343
C        0.42415851       1.07722336       0.47293456
O        0.53624827       2.26098943      -0.04755737
C        1.27677857      -0.10983978      -0.05190453
H       -1.90474307      -1.25792131       0.05714255
H       -1.34277375      -0.49257526      -1.41902907
H        0.26047124       0.92366672       1.64639736
H       -1.78456444       1.39223237       0.42205701
H        2.08796367      -0.38547020       0.61741033
H        1.70220425       0.17126432      -1.01876345
13
Frame=4 idx=009061 GeodesicLength=0.3490762554216979 rxn_smarts="[O:1]=[C:2]1[C:3]([H:8])([H:9])[C:4]([H:10])([H:11])[C:5](=[O:6])[C:7]1([H:12])[H:13]>>[O:1]=[C:2]1[C:3]([H:8])([H:9])[C@@:4]2([H:11])[C@:5]([H:10])([O:6]2)[C:7]1([H:12])[H:13]"
O        0.53248498      -2.40243587      -0.38394230
C        0.29468363      -1.23454813      -0.27088273
C       -1.10895234      -0.62201285      -0.34394024
C       -0.95797796       0.70433868       0.27752702
C        0.43869871       1.07553117       0.46859613
O        0.50928971       2.24553929      -0.08744994
C        1.28520994      -0.11357404      -0.04779014
H       -1.89125995      -1.25424956       0.07921176
H       -1.35839466      -0.48951141      -1.40865352
H        0.22022445       0.93284889       1.64956452
H       -1.77946101       1.39474371       0.43484727
H        2.08008914      -0.39805773       0.63787759
H        1.73536537       0.16138786      -1.00496539
13
Frame=5 idx=009061 GeodesicLength=0.4365044342891007 rxn_smarts="[O:1]=[C:2]1[C:3]([H:8])([H:9])[C:4]([H:10])([H:11])[C:5](=[O:6])[C:7]1([H:12])[H:13]>>[O:1]=[C:2]1[C:3]([H:8])([H:9])[C@@:4]2([H:11])[C@:5]([H:10])([O:6]2)[C:7]1([H:12])[H:13]"
O        0.53452125      -2.39488745      -0.42685343
C        0.29699004      -1.22983915      -0.28586833
C       -1.10620601      -0.61590791      -0.33790538
C       -0.94944527       0.71231803       0.28611220
C        0.45269687       1.07401687       0.46489125
O        0.48360058       2.22842395      -0.12542306
C        1.29330701      -0.11700832      -0.04372303
H       -1.87699926      -1.25107317       0.10185630
H       -1.37461227      -0.48723812      -1.39765249
H        0.18112748       0.94212628       1.65187679
H       -1.77451168       1.39777962       0.44557362
H        2.07157984      -0.41068458       0.65762366
H        1.76795142       0.15197395      -0.99050809
13
Frame=6 idx=009061 GeodesicLength=0.5239893420256028 rxn_smarts="[O:1]=[C:2]1[C:3]([H:8])([H:9])[C:4]([H:10])([H:11])[C:5](=[O:6])[C:7]1([H:12])[H:13]>>[O:1]=[C:2]1[C:3]([H:8])([H:9])[C@@:4]2([H:11])[C@:5]([H:10])([O:6]2)[C:7]1([H:12])[H:13]"
O        0.53657441      -2.38622248      -0.46978424
C        0.29926848      -1.22464107      -0.30130814
C       -1.10354772      -0.61009202      -0.33165374
C       -0.94120802       0.72038209       0.29415994
C        0.46617829       1.07267112       0.46164518
O        0.45921137       2.20989554      -0.16141408
C        1.30108551      -0.12018471      -0.03972604
H       -1.86188687      -1.24836986       0.12507372
H       -1.39143233      -0.48581355      -1.38599202
H        0.14311272       0.95148409       1.65342039
H       -1.76974556       1.40133015       0.45431426
H        2.06240439      -0.42336950       0.67668734
H        1.79998533       0.14293019      -0.97542258
13
Frame=7 idx=009061 GeodesicLength=0.6114745371971964 rxn_smarts="[O:1]=[C:2]1[C:3]([H:8])([H:9])[C:4]([H:10])([H:11])[C:5](=[O:6])[C:7]1([H:12])[H:13]>>[O:1]=[C:2]1[C:3]([H:8])([H:9])[C@@:4]2([H:11])[C@:5]([H:10])([O:6]2)[C:7]1([H:12])[H:13]"
O        0.53861541      -2.37647425      -0.51270000
C        0.30150684      -1.21895694      -0.31719222
C       -1.10096556      -0.60457080      -0.32519607
C       -0.93326476       0.72853440       0.30166627
C        0.47916872       1.07147195       0.45874472
O        0.43613691       2.19019635      -0.19540421
C        1.30856287      -0.12313978      -0.03581778
H       -1.84589298      -1.24612500       0.14880242
H       -1.40882297      -0.48526826      -1.37364748
H        0.10610523       0.96090411       1.65427709
H       -1.76516983       1.40537210       0.46115239
H        2.05257684      -0.43612044       0.69507178
H        1.83144328       0.13417656      -0.95975690
13
Frame=8 idx=009061 GeodesicLength=0.6989189053056387 rxn_smarts="[O:1]=[C:2]1[C:3]([H:8])([H:9])[C:4]([H:10])([H:11])[C:5](=[O:6])[C:7]1([H:12])[H:13]>>[O:1]=[C:2]1[C:3]([H:8])([H:9])[C@@:4]2([H:11])[C@:5]([H:10])([O:6]2)[C:7]1([H:12])[H:13]"
O        0.54061074      -2.36566980      -0.55560201
C        0.30368811      -1.21278926      -0.33350405
C       -1.09844273      -0.59934354      -0.31853870
C       -0.92560699       0.73677398       0.30863509
C        0.49170134       1.07039613       0.45608528
O        0.41436673       2.16957685      -0.22741379
C        1.31575336      -0.12591653      -0.03201321
H       -1.82896381      -1.24430661       0.17298795
H       -1.42674123      -0.48562970      -1.36058645
H        0.07000548       0.97039526       1.65451890
H       -1.76078448       1.40985601       0.46618940
H        2.04208764      -0.44895943       0.71278309
H        1.86232585       0.12561664      -0.94354153
13
Frame=9 idx=009061 GeodesicLength=0.7866323038752698 rxn_smarts="[O:1]=[C:2]1[C:3]([H:8])([H:9])[C:4]([H:10])([H:11])[C:5](=[O:6])[C:7]1([H:12])[H:13]>>[O:1]=[C:2]1[C:3]([H:8])([H:9])[C@@:4]2([H:11])[C@:5]([H:10])([O:6]2)[C:7]1([H:12])[H:13]"
O        0.54251230      -2.35382883      -0.59840850
C        0.30580714      -1.20614033      -0.35020661
C       -1.09594916      -0.59437203      -0.31165296
C       -0.91816114       0.74514957       0.31506537
C        0.50384378       1.06939959       0.45371917
O        0.39363753       2.14805166      -0.25757315
C        1.32269821      -0.12852614      -0.02832776
H       -1.81115580      -1.24282746       0.19757172
H       -1.44512159      -0.48685301      -1.34673944
H        0.03464481       0.97972143       1.65430589
H       -1.75644713       1.41483151       0.46932310
H        2.03109822      -0.46186928       0.72975653
H        1.89259283       0.11726330      -0.92683336
13
Frame=10 idx=009061 GeodesicLength=0.8742962551740925 rxn_smarts="[O:1]=[C:2]1[C:3]([H:8])([H:9])[C:4]([H:10])([H:11])[C:5](=[O:6])[C:7]1([H:12])[H:13]>>[O:1]=[C:2]1[C:3]([H:8])([H:9])[C@@:4]2([H:11])[C@:5]([H:10])([O:6]2)[C:7]1([H:12])[H:13]"
O        0.54430516      -2.34101419      -0.64109764
C        0.30783991      -1.19903668      -0.36722826
C       -1.09347120      -0.58967489      -0.30460520
C       -0.91095838       0.75361368       0.32097070
C        0.51560976       1.06847644       0.45145614
O        0.37416182       2.12602657      -0.28581968
C        1.32938757      -0.13102842      -0.02478618
H       -1.79236890      -1.24168094       0.22244245
H       -1.46385549      -0.48898505      -1.33216265
H       -0.00005401       0.98909946       1.65361912
H       -1.75231423       1.42014912       0.47090377
H        2.01950285      -0.47486534       0.74601865
H        1.92221514       0.10892025      -0.90971122
13
Frame=11 idx=009061 GeodesicLength=0.9619301761593816 rxn_smarts="[O:1]=[C:2]1[C:3]([H:8])([H:9])[C:4]([H:10])([H:11])[C:5](=[O:6])[C:7]1([H:12])[H:13]>>[O:1]=[C:2]1[C:3]([H:8])([H:9])[C@@:4]2([H:11])[C@:5]([H:10])([O:6]2)[C:7]1([H:12])[H:13]"
O        0.54595585      -2.32727166      -0.68359555
C        0.30977392      -1.19150063      -0.38448391
C       -1.09098277      -0.58523241      -0.29741335
C       -0.90397193       0.76216795       0.32638555
C        0.52704368       1.06759787       0.44927738
O        0.35588041       2.10366345      -0.31222871
C        1.33583803      -0.13345084      -0.02140517
H       -1.77261368      -1.24081980       0.24748891
H       -1.48282654      -0.49199893      -1.31686158
H       -0.03422338       0.99849763       1.65253223
H       -1.74836597       1.42576415       0.47103477
H        2.00735846      -0.48793052       0.76153503
H        1.95113391       0.10051374      -0.89226558
13
Frame=12 idx=009061 GeodesicLength=1.0495264357529481 rxn_smarts="[O:1]=[C:2]1[C:3]([H:8])([H:9])[C:4]([H:10])([H:11])[C:5](=[O:6])[C:7]1([H:12])[H:13]>>[O:1]=[C:2]1[C:3]([H:8])([H:9])[C@@:4]2([H:11])[C@:5]([H:10])([O:6]2)[C:7]1([H:12])[H:13]"
O        0.54744259      -2.31268161      -0.72573833
C        0.31159969      -1.18358253      -0.40184246
C       -1.08846661      -0.58102373      -0.29011058
C       -0.89717767       0.77081364       0.33133760
C        0.53817997       1.06673808       0.44717919
O        0.33872935       2.08109811      -0.33680761
C        1.34206831      -0.13580672      -0.01821453
H       -1.75198034      -1.24018283       0.27256380
H       -1.50187681      -0.49584594      -1.30089215
H       -0.06796461       1.00785159       1.65111977
H       -1.74458525       1.43164090       0.46981079
H        1.99478804      -0.50100548       0.77623466
H        1.97924332       0.09198652      -0.87464015
13
Frame=13 idx=009061 GeodesicLength=1.1370828498356034 rxn_smarts="[O:1]=[C:2]1[C:3]([H:8])([H:9])[C:4]([H:10])([H:11])[C:5](=[O:6])[C:7]1([H:12])[H:13]>>[O:1]=[C:2]1[C:3]([H:8])([H:9])[C@@:4]2([H:11])[C@:5]([H:10])([O:6]2)[C:7]1([H:12])[H:13]"
O        0.54872204      -2.29725580      -0.76756444
C        0.31329997      -1.17529533      -0.41923826
C       -1.08589320      -0.57702836      -0.28269903
C       -0.89055172       0.77953506       0.33588352
C        0.54906030       1.06587351       0.44514459
O        0.32263473       2.05847957      -0.35972320
C        1.34808431      -0.13813126      -0.01521091
H       -1.73041847      -1.23971182       0.29758231
H       -1.52091149      -0.50049995      -1.28423478
H       -0.10140515       1.01720773       1.64942234
H       -1.74097153       1.43769311       0.46736853
H        1.98178460      -0.51410936       0.79013011
H        2.00656561       0.08324291      -0.85686076
13
Frame=14 idx=009061 GeodesicLength=1.2246244679990892 rxn_smarts="[O:1]=[C:2]1[C:3]([H:8])([H:9])[C:4]([H:10])([H:11])[C:5](=[O:6])[C:7]1([H:12])[H:13]>>[O:1]=[C:2]1[C:3]([H:8])([H:9])[C@@:4]2([H:11])[C@:5]([H:10])([O:6]2)[C:7]1([H:12])[H:13]"
O        0.54978261      -2.28111016      -0.80884164
C        0.31487218      -1.16671828      -0.43651180
C       -1.08325630      -0.57321969      -0.27522076
C       -0.88406988       0.78832955       0.34006716
C        0.55971575       1.06498694       0.44317904
O        0.30752718       2.03589873      -0.38093964
C        1.35391314      -0.14042141      -0.01243188
H       -1.70810585      -1.23934504       0.32237555
H       -1.53974783      -0.50587466      -1.26699251
H       -0.13464066       1.02647449       1.64749973
H       -1.73749855       1.44388972       0.46379554
H        1.96853575      -0.52714219       0.80313775
H        2.03297246       0.07425200      -0.83911654
13
Frame=15 idx=009061 GeodesicLength=1.3121621847178062 rxn_smarts="[O:1]=[C:2]1[C:3]([H:8])([H:9])[C:4]([H:10])([H:11])[C:5](=[O:6])[C:7]1([H:12])[H:13]>>[O:1]=[C:2]1[C:3]([H:8])([H:9])[C@@:4]2([H:11])[C@:5]([H:10])([O:6]2)[C:7]1([H:12])[H:13]"
O        0.55059833      -2.26429206      -0.84951573
C        0.31630961      -1.15789822      -0.45356109
C       -1.08053990      -0.56957428      -0.26769091
C       -0.87770775       0.79718507       0.34394353
C        0.57017977       1.06406154       0.44128029
O        0.29332761       2.01344972      -0.40054806
C        1.35956993      -0.14269216      -0.00988584
H       -1.68510527      -1.23902364       0.34683497
H       -1.55826455      -0.51191458      -1.24919998
H       -0.16777235       1.03564825       1.64538694
H       -1.73415649       1.45016755       0.45920193
H        1.95511775      -0.54007237       0.81524650
H        2.05844332       0.06495518      -0.82149255
13
Frame=16 idx=009061 GeodesicLength=1.3997082333364916 rxn_smarts="[O:1]=[C:2]1[C:3]([H:8])([H:9])[C:4]([H:10])([H:11])[C:5](=[O:6])[C:7]1([H:12])[H:13]>>[O:1]=[C:2]1[C:3]([H:8])([H:9])[C@@:4]2([H:11])[C@:5]([H:10])([O:6]2)[C:7]1([H:12])[H:13]"
O        0.55114554      -2.24686876      -0.88948694
C        0.31760727      -1.14889288      -0.47027730
C       -1.07773296      -0.56606555      -0.26013158
C       -0.87144342       0.80608744       0.34757785
C        0.58048243       1.06308100       0.43945298
O        0.27995774       1.99120959      -0.41862240
C        1.36507263      -0.14495031      -0.00758803
H       -1.66151264      -1.23868873       0.37084124
H       -1.57633242      -0.51854368      -1.23091812
H       -0.20089454       1.04470783       1.64311750
H       -1.73093261       1.45646400       0.45369346
H        1.94163424      -0.55285120       0.82643727
H        2.08294875       0.05531124      -0.80409592
