15
Frame=0 idx=008707 GeodesicLength=0.0 rxn_smarts="[C:1]([C:2]([C:3]([H:11])([H:12])[H:13])([C:4]#[C:5][H:14])[C:6]#[C:7][H:15])([H:8])([H:9])[H:10]>>[C:1]([C:2](=[C:4]=[C:5]([C:3]([H:11])([H:12])[H:13])[H:14])[C:6]#[C:7][H:15])([H:8])([H:9])[H:10]"
C       -0.90657381      -0.71069279      -1.44904409
C        0.16588130      -0.04447546      -0.62408504
C       -0.64719704       0.04112111       1.89973330
C        1.02566421      -0.78697330       0.14391878
C        1.44613561      -1.29496144       1.18089635
C        0.52207925       1.29366090      -0.96137980
C        0.79935455       2.42156308      -1.26702879
H       -0.53997934      -0.91144265      -2.45972860
H       -1.77698223      -0.06108384      -1.53400059
H       -1.20745004      -1.65728117      -1.00116849
H       -0.85980090      -0.88267407       1.40858860
H        0.19798256       0.66062066       1.69371739
H       -1.34262168       0.37330763       2.66768297
H        2.07184151      -1.86151879       1.83372679
H        1.05166598       3.42083014      -1.53182883
15
Frame=1 idx=008707 GeodesicLength=0.059227427038502395 rxn_smarts="[C:1]([C:2]([C:3]([H:11])([H:12])[H:13])([C:4]#[C:5][H:14])[C:6]#[C:7][H:15])([H:8])([H:9])[H:10]>>[C:1]([C:2](=[C:4]=[C:5]([C:3]([H:11])([H:12])[H:13])[H:14])[C:6]#[C:7][H:15])([H:8])([H:9])[H:10]"
C       -0.90589880      -0.70419300      -1.45150911
C        0.15313467      -0.03898472      -0.60667550
C       -0.63248882       0.02936727       1.89775658
C        1.02114071      -0.79289661       0.14350435
C        1.42699091      -1.30356837       1.18666892
C        0.52568810       1.29387850      -0.95417790
C        0.81839689       2.41306626      -1.27633092
H       -0.52754733      -0.89641710      -2.45928353
H       -1.77775666      -0.05676589      -1.53937044
H       -1.20747791      -1.65601483      -1.01530160
H       -0.88794824      -0.88850599       1.41320021
H        0.20888716       0.66720606       1.72833241
H       -1.33294879       0.36064922       2.66239634
H        2.08479288      -1.84348519       1.83110603
H        1.03303524       3.41666440      -1.56031584
15
Frame=2 idx=008707 GeodesicLength=0.11827139321866875 rxn_smarts="[C:1]([C:2]([C:3]([H:11])([H:12])[H:13])([C:4]#[C:5][H:14])[C:6]#[C:7][H:15])([H:8])([H:9])[H:10]>>[C:1]([C:2](=[C:4]=[C:5]([C:3]([H:11])([H:12])[H:13])[H:14])[C:6]#[C:7][H:15])([H:8])([H:9])[H:10]"
C       -0.90633695      -0.69841369      -1.45298320
C        0.13798786      -0.03143549      -0.58943668
C       -0.62007927       0.01432124       1.89580250
C        1.01736590      -0.79364133       0.14181542
C        1.41159055      -1.30626229       1.19021502
C        0.52029425       1.29843706      -0.94488936
C        0.82127327       2.41160440      -1.27942056
H       -0.51716013      -0.87941817      -2.45847873
H       -1.78231869      -0.05653873      -1.54163670
H       -1.20417551      -1.65701617      -1.02918915
H       -0.91418182      -0.89717639       1.41818369
H        0.21418455       0.67257713       1.76451601
H       -1.32601749       0.34129008       2.65821322
H        2.09971248      -1.81971831       1.82524618
H        1.04786099       3.40139068      -1.59795766
15
Frame=3 idx=008707 GeodesicLength=0.17714132642592 rxn_smarts="[C:1]([C:2]([C:3]([H:11])([H:12])[H:13])([C:4]#[C:5][H:14])[C:6]#[C:7][H:15])([H:8])([H:9])[H:10]>>[C:1]([C:2](=[C:4]=[C:5]([C:3]([H:11])([H:12])[H:13])[H:14])[C:6]#[C:7][H:15])([H:8])([H:9])[H:10]"
C       -0.90553470      -0.69296004      -1.45454598
C        0.12648194      -0.02642111      -0.57399145
C       -0.60604926       0.00305009       1.89142902
C        1.01446709      -0.79791067       0.14004803
C        1.39553351      -1.31175381       1.19448779
C        0.52146588       1.29929402      -0.93824193
C        0.83329371       2.40519171      -1.28615130
H       -0.50667617      -0.86510123      -2.45757114
H       -1.78383985      -0.05428222      -1.54438923
H       -1.20212658      -1.65678452      -1.04182159
H       -0.94029538      -0.90104099       1.42301932
H        0.22227785       0.67765488       1.79888742
H       -1.31638687       0.32883833       2.65130272
H        2.10876932      -1.80146933       1.82126341
H        1.03861952       3.39369491      -1.62372507
15
Frame=4 idx=008707 GeodesicLength=0.23593766780282066 rxn_smarts="[C:1]([C:2]([C:3]([H:11])([H:12])[H:13])([C:4]#[C:5][H:14])[C:6]#[C:7][H:15])([H:8])([H:9])[H:10]>>[C:1]([C:2](=[C:4]=[C:5]([C:3]([H:11])([H:12])[H:13])[H:14])[C:6]#[C:7][H:15])([H:8])([H:9])[H:10]"
C       -0.90549839      -0.68801674      -1.45543934
C        0.11366685      -0.02032117      -0.55888425
C       -0.59351189      -0.01003647       1.88690514
C        1.01219440      -0.79890599       0.13734215
C        1.38213741      -1.31335730       1.19725529
C        0.51691224       1.30286967      -0.93039656
C        0.83533352       2.40317368      -1.28933748
H       -0.49780842      -0.84960592      -2.45643700
H       -1.78778980      -0.05466813      -1.54502316
H       -1.19798202      -1.65792284      -1.05414305
H       -0.96493038      -0.90632011       1.42814790
H        0.22634610       0.68152598       1.83429025
H       -1.30826258       0.31217258       2.64527000
H        2.11884606      -1.77990229       1.81528005
H        1.05034691       3.37931505      -1.65482992
15
Frame=5 idx=008707 GeodesicLength=0.29466132167861253 rxn_smarts="[C:1]([C:2]([C:3]([H:11])([H:12])[H:13])([C:4]#[C:5][H:14])[C:6]#[C:7][H:15])([H:8])([H:9])[H:10]>>[C:1]([C:2](=[C:4]=[C:5]([C:3]([H:11])([H:12])[H:13])[H:14])[C:6]#[C:7][H:15])([H:8])([H:9])[H:10]"
C       -0.90494078      -0.68342710      -1.45626763
C        0.10263055      -0.01536609      -0.54494075
C       -0.58057329      -0.02136793       1.88106233
C        1.01057398      -0.80104530       0.13436790
C        1.36903935      -1.31545249       1.20008177
C        0.51463181       1.30506333      -0.92380240
C        0.84025076       2.39929881      -1.29415010
H       -0.48924792      -0.83542832      -2.45524517
H       -1.79061196      -0.05460737      -1.54549680
H       -1.19404353      -1.65871898      -1.06566948
H       -0.98909037      -0.90890613       1.43328166
H        0.23064700       0.68470845       1.86900544
H       -1.29903865       0.29822051       2.63820644
H        2.12606646      -1.76081907       1.80994952
H        1.05370659       3.36784769      -1.68038272
15
Frame=6 idx=008707 GeodesicLength=0.3533493856818648 rxn_smarts="[C:1]([C:2]([C:3]([H:11])([H:12])[H:13])([C:4]#[C:5][H:14])[C:6]#[C:7][H:15])([H:8])([H:9])[H:10]>>[C:1]([C:2](=[C:4]=[C:5]([C:3]([H:11])([H:12])[H:13])[H:14])[C:6]#[C:7][H:15])([H:8])([H:9])[H:10]"
C       -0.90382938      -0.67860897      -1.45696749
C        0.09289113      -0.01079048      -0.53158162
C       -0.56771348      -0.03207231       1.87456878
C        1.00961090      -0.80344504       0.13127127
C        1.35648197      -1.31758740       1.20280446
C        0.51342766       1.30704554      -0.91719457
C        0.84536458       2.39574986      -1.29764929
H       -0.48069209      -0.82133234      -2.45395650
H       -1.79262586      -0.05397293      -1.54558655
H       -1.18981105      -1.65896137      -1.07683361
H       -1.01271271      -0.90979628       1.43841521
H        0.23427788       0.68656727       1.90401566
H       -1.28942644       0.28492172       2.63100405
H        2.13131557      -1.74371684       1.80486252
H        1.05344131       3.35599957      -1.70717231
15
Frame=7 idx=008707 GeodesicLength=0.41199275123444584 rxn_smarts="[C:1]([C:2]([C:3]([H:11])([H:12])[H:13])([C:4]#[C:5][H:14])[C:6]#[C:7][H:15])([H:8])([H:9])[H:10]>>[C:1]([C:2](=[C:4]=[C:5]([C:3]([H:11])([H:12])[H:13])[H:14])[C:6]#[C:7][H:15])([H:8])([H:9])[H:10]"
C       -0.90284017      -0.67432237      -1.45751809
C        0.08361609      -0.00661745      -0.51909101
C       -0.55510923      -0.04214529       1.86740177
C        1.00905233      -0.80558505       0.12767546
C        1.34479601      -1.31882397       1.20506091
C        0.51175572       1.30890672      -0.91129798
C        0.84962370       2.39194444      -1.30212015
H       -0.47294992      -0.80793659      -2.45265039
H       -1.79488181      -0.05403066      -1.54514032
H       -1.18532348      -1.65953391      -1.08741528
H       -1.03558720      -0.90928943       1.44366775
H        0.23663222       0.68753862       1.93881680
H       -1.27961206       0.27193137       2.62372792
H        2.13589033      -1.72650865       1.79959036
H        1.05493746       3.34447223      -1.73070776
15
Frame=8 idx=008707 GeodesicLength=0.4706068685201928 rxn_smarts="[C:1]([C:2]([C:3]([H:11])([H:12])[H:13])([C:4]#[C:5][H:14])[C:6]#[C:7][H:15])([H:8])([H:9])[H:10]>>[C:1]([C:2](=[C:4]=[C:5]([C:3]([H:11])([H:12])[H:13])[H:14])[C:6]#[C:7][H:15])([H:8])([H:9])[H:10]"
C       -0.90210045      -0.66991597      -1.45777919
C        0.07401721      -0.00192729      -0.50678252
C       -0.54332879      -0.05298070       1.86030217
C        1.00891603      -0.80613951       0.12363545
C        1.33450676      -1.31837545       1.20651036
C        0.50766175       1.31222090      -0.90458773
C        0.84931315       2.39073843      -1.30407593
H       -0.46595800      -0.79364022      -2.45124092
H       -1.79804144      -0.05487234      -1.54371565
H       -1.17988326      -1.66026204      -1.09790689
H       -1.05749332      -0.90898191       1.44907607
H        0.23645888       0.68683460       1.97455818
H       -1.27047909       0.25657318       2.61736692
H        2.14094258      -1.70793318       1.79345872
H        1.06546799       3.32866150      -1.75881903
15
Frame=9 idx=008707 GeodesicLength=0.5291858166709351 rxn_smarts="[C:1]([C:2]([C:3]([H:11])([H:12])[H:13])([C:4]#[C:5][H:14])[C:6]#[C:7][H:15])([H:8])([H:9])[H:10]>>[C:1]([C:2](=[C:4]=[C:5]([C:3]([H:11])([H:12])[H:13])[H:14])[C:6]#[C:7][H:15])([H:8])([H:9])[H:10]"
C       -0.90072763      -0.66563571      -1.45814523
C        0.06616432       0.00178140      -0.49536434
C       -0.53121492      -0.06215608       1.85241889
C        1.00918225      -0.80812902       0.11960496
C        1.32398430      -1.31893988       1.20824600
C        0.50651091       1.31403073      -0.89907108
C        0.85308169       2.38724909      -1.30808765
H       -0.45875444      -0.78062457      -2.44984897
H       -1.79977127      -0.05477620      -1.54263842
H       -1.17499267      -1.66039247      -1.10782013
H       -1.07911588      -0.90573380       1.45442893
H        0.23660098       0.68508673       2.00980261
H       -1.26045777       0.24382973       2.61044266
H        2.14383083      -1.69195088       1.78825595
H        1.06567930       3.31636092      -1.78222417
15
Frame=10 idx=008707 GeodesicLength=0.587711342536132 rxn_smarts="[C:1]([C:2]([C:3]([H:11])([H:12])[H:13])([C:4]#[C:5][H:14])[C:6]#[C:7][H:15])([H:8])([H:9])[H:10]>>[C:1]([C:2](=[C:4]=[C:5]([C:3]([H:11])([H:12])[H:13])[H:14])[C:6]#[C:7][H:15])([H:8])([H:9])[H:10]"
C       -0.89965972      -0.66155816      -1.45833699
C        0.05816307       0.00561531      -0.48436265
C       -0.51962081      -0.07142840       1.84449006
C        1.00970732      -0.80917496       0.11513261
C        1.31449784      -1.31828149       1.20934132
C        0.50385864       1.31649814      -0.89359868
C        0.85417518       2.38493508      -1.31144762
H       -0.45234312      -0.76752810      -2.44842093
H       -1.80217966      -0.05542654      -1.54095405
H       -1.16966259      -1.66076931      -1.11745181
H       -1.09981466      -0.90202869       1.45994142
H        0.23485765       0.68189107       2.04538079
H       -1.25082777       0.22995618       2.60405726
H        2.14710392      -1.67478546       1.78247965
H        1.07174469       3.30208534      -1.80625038
15
Frame=11 idx=008707 GeodesicLength=0.6462033533841638 rxn_smarts="[C:1]([C:2]([C:3]([H:11])([H:12])[H:13])([C:4]#[C:5][H:14])[C:6]#[C:7][H:15])([H:8])([H:9])[H:10]>>[C:1]([C:2](=[C:4]=[C:5]([C:3]([H:11])([H:12])[H:13])[H:14])[C:6]#[C:7][H:15])([H:8])([H:9])[H:10]"
C       -0.89813036      -0.65749561      -1.45857830
C        0.05141859       0.00884524      -0.47397167
C       -0.50793246      -0.07961241       1.83619815
C        1.01052673      -0.81113089       0.11068961
C        1.30495362      -1.31826542       1.21058160
C        0.50323074       1.31802074      -0.88889746
C        0.85795705       2.38120130      -1.31597501
H       -0.44576883      -0.75526237      -2.44698492
H       -1.80358234      -0.05535689      -1.53947743
H       -1.16469676      -1.66065721      -1.12665635
H       -1.12006585      -0.89605111       1.46542506
H        0.23293605       0.67733351       2.08078131
H       -1.24084200       0.21768513       2.59744040
H        2.14900169      -1.65934319       1.77731580
H        1.07099412       3.29008917      -1.82789081
15
Frame=12 idx=008707 GeodesicLength=0.7046363040624359 rxn_smarts="[C:1]([C:2]([C:3]([H:11])([H:12])[H:13])([C:4]#[C:5][H:14])[C:6]#[C:7][H:15])([H:8])([H:9])[H:10]>>[C:1]([C:2](=[C:4]=[C:5]([C:3]([H:11])([H:12])[H:13])[H:14])[C:6]#[C:7][H:15])([H:8])([H:9])[H:10]"
C       -0.89718821      -0.65352037      -1.45855099
C        0.04385617       0.01265884      -0.46371202
C       -0.49697703      -0.08847794       1.82824686
C        1.01154672      -0.81126792       0.10570511
C        1.29682360      -1.31637895       1.21088209
C        0.49968645       1.32099803      -0.88377330
C        0.85679179       2.37999427      -1.31881258
H       -0.44023624      -0.74229926      -2.44546588
H       -1.80630785      -0.05645936      -1.53713026
H       -1.15896389      -1.66092499      -1.13573444
H       -1.13910206      -0.89062165       1.47113697
H        0.22855057       0.67099180       2.11680480
H       -1.23173242       0.20317323       2.59169001
H        2.15213115      -1.64156792       1.77103585
H        1.08112125       3.27370221      -1.85232222
15
Frame=13 idx=008707 GeodesicLength=0.7630241336127855 rxn_smarts="[C:1]([C:2]([C:3]([H:11])([H:12])[H:13])([C:4]#[C:5][H:14])[C:6]#[C:7][H:15])([H:8])([H:9])[H:10]>>[C:1]([C:2](=[C:4]=[C:5]([C:3]([H:11])([H:12])[H:13])[H:14])[C:6]#[C:7][H:15])([H:8])([H:9])[H:10]"
C       -0.89566315      -0.64960058      -1.45861998
C        0.03776389       0.01572135      -0.45406760
C       -0.48578528      -0.09600075       1.81998166
C        1.01278869      -0.81275367       0.10089220
C        1.28833622      -1.31556125       1.21153785
C        0.49894117       1.32260243      -0.87970615
C        0.85957743       2.37664160      -1.32344766
H       -0.43432243      -0.73049415      -2.44394218
H       -1.80771316      -0.05660034      -1.53521514
H       -1.15383545      -1.66064145      -1.14432621
H       -1.15770930      -0.88259296       1.47677080
H        0.22444212       0.66328135       2.15238797
H       -1.22229791       0.19104472       2.58539535
H        2.15367972      -1.62600292       1.76562651
H        1.08179745       3.26095662      -1.87326744
15
Frame=14 idx=008707 GeodesicLength=0.8213509476564016 rxn_smarts="[C:1]([C:2]([C:3]([H:11])([H:12])[H:13])([C:4]#[C:5][H:14])[C:6]#[C:7][H:15])([H:8])([H:9])[H:10]>>[C:1]([C:2](=[C:4]=[C:5]([C:3]([H:11])([H:12])[H:13])[H:14])[C:6]#[C:7][H:15])([H:8])([H:9])[H:10]"
C       -0.89421221      -0.64575459      -1.45857368
C        0.03184289       0.01878149      -0.44471075
C       -0.47484609      -0.10329463       1.81186563
C        1.01419432      -0.81388087       0.09590213
C        1.28040597      -1.31427734       1.21187181
C        0.49791493       1.32434049      -0.87592104
C        0.86153296       2.37366737      -1.32798449
H       -0.42878654      -0.71885584      -2.44235542
H       -1.80925090      -0.05693617      -1.53303881
H       -1.14860804      -1.66032371      -1.15262244
H       -1.17538326      -0.87379510       1.48249246
H        0.21925539       0.65389962       2.18801115
H       -1.21331076       0.17897127       2.57920375
H        2.15525169      -1.61018068       1.75999124
H        1.08399966       3.24763867      -1.89413154
15
Frame=15 idx=008707 GeodesicLength=0.879618422893755 rxn_smarts="[C:1]([C:2]([C:3]([H:11])([H:12])[H:13])([C:4]#[C:5][H:14])[C:6]#[C:7][H:15])([H:8])([H:9])[H:10]>>[C:1]([C:2](=[C:4]=[C:5]([C:3]([H:11])([H:12])[H:13])[H:14])[C:6]#[C:7][H:15])([H:8])([H:9])[H:10]"
C       -0.89315077      -0.64198818      -1.45830999
C        0.02547005       0.02219464      -0.43547970
C       -0.46434426      -0.11081718       1.80410886
C        1.01574658      -0.81379541       0.09056535
C        1.27345896      -1.31181090       1.21156122
C        0.49514423       1.32693547      -0.87207803
C        0.86039306       2.37224766      -1.33172345
H       -0.42400806      -0.70690608      -2.44067212
H       -1.81160633      -0.05803202      -1.53027962
H       -1.14293624      -1.66019928      -1.16071059
H       -1.19186627      -0.86516604       1.48838661
H        0.21246910       0.64267446       2.22383507
H       -1.20512272       0.16603245       2.57333073
H        2.15756053      -1.59296409       1.75360415
H        1.09279211       3.23159451      -1.91613848
15
Frame=16 idx=008707 GeodesicLength=0.9378330835404736 rxn_smarts="[C:1]([C:2]([C:3]([H:11])([H:12])[H:13])([C:4]#[C:5][H:14])[C:6]#[C:7][H:15])([H:8])([H:9])[H:10]>>[C:1]([C:2](=[C:4]=[C:5]([C:3]([H:11])([H:12])[H:13])[H:14])[C:6]#[C:7][H:15])([H:8])([H:9])[H:10]"
C       -0.89161148      -0.63822726      -1.45805966
C        0.02021377       0.02512453      -0.42662601
C       -0.45370880      -0.11737939       1.79635160
C        1.01746607      -0.81465897       0.08544435
C        1.26626629      -1.31017776       1.21153125
C        0.49450845       1.32853468      -0.86900973
C        0.86210217       2.36934933      -1.33660568
H       -0.41887716      -0.69581360      -2.43892898
H       -1.81294584      -0.05838048      -1.52779531
H       -1.13767927      -1.65964166      -1.16838297
H       -1.20768953      -0.85462319       1.49420248
H        0.20581641       0.62986261       2.25923297
H       -1.19709706       0.15524358       2.56682233
H        2.15874320      -1.57754317       1.74785253
H        1.09449279       3.21833074      -1.93602918
