12
Frame=0 idx=000540 GeodesicLength=0.0 rxn_smarts="[C:1]1([H:7])([H:8])[C@:2]2([H:9])[O:3][C:4]([H:10])([H:11])[O:5][C@:6]12[H:12]>>[C:1]1([H:7])([H:8])[C:2]([H:9])([H:12])[O:3][C:4]([H:10])([H:11])[O+:5]=[C-:6]1"
C        1.13544179       0.44350478       0.32379309
C        0.52295042      -0.89610336       0.11692452
O       -0.83095505      -0.97351948       0.39029358
C       -1.43834689       0.25029078       0.06073094
O       -0.78011645       0.73407013      -1.10134618
C        0.57582360       0.55518285      -1.09563332
H        2.21987907       0.44971028       0.33010288
H        0.71994932       1.05765289       1.11447038
H        1.04040516      -1.82533683       0.32779807
H       -2.48300231       0.06479132      -0.18014618
H       -1.35275424       0.96868716       0.88160729
H        0.67072556      -0.82893056      -1.16859504
12
Frame=1 idx=000540 GeodesicLength=0.06531504031727803 rxn_smarts="[C:1]1([H:7])([H:8])[C@:2]2([H:9])[O:3][C:4]([H:10])([H:11])[O:5][C@:6]12[H:12]>>[C:1]1([H:7])([H:8])[C:2]([H:9])([H:12])[O:3][C:4]([H:10])([H:11])[O+:5]=[C-:6]1"
C        1.14427264       0.44200346       0.32045765
C        0.52058065      -0.89365550       0.11685854
O       -0.83569263      -0.97390801       0.38343953
C       -1.44542286       0.24835400       0.06071013
O       -0.78171634       0.75515341      -1.08907428
C        0.57037038       0.56153647      -1.08984213
H        2.22903482       0.44404524       0.30812361
H        0.74297260       1.05855838       1.11640798
H        1.03325042      -1.81863245       0.35687257
H       -2.48520232       0.05631272      -0.19729665
H       -1.37443795       0.95741041       0.89091436
H        0.68199058      -0.83717812      -1.17757131
12
Frame=2 idx=000540 GeodesicLength=0.1306404738596676 rxn_smarts="[C:1]1([H:7])([H:8])[C@:2]2([H:9])[O:3][C:4]([H:10])([H:11])[O:5][C@:6]12[H:12]>>[C:1]1([H:7])([H:8])[C:2]([H:9])([H:12])[O:3][C:4]([H:10])([H:11])[O+:5]=[C-:6]1"
C        1.15329778       0.44043814       0.31690680
C        0.51824682      -0.89118852       0.11690374
O       -0.84040262      -0.97427471       0.37663522
C       -1.45263389       0.24631281       0.06065882
O       -0.78328518       0.77663689      -1.07589901
C        0.56473652       0.56787016      -1.08391765
H        2.23805691       0.43820648       0.28558356
H        0.76681804       1.05932299       1.11819192
H        1.02565231      -1.81118284       0.38626114
H       -2.48706805       0.04787806      -0.21506925
H       -1.39692156       0.94556930       0.90015237
H        0.69350291      -0.84558876      -1.18640768
12
Frame=3 idx=000540 GeodesicLength=0.1958263506922181 rxn_smarts="[C:1]1([H:7])([H:8])[C@:2]2([H:9])[O:3][C:4]([H:10])([H:11])[O:5][C@:6]12[H:12]>>[C:1]1([H:7])([H:8])[C:2]([H:9])([H:12])[O:3][C:4]([H:10])([H:11])[O+:5]=[C-:6]1"
C        1.16246276       0.43881553       0.31312949
C        0.51595201      -0.88867318       0.11706572
O       -0.84502978      -0.97457839       0.36989335
C       -1.45992741       0.24416087       0.06058511
O       -0.78476561       0.79845492      -1.06173579
C        0.55889438       0.57415655      -1.07780464
H        2.24682932       0.43217005       0.26249309
H        0.79144891       1.05998637       1.11975699
H        1.01756289      -1.80295883       0.41585517
H       -2.48849612       0.03952056      -0.23347057
H       -1.42019212       0.93313472       0.90930288
H        0.70526077      -0.85418917      -1.19507079
12
Frame=4 idx=000540 GeodesicLength=0.26100343688528815 rxn_smarts="[C:1]1([H:7])([H:8])[C@:2]2([H:9])[O:3][C:4]([H:10])([H:11])[O:5][C@:6]12[H:12]>>[C:1]1([H:7])([H:8])[C:2]([H:9])([H:12])[O:3][C:4]([H:10])([H:11])[O+:5]=[C-:6]1"
C        1.17182594       0.43712903       0.30912570
C        0.51369506      -0.88613045       0.11738439
O       -0.84962572      -0.97484853       0.36325906
C       -1.46736153       0.24190194       0.06047455
O       -0.78619544       0.82063346      -1.04654965
C        0.55284858       0.58044374      -1.07151673
H        2.25543278       0.42595353       0.23883159
H        0.81695863       1.06050662       1.12111107
H        1.00904489      -1.79395639       0.44567068
H       -2.48952058       0.03125276      -0.25254144
H       -1.44433928       0.92009772       0.91830950
H        0.71723666      -0.86298342      -1.20355873
12
Frame=5 idx=000540 GeodesicLength=0.3261248402485868 rxn_smarts="[C:1]1([H:7])([H:8])[C@:2]2([H:9])[O:3][C:4]([H:10])([H:11])[O:5][C@:6]12[H:12]>>[C:1]1([H:7])([H:8])[C:2]([H:9])([H:12])[O:3][C:4]([H:10])([H:11])[O+:5]=[C-:6]1"
C        1.18137386       0.43537745       0.30488650
C        0.51147403      -0.88354624       0.11787507
O       -0.85417547      -0.97506839       0.35675174
C       -1.47492224       0.23953252       0.06032780
O       -0.78754952       0.84314582      -1.03025501
C        0.54658033       0.58673362      -1.06501628
H        2.26381708       0.41954373       0.21457350
H        0.84336380       1.06088852       1.12221505
H        1.00008778      -1.78414135       0.47566996
H       -2.49007135       0.02310106      -0.27231777
H       -1.46939250       0.90642164       0.92713978
H        0.72941419      -0.87198839      -1.21185035
12
Frame=6 idx=000540 GeodesicLength=0.3911870971413839 rxn_smarts="[C:1]1([H:7])([H:8])[C@:2]2([H:9])[O:3][C:4]([H:10])([H:11])[O:5][C@:6]12[H:12]>>[C:1]1([H:7])([H:8])[C:2]([H:9])([H:12])[O:3][C:4]([H:10])([H:11])[O+:5]=[C-:6]1"
C        1.19111020       0.43355879       0.30040437
C        0.50928804      -0.88091354       0.11856008
O       -0.85867862      -0.97523174       0.35040307
C       -1.48261309       0.23705058       0.06014177
O       -0.78881510       0.86597049      -1.01277479
C        0.54007650       0.59304488      -1.05827382
H        2.27196051       0.41293549       0.18969498
H        0.87070099       1.06112467       1.12303567
H        0.99069991      -1.77349039       0.50582600
H       -2.49009921       0.01509194      -0.29283703
H       -1.49539995       0.89207571       0.93574905
H        0.74176983      -0.88121686      -1.21992933
12
Frame=7 idx=000540 GeodesicLength=0.45618696857405894 rxn_smarts="[C:1]1([H:7])([H:8])[C@:2]2([H:9])[O:3][C:4]([H:10])([H:11])[O:5][C@:6]12[H:12]>>[C:1]1([H:7])([H:8])[C:2]([H:9])([H:12])[O:3][C:4]([H:10])([H:11])[O+:5]=[C-:6]1"
C        1.20103846       0.43166899       0.29567250
C        0.50713505      -0.87822582       0.11946102
O       -0.86313576      -0.97533175       0.34424852
C       -1.49043772       0.23445551       0.05991221
O       -0.78998226       0.88907958      -0.99402889
C        0.53332392       0.59940023      -1.05125488
H        2.27983910       0.40612554       0.16417030
H        0.89900880       1.06120050       1.12354136
H        0.98089510      -1.76197812       0.53611387
H       -2.48954677       0.00725124      -0.31413609
H       -1.52241160       0.87703446       0.94408236
H        0.75427369      -0.89068036      -1.22778227
12
Frame=8 idx=000540 GeodesicLength=0.5211231845787635 rxn_smarts="[C:1]1([H:7])([H:8])[C@:2]2([H:9])[O:3][C:4]([H:10])([H:11])[O:5][C@:6]12[H:12]>>[C:1]1([H:7])([H:8])[C:2]([H:9])([H:12])[O:3][C:4]([H:10])([H:11])[O+:5]=[C-:6]1"
C        1.21116245       0.42970571       0.29068444
C        0.50501416      -0.87547336       0.12060107
O       -0.86754583      -0.97535981       0.33833071
C       -1.49840003       0.23174425       0.05963555
O       -0.79103767       0.91243692      -0.97393562
C        0.52630994       0.60582774      -1.04392230
H        2.28742603       0.39910838       0.13797451
H        0.92832704       1.06110576       1.12369490
H        0.97068838      -1.74958470       0.56650435
H       -2.48835551      -0.00038826      -0.33625160
H       -1.55048260       0.86126742       0.95207934
H        0.76689363      -0.90039004      -1.23539534
12
Frame=9 idx=000540 GeodesicLength=0.5859972850628123 rxn_smarts="[C:1]1([H:7])([H:8])[C@:2]2([H:9])[O:3][C:4]([H:10])([H:11])[O:5][C@:6]12[H:12]>>[C:1]1([H:7])([H:8])[C:2]([H:9])([H:12])[O:3][C:4]([H:10])([H:11])[O+:5]=[C-:6]1"
C        1.22148397       0.42766312       0.28543435
C        0.50292090      -0.87264989       0.12200096
O       -0.87191242      -0.97530798       0.33269498
C       -1.50650351       0.22891887       0.05930554
O       -0.79197700       0.93600279      -0.95240615
C        0.51902520       0.61236007      -1.03623132
H        2.29469135       0.39188481       0.11107882
H        0.95869500       1.06081750       1.12346514
H        0.96010710      -1.73629132       0.59697121
H       -2.48644956      -0.00780269      -0.35921476
H       -1.57967045       0.84476331       0.95966122
H        0.77958943      -0.91035859      -1.24275998
12
Frame=10 idx=000540 GeodesicLength=0.6508917158168429 rxn_smarts="[C:1]1([H:7])([H:8])[C@:2]2([H:9])[O:3][C:4]([H:10])([H:11])[O:5][C@:6]12[H:12]>>[C:1]1([H:7])([H:8])[C:2]([H:9])([H:12])[O:3][C:4]([H:10])([H:11])[O+:5]=[C-:6]1"
C        1.23204356       0.42555524       0.27992425
C        0.50085419      -0.86975311       0.12369493
O       -0.87625620      -0.97519424       0.32740240
C       -1.51477325       0.22595954       0.05891112
O       -0.79278631       0.95974761      -0.92939694
C        0.51145608       0.61906937      -1.02816924
H        2.30164656       0.38446750       0.08346254
H        0.99021759       1.06034149       1.12282926
H        0.94914885      -1.72209938       0.62753880
H       -2.48382531      -0.01495576      -0.38308692
H       -1.61002415       0.82744859       0.96677699
H        0.79229838      -0.92058686      -1.24988719
12
Frame=11 idx=000540 GeodesicLength=0.7155214242785948 rxn_smarts="[C:1]1([H:7])([H:8])[C@:2]2([H:9])[O:3][C:4]([H:10])([H:11])[O:5][C@:6]12[H:12]>>[C:1]1([H:7])([H:8])[C:2]([H:9])([H:12])[O:3][C:4]([H:10])([H:11])[O+:5]=[C-:6]1"
C        1.24271974       0.42331654       0.27412771
C        0.49881571      -0.86674772       0.12566293
O       -0.88049615      -0.97492941       0.32246598
C       -1.52313557       0.22291017       0.05845892
O       -0.79348012       0.98352916      -0.90469404
C        0.50356709       0.62589522      -1.01955504
H        2.30809423       0.37679581       0.05507408
H        1.02274695       1.05956510       1.12169016
H        0.93790896      -1.70688831       0.65806471
H       -2.48017452      -0.02177726      -0.40780074
H       -1.64159470       0.80941550       0.97321746
H        0.80502838      -0.93108480      -1.25671211
12
Frame=12 idx=000540 GeodesicLength=0.7803159650927507 rxn_smarts="[C:1]1([H:7])([H:8])[C@:2]2([H:9])[O:3][C:4]([H:10])([H:11])[O:5][C@:6]12[H:12]>>[C:1]1([H:7])([H:8])[C:2]([H:9])([H:12])[O:3][C:4]([H:10])([H:11])[O+:5]=[C-:6]1"
C        1.25369370       0.42100819       0.26806183
C        0.49679107      -0.86366972       0.12798124
O       -0.88476477      -0.97462555       0.31799473
C       -1.53171118       0.21970923       0.05792446
O       -0.79403132       1.00743936      -0.87833698
C        0.49538878       0.63302056      -1.01048596
H        2.31422049       0.36894697       0.02587859
H        1.05662430       1.05856183       1.12008382
H        0.92634306      -1.69073279       0.68874164
H       -2.47569263      -0.02830408      -0.43355094
H       -1.67449763       0.79050183       0.97903896
H        0.81763614      -0.94185581      -1.26333139
12
Frame=13 idx=000540 GeodesicLength=0.8448532892084468 rxn_smarts="[C:1]1([H:7])([H:8])[C@:2]2([H:9])[O:3][C:4]([H:10])([H:11])[O:5][C@:6]12[H:12]>>[C:1]1([H:7])([H:8])[C:2]([H:9])([H:12])[O:3][C:4]([H:10])([H:11])[O+:5]=[C-:6]1"
C        1.26478243       0.41855664       0.26167962
C        0.49481329      -0.86044642       0.13060996
O       -0.88889199      -0.97413186       0.31397511
C       -1.54037083       0.21640757       0.05731979
O       -0.79443372       1.03124114      -0.85004806
C        0.48687329       0.64037494      -1.00073775
H        2.31971950       0.36083277      -0.00419489
H        1.09158350       1.05719694       1.11784458
H        0.91449749      -1.67348312       0.71937939
H       -2.46997470      -0.03437784      -0.46020207
H       -1.70877337       0.77075732       0.98398853
H        0.83017511      -0.95292809      -1.26961421
12
Frame=14 idx=000540 GeodesicLength=0.9094397740655427 rxn_smarts="[C:1]1([H:7])([H:8])[C@:2]2([H:9])[O:3][C:4]([H:10])([H:11])[O:5][C@:6]12[H:12]>>[C:1]1([H:7])([H:8])[C:2]([H:9])([H:12])[O:3][C:4]([H:10])([H:11])[O+:5]=[C-:6]1"
C        1.27611966       0.41599880       0.25500770
C        0.49284902      -0.85711747       0.13362280
O       -0.89300979      -0.97354588       0.31053625
C       -1.54920796       0.21296421       0.05661242
O       -0.79471032       1.05497482      -0.81985565
C        0.47803395       0.64810792      -0.99034356
H        2.32472002       0.35253816      -0.03515241
H        1.12791879       1.05548971       1.11501561
H        0.90240526      -1.65519741       0.75011062
H       -2.46311066      -0.04004162      -0.48788881
H       -1.74448291       0.75011253       0.98800296
H        0.84247495      -0.96428376      -1.27566792
12
Frame=15 idx=000540 GeodesicLength=0.9740050653721952 rxn_smarts="[C:1]1([H:7])([H:8])[C@:2]2([H:9])[O:3][C:4]([H:10])([H:11])[O:5][C@:6]12[H:12]>>[C:1]1([H:7])([H:8])[C:2]([H:9])([H:12])[O:3][C:4]([H:10])([H:11])[O+:5]=[C-:6]1"
C        1.28765569       0.41330924       0.24802886
C        0.49091095      -0.85366413       0.13701397
O       -0.89708268      -0.97283215       0.30770360
C       -1.55819391       0.20938891       0.05580037
O       -0.79485659       1.07849680      -0.78761672
C        0.46886911       0.65625259      -0.97917674
H        2.32909628       0.34405031      -0.06703787
H        1.16557808       1.05337674       1.11150333
H        0.89009779      -1.63579962       0.78089230
H       -2.45492616      -0.04520486      -0.51654923
H       -1.78167543       0.72857124       0.99090919
H        0.85452686      -0.97594508      -1.28147106
12
Frame=16 idx=000540 GeodesicLength=1.038545216769999 rxn_smarts="[C:1]1([H:7])([H:8])[C@:2]2([H:9])[O:3][C:4]([H:10])([H:11])[O:5][C@:6]12[H:12]>>[C:1]1([H:7])([H:8])[C:2]([H:9])([H:12])[O:3][C:4]([H:10])([H:11])[O+:5]=[C-:6]1"
C        1.29937346       0.41047639       0.24073941
C        0.48899987      -0.85008157       0.14080011
O       -0.90110824      -0.97198458       0.30553480
C       -1.56731625       0.20567924       0.05487092
O       -0.79488642       1.10168997      -0.75324050
C        0.45937919       0.66487353      -0.96714397
H        2.33276165       0.33539253      -0.09987394
H        1.20458074       1.05080424       1.10724236
H        0.87760763      -1.61525069       0.81171846
H       -2.44529163      -0.04980210      -0.54615017
H       -1.82037037       0.70612477       0.99253507
H        0.86627037      -0.98792175      -1.28703257
