8
Frame=0 idx=005148 GeodesicLength=0.0 rxn_smarts="[O:1]=[c:2]1[n:3]([H:7])[c:4]([H:8])[n:5][o:6]1>>[O:1]([c+:2]1[n-:3][c:4]([H:8])[n:5][o:6]1)[H:7]"
O        1.99456787       0.54360118      -0.12286983
C        0.91150676      -0.08020478       0.01673462
N       -0.13732827       0.71059546      -0.16077335
C       -1.19695244      -0.11716738       0.02735374
N       -0.85241409      -1.33579296       0.30095520
O        0.57731853      -1.31381726       0.29426136
H        0.94011265       1.42856305      -0.32108094
H       -2.23681100       0.16422268      -0.03458082
8
Frame=1 idx=005148 GeodesicLength=0.03319729814117559 rxn_smarts="[O:1]=[c:2]1[n:3]([H:7])[c:4]([H:8])[n:5][o:6]1>>[O:1]([c+:2]1[n-:3][c:4]([H:8])[n:5][o:6]1)[H:7]"
O        1.99413407       0.54294488      -0.12226325
C        0.91218274      -0.08232571       0.01833789
N       -0.13747388       0.70919072      -0.16233615
C       -1.19688816      -0.12018705       0.02244955
N       -0.85316220      -1.33601824       0.30682232
O        0.57479689      -1.31715522       0.29124126
H        0.94259854       1.43889184      -0.32125534
H       -2.23618799       0.16465876      -0.03299628
8
Frame=2 idx=005148 GeodesicLength=0.06646450661615745 rxn_smarts="[O:1]=[c:2]1[n:3]([H:7])[c:4]([H:8])[n:5][o:6]1>>[O:1]([c+:2]1[n-:3][c:4]([H:8])[n:5][o:6]1)[H:7]"
O        1.99366841       0.54216441      -0.12239218
C        0.91285878      -0.08279523       0.02766067
N       -0.13760819       0.70899323      -0.15841179
C       -1.19680400      -0.12276720       0.01950941
N       -0.85393378      -1.33716332       0.30866780
O        0.57223728      -1.32096233       0.28615855
H        0.94511962       1.44766384      -0.32879660
H       -2.23553811       0.16486660      -0.03239587
8
Frame=3 idx=005148 GeodesicLength=0.10018729211427477 rxn_smarts="[O:1]=[c:2]1[n:3]([H:7])[c:4]([H:8])[n:5][o:6]1>>[O:1]([c+:2]1[n-:3][c:4]([H:8])[n:5][o:6]1)[H:7]"
O        1.99306978       0.53786882      -0.13809450
C        0.91349739      -0.08111837       0.04679465
N       -0.13768696       0.70771910      -0.15902864
C       -1.19668065      -0.12584747       0.01448022
N       -0.85475745      -1.33881497       0.30844490
O        0.56969766      -1.32364112       0.28602154
H        0.94766749       1.45910177      -0.32513661
H       -2.23480727       0.16473223      -0.03348156
8
Frame=4 idx=005148 GeodesicLength=0.13319577278375705 rxn_smarts="[O:1]=[c:2]1[n:3]([H:7])[c:4]([H:8])[n:5][o:6]1>>[O:1]([c+:2]1[n-:3][c:4]([H:8])[n:5][o:6]1)[H:7]"
O        1.99194818       0.53558315      -0.14270410
C        0.91415925      -0.08163533       0.05574018
N       -0.13777047       0.70787279      -0.15339132
C       -1.19648756      -0.12847827       0.01121604
N       -0.85542337      -1.34046544       0.30799200
O        0.56732122      -1.32618417       0.28508551
H        0.95029592       1.46864383      -0.32998225
H       -2.23404318       0.16466344      -0.03395605
8
Frame=5 idx=005148 GeodesicLength=0.16632516618830429 rxn_smarts="[O:1]=[c:2]1[n:3]([H:7])[c:4]([H:8])[n:5][o:6]1>>[O:1]([c+:2]1[n-:3][c:4]([H:8])[n:5][o:6]1)[H:7]"
O        1.99051787       0.53271244      -0.14932724
C        0.91482826      -0.08198449       0.06571317
N       -0.13784265       0.70846780      -0.14570608
C       -1.19619687      -0.13096158       0.00842996
N       -0.85602552      -1.34204979       0.30769272
O        0.56498908      -1.32868973       0.28409273
H        0.95295675       1.47831504      -0.33467206
H       -2.23322690       0.16419031      -0.03622320
8
Frame=6 idx=005148 GeodesicLength=0.19947790998415255 rxn_smarts="[O:1]=[c:2]1[n:3]([H:7])[c:4]([H:8])[n:5][o:6]1>>[O:1]([c+:2]1[n-:3][c:4]([H:8])[n:5][o:6]1)[H:7]"
O        1.98905341       0.52982887      -0.15638440
C        0.91559829      -0.08214353       0.07706218
N       -0.13790062       0.70924419      -0.13691426
C       -1.19583396      -0.13322658       0.00630658
N       -0.85665104      -1.34382140       0.30651385
O        0.56264942      -1.33128454       0.28290578
H        0.95543909       1.48770938      -0.34052034
H       -2.23235459       0.16369362      -0.03896938
8
Frame=7 idx=005148 GeodesicLength=0.23282510771275525 rxn_smarts="[O:1]=[c:2]1[n:3]([H:7])[c:4]([H:8])[n:5][o:6]1>>[O:1]([c+:2]1[n-:3][c:4]([H:8])[n:5][o:6]1)[H:7]"
O        1.98738036       0.52691980      -0.16370289
C        0.91649399      -0.08245226       0.08836002
N       -0.13791857       0.71050709      -0.12554603
C       -1.19537549      -0.13525153       0.00495574
N       -0.85727236      -1.34567393       0.30491516
O        0.56032576      -1.33390212       0.28170392
H        0.95777333       1.49683579      -0.34769330
H       -2.23140702       0.16301717      -0.04299262
8
Frame=8 idx=005148 GeodesicLength=0.26609263408372985 rxn_smarts="[O:1]=[c:2]1[n:3]([H:7])[c:4]([H:8])[n:5][o:6]1>>[O:1]([c+:2]1[n-:3][c:4]([H:8])[n:5][o:6]1)[H:7]"
O        1.98558415       0.52431441      -0.16981498
C        0.91746840      -0.08312814       0.09848350
N       -0.13789021       0.71190264      -0.11314521
C       -1.19482679      -0.13702619       0.00444677
N       -0.85787284      -1.34751589       0.30325156
O        0.55801686      -1.33658480       0.28027078
H        0.95987865       1.50567379      -0.35599014
H       -2.23035823       0.16236419      -0.04750228
8
Frame=9 idx=005148 GeodesicLength=0.2993997503746911 rxn_smarts="[O:1]=[c:2]1[n:3]([H:7])[c:4]([H:8])[n:5][o:6]1>>[O:1]([c+:2]1[n-:3][c:4]([H:8])[n:5][o:6]1)[H:7]"
O        1.98357645       0.52175387      -0.17609343
C        0.91859400      -0.08402612       0.10833580
N       -0.13777266       0.71342284      -0.09953290
C       -1.19418508      -0.13853296       0.00482419
N       -0.85846508      -1.34936111       0.30145273
O        0.55572772      -1.33931026       0.27882163
H        0.96170003       1.51438000      -0.36476462
H       -2.22917538       0.16167373      -0.05304341
8
Frame=10 idx=005148 GeodesicLength=0.3327161777630008 rxn_smarts="[O:1]=[c:2]1[n:3]([H:7])[c:4]([H:8])[n:5][o:6]1>>[O:1]([c+:2]1[n-:3][c:4]([H:8])[n:5][o:6]1)[H:7]"
O        1.98135075       0.51930934      -0.18233406
C        0.91984715      -0.08522138       0.11765410
N       -0.13754718       0.71503792      -0.08467981
C       -1.19344392      -0.13973214       0.00629085
N       -0.85903703      -1.35120301       0.29953908
O        0.55345615      -1.34208885       0.27733322
H        0.96317640       1.52292007      -0.37409234
H       -2.22780231       0.16097805      -0.05971105
8
Frame=11 idx=005148 GeodesicLength=0.36604996693137704 rxn_smarts="[O:1]=[c:2]1[n:3]([H:7])[c:4]([H:8])[n:5][o:6]1>>[O:1]([c+:2]1[n-:3][c:4]([H:8])[n:5][o:6]1)[H:7]"
O        1.97907466       0.51718493      -0.18735249
C        0.92110647      -0.08652669       0.12684693
N       -0.13726590       0.71624154      -0.07135640
C       -1.19268310      -0.14098107       0.00749877
N       -0.85961433      -1.35310224       0.29731198
O        0.55118727      -1.34489492       0.27580752
H        0.96452923       1.53143087      -0.38364151
H       -2.22633431       0.16064759      -0.06511479
8
Frame=12 idx=005148 GeodesicLength=0.3994069077073038 rxn_smarts="[O:1]=[c:2]1[n:3]([H:7])[c:4]([H:8])[n:5][o:6]1>>[O:1]([c+:2]1[n-:3][c:4]([H:8])[n:5][o:6]1)[H:7]"
O        1.97673958       0.51533176      -0.19147354
C        0.92239268      -0.08800075       0.13580159
N       -0.13692564       0.71719100      -0.05880872
C       -1.19189544      -0.14221404       0.00870770
N       -0.86019502      -1.35500862       0.29498343
O        0.54891942      -1.34774987       0.27415211
H        0.96574373       1.53989822      -0.39345666
H       -2.22477930       0.16055230      -0.06990592
8
Frame=13 idx=005148 GeodesicLength=0.4327817427343874 rxn_smarts="[O:1]=[c:2]1[n:3]([H:7])[c:4]([H:8])[n:5][o:6]1>>[O:1]([c+:2]1[n-:3][c:4]([H:8])[n:5][o:6]1)[H:7]"
O        1.97433922       0.51371211      -0.19490164
C        0.92371759      -0.08964224       0.14456743
N       -0.13651992       0.71796905      -0.04663502
C       -1.19107930      -0.14338661       0.01012811
N       -0.86077870      -1.35689719       0.29267023
O        0.54665009      -1.35067140       0.27224326
H        0.96679961       1.54829809      -0.40358655
H       -2.22312860       0.16061820      -0.07448582
8
Frame=14 idx=005148 GeodesicLength=0.4661761480627538 rxn_smarts="[O:1]=[c:2]1[n:3]([H:7])[c:4]([H:8])[n:5][o:6]1>>[O:1]([c+:2]1[n-:3][c:4]([H:8])[n:5][o:6]1)[H:7]"
O        1.97184301       0.51226137      -0.19796374
C        0.92510063      -0.09146250       0.15314619
N       -0.13603701       0.71863233      -0.03450921
C       -1.19023385      -0.14445657       0.01198190
N       -0.86136742      -1.35874748       0.29048928
O        0.54437529      -1.35366517       0.27006391
H        0.96767280       1.55666134      -0.41391725
H       -2.22135344       0.16077668      -0.07929108
8
Frame=15 idx=005148 GeodesicLength=0.4995881328470108 rxn_smarts="[O:1]=[c:2]1[n:3]([H:7])[c:4]([H:8])[n:5][o:6]1>>[O:1]([c+:2]1[n-:3][c:4]([H:8])[n:5][o:6]1)[H:7]"
O        1.96929217       0.51103327      -0.20040354
C        0.92651944      -0.09343740       0.16161020
N       -0.13548734       0.71915845      -0.02262633
C       -1.18937119      -0.14545953       0.01411782
N       -0.86196031      -1.36059015       0.28828452
O        0.54209713      -1.35671675       0.26761553
H        0.96838703       1.56493453      -0.42461997
H       -2.21947691       0.16107759      -0.08397822
8
Frame=16 idx=005148 GeodesicLength=0.533010398219892 rxn_smarts="[O:1]=[c:2]1[n:3]([H:7])[c:4]([H:8])[n:5][o:6]1>>[O:1]([c+:2]1[n-:3][c:4]([H:8])[n:5][o:6]1)[H:7]"
O        1.96668914       0.51001333      -0.20230651
C        0.92797203      -0.09557465       0.16992823
N       -0.13487120       0.71954943      -0.01099572
C       -1.18850346      -0.14639294       0.01660693
N       -0.86256210      -1.36241108       0.28615004
O        0.53980895      -1.35982618       0.26487277
H        0.96896429       1.57315255      -0.43558971
H       -2.21749764       0.16148954      -0.08866603
