15
Frame=0 idx=011586 GeodesicLength=0.0 rxn_smarts="[C:1]([C@@:2]1([H:11])[N:3]([H:12])[C:4]([H:13])([H:14])/[C:5]1=[N:6]\[O:7][H:15])([H:8])([H:9])[H:10]>>[C:1]([C@@:2]1([H:11])[N:3]([H:12])[N:6]([O:7][H:15])[C:5]1=[C:4]([H:13])[H:14])([H:8])([H:9])[H:10]"
C       -1.66766988      -0.69153843      -0.55232853
C       -0.70116528       0.45545826      -0.23183884
N       -0.93144748       1.12157965       0.99140532
C        1.67947325       1.04034615      -0.32390028
C        0.73726086       0.09324282      -0.04361045
N        0.88103861      -1.01504334       0.65801691
O        2.17369165      -1.29479869       0.92734688
H       -2.67659485      -0.28814200      -0.65899697
H       -1.66754447      -1.42764712       0.25044344
H       -1.39759483      -1.18587873      -1.48739759
H       -0.72917868       1.14494710      -1.10502415
H       -1.93663574       1.31808097       1.06177781
H        2.70944152       0.93646460      -0.01116946
H        1.39204098       1.92090381      -0.88047721
H        2.13488438      -2.12797510       1.40575316
15
Frame=1 idx=011586 GeodesicLength=0.08272718351356964 rxn_smarts="[C:1]([C@@:2]1([H:11])[N:3]([H:12])[C:4]([H:13])([H:14])/[C:5]1=[N:6]\[O:7][H:15])([H:8])([H:9])[H:10]>>[C:1]([C@@:2]1([H:11])[N:3]([H:12])[N:6]([O:7][H:15])[C:5]1=[C:4]([H:13])[H:14])([H:8])([H:9])[H:10]"
C       -1.68076607      -0.69143606      -0.56392671
C       -0.69747307       0.44189595      -0.25515634
N       -0.87527737       1.09009457       0.99174028
C        1.66656866       1.05716594      -0.30756455
C        0.74317646       0.07210441      -0.08927869
N        0.87868713      -1.01471193       0.64869177
O        2.16619786      -1.27245046       0.97211027
H       -2.68832395      -0.27801551      -0.64364600
H       -1.67493419      -1.43678105       0.23036650
H       -1.43524491      -1.17880003      -1.50952837
H       -0.74417860       1.14509244      -1.11496893
H       -1.87280924       1.30208548       1.10127541
H        2.68961823       0.97616548       0.03430829
H        1.39980629       1.90677296      -0.92040662
H        2.12495275      -2.11918219       1.42598368
15
Frame=2 idx=011586 GeodesicLength=0.16462622839969074 rxn_smarts="[C:1]([C@@:2]1([H:11])[N:3]([H:12])[C:4]([H:13])([H:14])/[C:5]1=[N:6]\[O:7][H:15])([H:8])([H:9])[H:10]>>[C:1]([C@@:2]1([H:11])[N:3]([H:12])[N:6]([O:7][H:15])[C:5]1=[C:4]([H:13])[H:14])([H:8])([H:9])[H:10]"
C       -1.69179278      -0.69183963      -0.57333127
C       -0.69399205       0.42948645      -0.27632379
N       -0.82446985       1.06260945       0.98958168
C        1.65229232       1.07246765      -0.29307195
C        0.74886774       0.05503766      -0.12654866
N        0.87568921      -1.01129192       0.64440338
O        2.15792808      -1.25475756       1.00790981
H       -2.69747818      -0.26976812      -0.63119447
H       -1.68256200      -1.44387102       0.21474857
H       -1.46660485      -1.17470687      -1.52651437
H       -0.75788765       1.14390961      -1.12421970
H       -1.81346683       1.28903358       1.13356004
H        2.66749920       1.01395581       0.07668408
H        1.40974786       1.89342144      -0.95405716
H        2.11622977      -2.11368651       1.43837383
15
Frame=3 idx=011586 GeodesicLength=0.2461084001793977 rxn_smarts="[C:1]([C@@:2]1([H:11])[N:3]([H:12])[C:4]([H:13])([H:14])/[C:5]1=[N:6]\[O:7][H:15])([H:8])([H:9])[H:10]>>[C:1]([C@@:2]1([H:11])[N:3]([H:12])[N:6]([O:7][H:15])[C:5]1=[C:4]([H:13])[H:14])([H:8])([H:9])[H:10]"
C       -1.70154649      -0.69236702      -0.58147482
C       -0.69066667       0.41782161      -0.29582065
N       -0.77736013       1.03731619       0.98605958
C        1.63734462       1.08620989      -0.28082166
C        0.75443905       0.04052653      -0.15831644
N        0.87247952      -1.00671022       0.64203238
O        2.14931288      -1.23966878       1.03882043
H       -2.70501352      -0.26247989      -0.62071290
H       -1.69045310      -1.44967833       0.20163902
H       -1.49394895      -1.17200097      -1.54044858
H       -0.77087581       1.14220771      -1.13234272
H       -1.75705889       1.27747460       1.16123324
H        2.64379796       1.04986570       0.11570081
H        1.42108042       1.88093122      -0.98271951
H        2.10846911      -2.10944824       1.44717180
15
Frame=4 idx=011586 GeodesicLength=0.32733870821314254 rxn_smarts="[C:1]([C@@:2]1([H:11])[N:3]([H:12])[C:4]([H:13])([H:14])/[C:5]1=[N:6]\[O:7][H:15])([H:8])([H:9])[H:10]>>[C:1]([C@@:2]1([H:11])[N:3]([H:12])[N:6]([O:7][H:15])[C:5]1=[C:4]([H:13])[H:14])([H:8])([H:9])[H:10]"
C       -1.71041277      -0.69287039      -0.58881099
C       -0.68747971       0.40670812      -0.31394558
N       -0.73311530       1.01333358       0.98171131
C        1.62207431       1.09867993      -0.27050119
C        0.75994038       0.02780536      -0.18617308
N        0.86928226      -1.00177899       0.64032307
O        2.14055199      -1.22641571       1.06635963
H       -2.71141842      -0.25578743      -0.61169772
H       -1.69856305      -1.45460195       0.19009060
H       -1.51844277      -1.16994264      -1.55240182
H       -0.78344433       1.14036523      -1.13919512
H       -1.70285431       1.26669173       1.18558935
H        2.61917287       1.08381249       0.15116444
H        1.43330851       1.86942812      -1.00719680
H        2.10140035      -2.10542744       1.45468391
15
Frame=5 idx=011586 GeodesicLength=0.4083354534855924 rxn_smarts="[C:1]([C@@:2]1([H:11])[N:3]([H:12])[C:4]([H:13])([H:14])/[C:5]1=[N:6]\[O:7][H:15])([H:8])([H:9])[H:10]>>[C:1]([C@@:2]1([H:11])[N:3]([H:12])[N:6]([O:7][H:15])[C:5]1=[C:4]([H:13])[H:14])([H:8])([H:9])[H:10]"
C       -1.71860683      -0.69331066      -0.59554920
C       -0.68440835       0.39604099      -0.33090058
N       -0.69117572       0.99030881       0.97674377
C        1.60671180       1.10998444      -0.26204331
C        0.76537828       0.01644713      -0.21096357
N        0.86620646      -0.99691245       0.63860999
O        2.13185125      -1.21455074       1.09128796
H       -2.71693350      -0.24945894      -0.60388531
H       -1.70689429      -1.45882518       0.17970460
H       -1.54075494      -1.16835564      -1.56290772
H       -0.79574843       1.13850379      -1.14487822
H       -1.65036241       1.25640229       1.20738968
H        2.59388872       1.11606288       0.18341660
H        1.44609299       1.85895731      -1.02792103
H        2.09475496      -2.10129402       1.46189633
15
Frame=6 idx=011586 GeodesicLength=0.48928948092781077 rxn_smarts="[C:1]([C@@:2]1([H:11])[N:3]([H:12])[C:4]([H:13])([H:14])/[C:5]1=[N:6]\[O:7][H:15])([H:8])([H:9])[H:10]>>[C:1]([C@@:2]1([H:11])[N:3]([H:12])[N:6]([O:7][H:15])[C:5]1=[C:4]([H:13])[H:14])([H:8])([H:9])[H:10]"
C       -1.72626537      -0.69366066      -0.60182222
C       -0.68143206       0.38572846      -0.34688754
N       -0.65123682       0.96795119       0.97135497
C        1.59134478       1.12050973      -0.25482614
C        0.77080329       0.00614149      -0.23349405
N        0.86332614      -0.99222168       0.63677396
O        2.12310610      -1.20357736       1.11463856
H       -2.72180989      -0.24345267      -0.59697873
H       -1.71535016      -1.46250546       0.17017967
H       -1.56136607      -1.16693306      -1.57233379
H       -0.80788980       1.13671782      -1.14937145
H       -1.59937141       1.24639596       1.22706204
H        2.56830824       1.14671716       0.21274256
H        1.45932273       1.84930567      -1.04589389
H        2.08851030      -2.09711660       1.46885605
15
Frame=7 idx=011586 GeodesicLength=0.5702809211580787 rxn_smarts="[C:1]([C@@:2]1([H:11])[N:3]([H:12])[C:4]([H:13])([H:14])/[C:5]1=[N:6]\[O:7][H:15])([H:8])([H:9])[H:10]>>[C:1]([C@@:2]1([H:11])[N:3]([H:12])[N:6]([O:7][H:15])[C:5]1=[C:4]([H:13])[H:14])([H:8])([H:9])[H:10]"
C       -1.73348882      -0.69392410      -0.60772532
C       -0.67853306       0.37570706      -0.36205631
N       -0.61301637       0.94612456       0.96563883
C        1.57604289       1.13038730      -0.24865717
C        0.77623031      -0.00332146      -0.25425772
N        0.86067620      -0.98780488       0.63465631
O        2.11438851      -1.19331960       1.13673616
H       -2.72618957      -0.23768404      -0.59080830
H       -1.72389393      -1.46574756       0.16134576
H       -1.58061925      -1.16561553      -1.58092996
H       -0.81994892       1.13504812      -1.15273993
H       -1.54965800       1.23661355       1.24495310
H        2.54254926       1.17597799       0.23952823
H        1.47288359       1.84039319      -1.06153078
H        2.08257715      -2.09283460       1.47584712
15
Frame=8 idx=011586 GeodesicLength=0.6512812238932112 rxn_smarts="[C:1]([C@@:2]1([H:11])[N:3]([H:12])[C:4]([H:13])([H:14])/[C:5]1=[N:6]\[O:7][H:15])([H:8])([H:9])[H:10]>>[C:1]([C@@:2]1([H:11])[N:3]([H:12])[N:6]([O:7][H:15])[C:5]1=[C:4]([H:13])[H:14])([H:8])([H:9])[H:10]"
C       -1.74032231      -0.69412149      -0.61328394
C       -0.67570222       0.36594758      -0.37651818
N       -0.57636438       0.92480206       0.95961703
C        1.56083331       1.13972827      -0.24337701
C        0.78165812      -0.01203137      -0.27351966
N        0.85826319      -0.98364144       0.63228394
O        2.10569049      -1.18372716       1.15767704
H       -2.73014063      -0.23216383      -0.58528935
H       -1.73250216      -1.46857844       0.15317398
H       -1.59866716      -1.16442073      -1.58877032
H       -0.83194748       1.13346544      -1.15508359
H       -1.50111151       1.22705066       1.26120477
H        2.51673957       1.20395871       0.26401359
H        1.48670439       1.83222515      -1.07501670
H        2.07686877      -2.08849340       1.48288839
15
Frame=9 idx=011586 GeodesicLength=0.732178663545399 rxn_smarts="[C:1]([C@@:2]1([H:11])[N:3]([H:12])[C:4]([H:13])([H:14])/[C:5]1=[N:6]\[O:7][H:15])([H:8])([H:9])[H:10]>>[C:1]([C@@:2]1([H:11])[N:3]([H:12])[N:6]([O:7][H:15])[C:5]1=[C:4]([H:13])[H:14])([H:8])([H:9])[H:10]"
C       -1.74680955      -0.69426078      -0.61851279
C       -0.67293157       0.35643349      -0.39033781
N       -0.54109996       0.90397246       0.95328176
C        1.54577290       1.14856716      -0.23899715
C        0.78707318      -0.02007373      -0.29145161
N        0.85612309      -0.97979414       0.62948235
O        2.09709116      -1.17480411       1.17735902
H       -2.73368769      -0.22682237      -0.58036640
H       -1.74119011      -1.47101221       0.14564371
H       -1.61566682      -1.16342180      -1.59593805
H       -0.84388600       1.13193739      -1.15654641
H       -1.45359539       1.21766212       1.27604108
H        2.49087607       1.23085170       0.28650504
H        1.50069318       1.82479076      -1.08640414
H        2.07123751      -2.08402595       1.49024140
15
Frame=10 idx=011586 GeodesicLength=0.8131483687427472 rxn_smarts="[C:1]([C@@:2]1([H:11])[N:3]([H:12])[C:4]([H:13])([H:14])/[C:5]1=[N:6]\[O:7][H:15])([H:8])([H:9])[H:10]>>[C:1]([C@@:2]1([H:11])[N:3]([H:12])[N:6]([O:7][H:15])[C:5]1=[C:4]([H:13])[H:14])([H:8])([H:9])[H:10]"
C       -1.75298624      -0.69436344      -0.62345328
C       -0.67021529       0.34712427      -0.40363201
N       -0.50714314       0.88358800       0.94670079
C        1.53081918       1.15708043      -0.23515987
C        0.79249880      -0.02753085      -0.30833625
N        0.85422126      -0.97617204       0.62646038
O        2.08849851      -1.16635961       1.19628045
H       -2.73694970      -0.22170500      -0.57594525
H       -1.74989853      -1.47310087       0.13869523
H       -1.63173366      -1.16255656      -1.60251363
H       -0.85580666       1.13046798      -1.15710894
H       -1.40708136       1.20851620       1.28950293
H        2.46511449       1.25669125       0.30718947
H        1.51487824       1.81796021      -1.09617440
H        2.06578411      -2.07963998       1.49749438
15
Frame=11 idx=011586 GeodesicLength=0.8942013899096423 rxn_smarts="[C:1]([C@@:2]1([H:11])[N:3]([H:12])[C:4]([H:13])([H:14])/[C:5]1=[N:6]\[O:7][H:15])([H:8])([H:9])[H:10]>>[C:1]([C@@:2]1([H:11])[N:3]([H:12])[N:6]([O:7][H:15])[C:5]1=[C:4]([H:13])[H:14])([H:8])([H:9])[H:10]"
C       -1.75887972      -0.69444794      -0.62812465
C       -0.66754666       0.33799962      -0.41647393
N       -0.47437578       0.86364498       0.93989016
C        1.51598144       1.16529899      -0.23182514
C        0.79793379      -0.03445990      -0.32431837
N        0.85254815      -0.97275223       0.62322595
O        2.07992933      -1.15838202       1.21446414
H       -2.73995941      -0.21678329      -0.57199143
H       -1.75862237      -1.47486382       0.13232020
H       -1.64696904      -1.16188100      -1.60855128
H       -0.86771891       1.12902558      -1.15685071
H       -1.36145802       1.19965694       1.30169753
H        2.43943863       1.28159439       0.32631192
H        1.52922172       1.81170210      -1.10441691
H        2.06047685      -2.07535240       1.50464251
15
Frame=12 idx=011586 GeodesicLength=0.9753284413806581 rxn_smarts="[C:1]([C@@:2]1([H:11])[N:3]([H:12])[C:4]([H:13])([H:14])/[C:5]1=[N:6]\[O:7][H:15])([H:8])([H:9])[H:10]>>[C:1]([C@@:2]1([H:11])[N:3]([H:12])[N:6]([O:7][H:15])[C:5]1=[C:4]([H:13])[H:14])([H:8])([H:9])[H:10]"
C       -1.76451134      -0.69452934      -0.63253108
C       -0.66492280       0.32904335      -0.42892582
N       -0.44271882       0.84415521       0.93285357
C        1.50125673       1.17325833      -0.22892963
C        0.80337508      -0.04089788      -0.33948187
N        0.85108843      -0.96950506       0.61981620
O        2.07138256      -1.15086448       1.23195059
H       -2.74274646      -0.21205686      -0.56848697
H       -1.76736464      -1.47629612       0.12652775
H       -1.66142502      -1.16144910      -1.61406019
H       -0.87961578       1.12757250      -1.15585099
H       -1.31666859       1.19115490       1.31268185
H        2.41384910       1.30564817       0.34407185
H        1.54370156       1.80598573      -1.11121581
H        2.05531997      -2.07121932       1.51158055
15
Frame=13 idx=011586 GeodesicLength=1.0565299530806214 rxn_smarts="[C:1]([C@@:2]1([H:11])[N:3]([H:12])[C:4]([H:13])([H:14])/[C:5]1=[N:6]\[O:7][H:15])([H:8])([H:9])[H:10]>>[C:1]([C@@:2]1([H:11])[N:3]([H:12])[N:6]([O:7][H:15])[C:5]1=[C:4]([H:13])[H:14])([H:8])([H:9])[H:10]"
C       -1.76990188      -0.69461189      -0.63668712
C       -0.66234269       0.32024969      -0.44103045
N       -0.41208613       0.82511127       0.92560363
C        1.48664628       1.18098784      -0.22642533
C        0.80881736      -0.04688413      -0.35392280
N        0.84983114      -0.96642080       0.61622537
O        2.06281697      -1.14376566       1.24885242
H       -2.74534844      -0.20749730      -0.56541640
H       -1.77612595      -1.47739865       0.12132618
H       -1.67515501      -1.16129755      -1.61908975
H       -0.89149412       1.12609351      -1.15416721
H       -1.27265303       1.18301979       1.32255845
H        2.38831920       1.32893943       0.36063572
H        1.55832461       1.80074503      -1.11669218
H        2.05035170      -2.06727057       1.51822950
15
Frame=14 idx=011586 GeodesicLength=1.1378096337264672 rxn_smarts="[C:1]([C@@:2]1([H:11])[N:3]([H:12])[C:4]([H:13])([H:14])/[C:5]1=[N:6]\[O:7][H:15])([H:8])([H:9])[H:10]>>[C:1]([C@@:2]1([H:11])[N:3]([H:12])[N:6]([O:7][H:15])[C:5]1=[C:4]([H:13])[H:14])([H:8])([H:9])[H:10]"
C       -1.77506411      -0.69471113      -0.64059227
C       -0.65980236       0.31160191      -0.45284510
N       -0.38242016       0.80652986       0.91813498
C        1.47213507       1.18852070      -0.22425893
C        0.81426395      -0.05244646      -0.36771379
N        0.84875783      -0.96346464       0.61250968
O        2.05425046      -1.13710056       1.26515232
H       -2.74777777      -0.20311550      -0.56276397
H       -1.78490745      -1.47816521       0.11672101
H       -1.68820363      -1.16146391      -1.62362240
H       -0.90334725       1.12454689      -1.15185900
H       -1.22935512       1.17531089       1.33132672
H        2.36286313       1.35151400       0.37613840
H        1.57306022       1.79598814      -1.12085778
H        2.04554719      -2.06354498       1.52453014
15
Frame=15 idx=011586 GeodesicLength=1.2191746503790244 rxn_smarts="[C:1]([C@@:2]1([H:11])[N:3]([H:12])[C:4]([H:13])([H:14])/[C:5]1=[N:6]\[O:7][H:15])([H:8])([H:9])[H:10]>>[C:1]([C@@:2]1([H:11])[N:3]([H:12])[N:6]([O:7][H:15])[C:5]1=[C:4]([H:13])[H:14])([H:8])([H:9])[H:10]"
C       -1.78001333      -0.69483297      -0.64425310
C       -0.65729984       0.30308977      -0.46440892
N       -0.35365442       0.78840810       0.91045619
C        1.45771986       1.19587381      -0.22239525
C        0.81971304      -0.05761690      -0.38092117
N        0.84785368      -0.96062459       0.60868268
O        2.04566321      -1.13084949       1.28091962
H       -2.75005974      -0.19889424      -0.56052258
H       -1.79371454      -1.47859035       0.11271806
H       -1.70061020      -1.16197878      -1.62767813
H       -0.91516671       1.12291126      -1.14897501
H       -1.18672155       1.16806527       1.33903400
H        2.33745226       1.37343372       0.39071380
H        1.58789929       1.79167587      -1.12377626
H        2.04093899      -2.06007048       1.53040608
15
Frame=16 idx=011586 GeodesicLength=1.3006253338700349 rxn_smarts="[C:1]([C@@:2]1([H:11])[N:3]([H:12])[C:4]([H:13])([H:14])/[C:5]1=[N:6]\[O:7][H:15])([H:8])([H:9])[H:10]>>[C:1]([C@@:2]1([H:11])[N:3]([H:12])[N:6]([O:7][H:15])[C:5]1=[C:4]([H:13])[H:14])([H:8])([H:9])[H:10]"
C       -1.78476228      -0.69498414      -0.64767478
C       -0.65483550       0.29470662      -0.47575286
N       -0.32573791       0.77075013       0.90257520
C        1.44338882       1.20307098      -0.22079402
C        0.82516141      -0.06241843      -0.39359462
N        0.84710156      -0.95788189       0.60476672
O        2.03704516      -1.12500686       1.29619336
H       -2.75221499      -0.19482303      -0.55869669
H       -1.80255398      -1.47866424       0.10933260
H       -1.71239990      -1.16288298      -1.63126554
H       -0.92694189       1.12116307      -1.14556554
H       -1.14471732       1.16132572       1.34571350
H        2.31208069       1.39473932       0.40446034
H        1.60283518       1.78778370      -1.12548228
H        2.03655097      -2.05687797       1.53578460
