14
Frame=0 idx=005418 GeodesicLength=0.0 rxn_smarts="[C:1]([C:2]([C:3]([H:11])([H:12])[H:13])([O:4][C:5](=[O:6])[H:14])[H:10])([H:7])([H:8])[H:9]>>[C:1]([C:2]([C:3]([H:11])([H:12])[H:13])([O+:4]=[C-:5][O:6][H:14])[H:10])([H:7])([H:8])[H:9]"
C        0.22535768       1.40164460       0.04092408
C       -0.24010811      -0.02244845      -0.18200607
C       -1.70947429      -0.23295720       0.10692876
O        0.47355705      -0.90705025       0.74577041
C        1.62496126      -1.39679958       0.39801612
O        2.14107633      -1.10267861      -0.74847072
H       -0.33056188       2.07695527      -0.61198381
H        0.04991391       1.70137005       1.07580741
H        1.28671466       1.50639107      -0.18192248
H        0.00053080      -0.34169638      -1.19664259
H       -1.99165730      -1.27370237      -0.05283135
H       -2.31078437       0.39308923      -0.55434966
H       -1.94043002       0.03359979       1.13979761
H        2.72090429      -1.83571718       0.02096227
14
Frame=1 idx=005418 GeodesicLength=0.026955966006421868 rxn_smarts="[C:1]([C:2]([C:3]([H:11])([H:12])[H:13])([O:4][C:5](=[O:6])[H:14])[H:10])([H:7])([H:8])[H:9]>>[C:1]([C:2]([C:3]([H:11])([H:12])[H:13])([O+:4]=[C-:5][O:6][H:14])[H:10])([H:7])([H:8])[H:9]"
C        0.22761166       1.39775776       0.04024677
C       -0.24272091      -0.02465845      -0.18351548
C       -1.71231756      -0.23053963       0.10787675
O        0.47002429      -0.91169437       0.74169885
C        1.61637801      -1.41069516       0.38872293
O        2.13981555      -1.10105161      -0.74808744
H       -0.32704816       2.07547923      -0.61125417
H        0.05392375       1.69733660       1.07548641
H        1.28908560       1.49925294      -0.18342463
H       -0.00546067      -0.34274084      -1.19935847
H       -1.99777976      -1.27042802      -0.05173686
H       -2.31282862       0.39762294      -0.55209926
H       -1.94062362       0.03612998       1.14130566
H        2.74194046      -1.81177137       0.03413894
14
Frame=2 idx=005418 GeodesicLength=0.053610330021093215 rxn_smarts="[C:1]([C:2]([C:3]([H:11])([H:12])[H:13])([O:4][C:5](=[O:6])[H:14])[H:10])([H:7])([H:8])[H:9]>>[C:1]([C:2]([C:3]([H:11])([H:12])[H:13])([O+:4]=[C-:5][O:6][H:14])[H:10])([H:7])([H:8])[H:9]"
C        0.22967827       1.39420729       0.03954587
C       -0.24504459      -0.02668582      -0.18496561
C       -1.71480026      -0.22840092       0.10882012
O        0.46701225      -0.91586935       0.73778207
C        1.60846243      -1.42365159       0.37963608
O        2.13923167      -1.09875193      -0.74723813
H       -0.32390838       2.07411116      -0.61061322
H        0.05761627       1.69364012       1.07511653
H        1.29123310       1.49277580      -0.18493032
H       -0.01097197      -0.34358680      -1.20196279
H       -2.00319206      -1.26752728      -0.05058828
H       -2.31467371       0.40163521      -0.54992826
H       -1.94059613       0.03837242       1.14277381
H        2.75995313      -1.79026828       0.04655213
14
Frame=3 idx=005418 GeodesicLength=0.08037639184051945 rxn_smarts="[C:1]([C:2]([C:3]([H:11])([H:12])[H:13])([O:4][C:5](=[O:6])[H:14])[H:10])([H:7])([H:8])[H:9]>>[C:1]([C:2]([C:3]([H:11])([H:12])[H:13])([O+:4]=[C-:5][O:6][H:14])[H:10])([H:7])([H:8])[H:9]"
C        0.23170932       1.39075813       0.03882961
C       -0.24722978      -0.02865470      -0.18643913
C       -1.71709420      -0.22639629       0.10977643
O        0.46426266      -0.91993263       0.73379693
C        1.60085689      -1.43618483       0.37042107
O        2.13888569      -1.09635475      -0.74631965
H       -0.32091440       2.07278929      -0.60993922
H        0.06129793       1.68998186       1.07475081
H        1.29331097       1.48653192      -0.18651836
H       -0.01630499      -0.34431396      -1.20458841
H       -2.00828900      -1.26478480      -0.04944199
H       -2.31641856       0.40545319      -0.54771338
H       -1.94038228       0.04042320       1.14426320
H        2.77630975      -1.76931562       0.05912209
14
Frame=4 idx=005418 GeodesicLength=0.10712871438689611 rxn_smarts="[C:1]([C:2]([C:3]([H:11])([H:12])[H:13])([O:4][C:5](=[O:6])[H:14])[H:10])([H:7])([H:8])[H:9]>>[C:1]([C:2]([C:3]([H:11])([H:12])[H:13])([O+:4]=[C-:5][O:6][H:14])[H:10])([H:7])([H:8])[H:9]"
C        0.23358342       1.38757422       0.03809510
C       -0.24921948      -0.03047341      -0.18787872
C       -1.71913879      -0.22458596       0.11073034
O        0.46188073      -0.92365474       0.72989655
C        1.59374900      -1.44795539       0.36133171
O        2.13896428      -1.09354190      -0.74509528
H       -0.31823211       2.07157524      -0.60930620
H        0.06475632       1.68656899       1.07435842
H        1.29520063       1.48079171      -0.18813804
H       -0.02131563      -0.34486415      -1.20714781
H       -2.01287877      -1.26230640      -0.04826601
H       -2.31803742       0.40890633      -0.54554536
H       -1.94001262       0.04226041       1.14572861
H        2.79070043      -1.75029495       0.07123669
14
Frame=5 idx=005418 GeodesicLength=0.13384708048748314 rxn_smarts="[C:1]([C:2]([C:3]([H:11])([H:12])[H:13])([O:4][C:5](=[O:6])[H:14])[H:10])([H:7])([H:8])[H:9]>>[C:1]([C:2]([C:3]([H:11])([H:12])[H:13])([O+:4]=[C-:5][O:6][H:14])[H:10])([H:7])([H:8])[H:9]"
C        0.23535586       1.38456594       0.03734364
C       -0.25107110      -0.03219136      -0.18931216
C       -1.72100134      -0.22291449       0.11168746
O        0.45976478      -0.92716919       0.72600611
C        1.58701629      -1.45914180       0.35226967
O        2.13932731      -1.09048572      -0.74368079
H       -0.31577704       2.07044053      -0.60867466
H        0.06810282       1.68329275       1.07395606
H        1.29695740       1.47539922      -0.18982268
H       -0.02611191      -0.34527969      -1.20968372
H       -2.01711716      -1.26000934      -0.04708000
H       -2.31956974       0.41211661      -0.54338113
H       -1.93950673       0.04392551       1.14719065
H        2.80363055      -1.73254898       0.08318156
14
Frame=6 idx=005418 GeodesicLength=0.16055989015052433 rxn_smarts="[C:1]([C:2]([C:3]([H:11])([H:12])[H:13])([O:4][C:5](=[O:6])[H:14])[H:10])([H:7])([H:8])[H:9]>>[C:1]([C:2]([C:3]([H:11])([H:12])[H:13])([O+:4]=[C-:5][O:6][H:14])[H:10])([H:7])([H:8])[H:9]"
C        0.23705980       1.38167834       0.03657449
C       -0.25282060      -0.03384024      -0.19075627
C       -1.72272401      -0.22134867       0.11265135
O        0.45785001      -0.93056008       0.72207982
C        1.58058964      -1.46984803       0.34318138
O        2.13989312      -1.08728357      -0.74214443
H       -0.31349311       2.06936675      -0.60802710
H        0.07140010       1.68008923       1.07355047
H        1.29861601       1.47026007      -0.19158662
H       -0.03076050      -0.34558864      -1.21222155
H       -2.02110232      -1.25784410      -0.04589477
H       -2.32103963       0.41516305      -0.54119003
H       -1.93887737       0.04544255       1.14866199
H        2.81540884      -1.71568666       0.09512126
14
Frame=7 idx=005418 GeodesicLength=0.18728636543328764 rxn_smarts="[C:1]([C:2]([C:3]([H:11])([H:12])[H:13])([O:4][C:5](=[O:6])[H:14])[H:10])([H:7])([H:8])[H:9]>>[C:1]([C:2]([C:3]([H:11])([H:12])[H:13])([O+:4]=[C-:5][O:6][H:14])[H:10])([H:7])([H:8])[H:9]"
C        0.23873033       1.37885519       0.03578645
C       -0.25449790      -0.03545071      -0.19223016
C       -1.72434042      -0.21985863       0.11362520
O        0.45607944      -0.93390590       0.71807203
C        1.57440873      -1.48017058       0.33401722
O        2.14058883      -1.08403721      -0.74055246
H       -0.31132909       2.06833487      -0.60733922
H        0.07471850       1.67688489       1.07315025
H        1.30021023       1.46528092      -0.19345248
H       -0.03531957      -0.34581761      -1.21478700
H       -2.02492184      -1.25576186      -0.04472562
H       -2.32246691       0.41811729      -0.53894116
H       -1.93812522       0.04682826       1.15015553
H        2.82626489      -1.69929891       0.10722142
14
Frame=8 idx=005418 GeodesicLength=0.21399434269544665 rxn_smarts="[C:1]([C:2]([C:3]([H:11])([H:12])[H:13])([O:4][C:5](=[O:6])[H:14])[H:10])([H:7])([H:8])[H:9]>>[C:1]([C:2]([C:3]([H:11])([H:12])[H:13])([O+:4]=[C-:5][O:6][H:14])[H:10])([H:7])([H:8])[H:9]"
C        0.24026221       1.37623906       0.03498116
C       -0.25605909      -0.03693992      -0.19368131
C       -1.72580333      -0.21849139       0.11459742
O        0.45454674      -0.93699517       0.71412290
C        1.56857484      -1.48989814       0.32494514
O        2.14154465      -1.08049858      -0.73872009
H       -0.30941289       2.06739434      -0.60669026
H        0.07784560       1.67387653       1.07272299
H        1.30164396       1.46068377      -0.19534419
H       -0.03967817      -0.34590787      -1.21730483
H       -2.02840763      -1.25385323      -0.04352763
H       -2.32383378       0.42082872      -0.53672033
H       -1.93728503       0.04807915       1.15163011
H        2.83606191      -1.68451727       0.11898890
14
Frame=9 idx=005418 GeodesicLength=0.2406921745583032 rxn_smarts="[C:1]([C:2]([C:3]([H:11])([H:12])[H:13])([O:4][C:5](=[O:6])[H:14])[H:10])([H:7])([H:8])[H:9]>>[C:1]([C:2]([C:3]([H:11])([H:12])[H:13])([O+:4]=[C-:5][O:6][H:14])[H:10])([H:7])([H:8])[H:9]"
C        0.24170393       1.37376236       0.03415723
C       -0.25753907      -0.03834791      -0.19513201
C       -1.72715484      -0.21721312       0.11557386
O        0.45318408      -0.93992878       0.71017625
C        1.56300731      -1.49916464       0.31589140
O        2.14267170      -1.07680249      -0.73673541
H       -0.30767423       2.06652169      -0.60605419
H        0.08087171       1.67098041       1.07228104
H        1.30296603       1.45635252      -0.19729111
H       -0.04390632      -0.34589366      -1.21980951
H       -2.03166741      -1.25206303      -0.04232973
H       -2.32516289       0.42339058      -0.53448215
H       -1.93635926       0.04920389       1.15310903
H        2.84505924      -1.67079781       0.13064531
14
Frame=10 idx=005418 GeodesicLength=0.2673910396164211 rxn_smarts="[C:1]([C:2]([C:3]([H:11])([H:12])[H:13])([O:4][C:5](=[O:6])[H:14])[H:10])([H:7])([H:8])[H:9]>>[C:1]([C:2]([C:3]([H:11])([H:12])[H:13])([O+:4]=[C-:5][O:6][H:14])[H:10])([H:7])([H:8])[H:9]"
C        0.24308811       1.37137592       0.03331507
C       -0.25896064      -0.03970174      -0.19659732
C       -1.72842002      -0.21600091       0.11655779
O        0.45194646      -0.94277798       0.70619003
C        1.55765440      -1.50805942       0.30680474
O        2.14391050      -1.07303276      -0.73465941
H       -0.30607026       2.06570228      -0.60540232
H        0.08386569       1.66813224       1.07183407
H        1.30420696       1.45220505      -0.19931365
H       -0.04805204      -0.34579595      -1.22232268
H       -2.03476834      -1.25035474      -0.04113631
H       -2.32646458       0.42585300      -0.53221030
H       -1.93534836       0.05022452       1.15460009
H        2.85341214      -1.65776949       0.14234021
14
Frame=11 idx=005418 GeodesicLength=0.2940994506047239 rxn_smarts="[C:1]([C:2]([C:3]([H:11])([H:12])[H:13])([O:4][C:5](=[O:6])[H:14])[H:10])([H:7])([H:8])[H:9]>>[C:1]([C:2]([C:3]([H:11])([H:12])[H:13])([O+:4]=[C-:5][O:6][H:14])[H:10])([H:7])([H:8])[H:9]"
C        0.24444562       1.36903390       0.03245400
C       -0.26034217      -0.04102776      -0.19809201
C       -1.72961901      -0.21483501       0.11755331
O        0.45079532      -0.94560903       0.70212448
C        1.55248154      -1.51665205       0.29764561
O        2.14521298      -1.06926093      -0.73254853
H       -0.30455549       2.06491677      -0.60471893
H        0.08688284       1.66527620       1.07138759
H        1.30539759       1.44816928      -0.20142204
H       -0.05215683      -0.34563844      -1.22486437
H       -2.03777299      -1.24869388      -0.03995842
H       -2.32774747       0.42826792      -0.52987940
H       -1.93424901       0.05114946       1.15611481
H        2.86122708      -1.64509642       0.15420389
14
Frame=12 idx=005418 GeodesicLength=0.32084011497371856 rxn_smarts="[C:1]([C:2]([C:3]([H:11])([H:12])[H:13])([O:4][C:5](=[O:6])[H:14])[H:10])([H:7])([H:8])[H:9]>>[C:1]([C:2]([C:3]([H:11])([H:12])[H:13])([O+:4]=[C-:5][O:6][H:14])[H:10])([H:7])([H:8])[H:9]"
C        0.24580337       1.36670322       0.03157563
C       -0.26169795      -0.04234797      -0.19962953
C       -1.73077487      -0.21370063       0.11856243
O        0.44970233      -0.94847537       0.69794703
C        1.54746966      -1.52500242       0.28837977
O        2.14655680      -1.06554649      -0.73045006
H       -0.30310129       2.06415600      -0.60397979
H        0.08997754       1.66237022       1.07095420
H        1.30656775       1.44419050      -0.20363412
H       -0.05624990      -0.34544227      -1.22745562
H       -2.04073632      -1.24705944      -0.03879867
H       -2.32902750       0.43067024      -0.52747631
H       -1.93306844       0.05199660       1.15766183
H        2.86857882      -1.63251220       0.16634324
14
Frame=13 idx=005418 GeodesicLength=0.3475896901885544 rxn_smarts="[C:1]([C:2]([C:3]([H:11])([H:12])[H:13])([O:4][C:5](=[O:6])[H:14])[H:10])([H:7])([H:8])[H:9]>>[C:1]([C:2]([C:3]([H:11])([H:12])[H:13])([O+:4]=[C-:5][O:6][H:14])[H:10])([H:7])([H:8])[H:9]"
C        0.24716381       1.36436817       0.03067483
C       -0.26303066      -0.04366733      -0.20121196
C       -1.73187882      -0.21259457       0.11958559
O        0.44865097      -0.95138848       0.69365349
C        1.54260896      -1.53310798       0.27901945
O        2.14792096      -1.06188143      -0.72836218
H       -0.30170106       2.06341092      -0.60318119
H        0.09316456       1.65938558       1.07052708
H        1.30770911       1.44025289      -0.20596376
H       -0.06033649      -0.34520700      -1.23009369
H       -2.04365814      -1.24543782      -0.03766275
H       -2.33028789       0.43307471      -0.52499117
H       -1.93179300       0.05275857       1.15923869
H        2.87546769      -1.61996622       0.17876756
14
Frame=14 idx=005418 GeodesicLength=0.3743424323604917 rxn_smarts="[C:1]([C:2]([C:3]([H:11])([H:12])[H:13])([O:4][C:5](=[O:6])[H:14])[H:10])([H:7])([H:8])[H:9]>>[C:1]([C:2]([C:3]([H:11])([H:12])[H:13])([O+:4]=[C-:5][O:6][H:14])[H:10])([H:7])([H:8])[H:9]"
C        0.24849256       1.36207958       0.02975091
C       -0.26432631      -0.04495519      -0.20281986
C       -1.73291153      -0.21153318       0.12062027
O        0.44767437      -0.95427295       0.68929277
C        1.53789336      -1.54094116       0.26958838
O        2.14934197      -1.05817821      -0.72621537
H       -0.30039648       2.06270456      -0.60234705
H        0.09637406       1.65639073       1.07009165
H        1.30878750       1.43642945      -0.20838714
H       -0.06438544      -0.34490607      -1.23275098
H       -2.04646997      -1.24386567      -0.03651931
H       -2.33151743       0.43541871      -0.52246348
H       -1.93042789       0.05344286       1.16082825
H        2.88187123      -1.60781346       0.19133097
14
Frame=15 idx=005418 GeodesicLength=0.4010955643772253 rxn_smarts="[C:1]([C:2]([C:3]([H:11])([H:12])[H:13])([O:4][C:5](=[O:6])[H:14])[H:10])([H:7])([H:8])[H:9]>>[C:1]([C:2]([C:3]([H:11])([H:12])[H:13])([O+:4]=[C-:5][O:6][H:14])[H:10])([H:7])([H:8])[H:9]"
C        0.24977804       1.35985299       0.02880993
C       -0.26558631      -0.04620514      -0.20444382
C       -1.73388868      -0.21051406       0.12166144
O        0.44678061      -0.95710478       0.68488887
C        1.53336280      -1.54847043       0.26013480
O        2.15082689      -1.05445597      -0.72401027
H       -0.29919689       2.06203772      -0.60149408
H        0.09957060       1.65342062       1.06964999
H        1.30980435       1.43273396      -0.21087909
H       -0.06838940      -0.34454685      -1.23541794
H       -2.04918073      -1.24234412      -0.03538224
H       -2.33273827       0.43770282      -0.51990002
H       -1.92900077       0.05405444       1.16242765
H        2.88785774      -1.59616121       0.20395477
14
Frame=16 idx=005418 GeodesicLength=0.42783617650711003 rxn_smarts="[C:1]([C:2]([C:3]([H:11])([H:12])[H:13])([O:4][C:5](=[O:6])[H:14])[H:10])([H:7])([H:8])[H:9]>>[C:1]([C:2]([C:3]([H:11])([H:12])[H:13])([O+:4]=[C-:5][O:6][H:14])[H:10])([H:7])([H:8])[H:9]"
C        0.25099023       1.35773358       0.02785355
C       -0.26679926      -0.04738969      -0.20606301
C       -1.73479580      -0.20955159       0.12270780
O        0.44599551      -0.95981498       0.68049178
C        1.52900241      -1.55567248       0.25068008
O        2.15239750      -1.05064278      -0.72169070
H       -0.29813168       2.06142554      -0.60065269
H        0.10268310       1.65054218       1.06919078
H        1.31073271       1.42923030      -0.21340700
H       -0.07232044      -0.34410468      -1.23806919
H       -2.05173600      -1.24090443      -0.03422064
H       -2.33393855       0.43986737      -0.51734268
H       -1.92752625       0.05460489       1.16402257
H        2.89344652      -1.58532321       0.21649934
