16
Frame=0 idx=000492 GeodesicLength=0.0 rxn_smarts="[C:1]([C@@:2]1([H:10])[C:3]([H:11])([H:12])[C@:4]([C:5]([H:14])([H:15])[H:16])([H:13])[O:6]1)([H:7])([H:8])[H:9]>>[C:1]([C@@:2]([C:3]([C:4][H:13])([H:11])[H:12])([O:6][C:5]([H:14])([H:15])[H:16])[H:10])([H:7])([H:8])[H:9]"
C        1.49624234       0.98400817       0.23001956
C        0.82445135      -0.17539279      -0.45728792
C        0.27514767      -1.33128776       0.37430805
C       -1.06753382      -1.15982195      -0.34348819
C       -1.67910915       0.72382567       0.07962953
O       -0.47001450       0.14492649      -1.05027939
H        1.63948092       1.81783022      -0.45984526
H        0.91453412       1.32752299       1.08719784
H        2.47575143       0.66772536       0.59424276
H        1.43460581      -0.52372955      -1.29724717
H        0.79664709      -2.27983492       0.24250873
H        0.23293852      -1.11164004       1.44808951
H       -1.21934448      -1.88337712      -1.15082632
H       -1.66291816       0.47561861       1.13602261
H       -1.33401729       1.75392129      -0.08047493
H       -2.65686190       0.56970533      -0.35256942
16
Frame=1 idx=000492 GeodesicLength=0.029256446341103005 rxn_smarts="[C:1]([C@@:2]1([H:10])[C:3]([H:11])([H:12])[C@:4]([C:5]([H:14])([H:15])[H:16])([H:13])[O:6]1)([H:7])([H:8])[H:9]>>[C:1]([C@@:2]([C:3]([C:4][H:13])([H:11])[H:12])([O:6][C:5]([H:14])([H:15])[H:16])[H:10])([H:7])([H:8])[H:9]"
C        1.50339516       0.98336951       0.22623070
C        0.82750185      -0.17555977      -0.45778886
C        0.27664802      -1.32815120       0.37677790
C       -1.06557878      -1.15553330      -0.34150877
C       -1.68670747       0.71651922       0.07991951
O       -0.46746251       0.14721582      -1.04859747
H        1.64666955       1.81613616      -0.46489104
H        0.92558219       1.32907321       1.08510298
H        2.48346644       0.66533071       0.58752652
H        1.43543520      -0.52769361      -1.29769251
H        0.79493667      -2.27867778       0.24688485
H        0.23506801      -1.10518652       1.44963364
H       -1.21724006      -1.87640302      -1.15118311
H       -1.69018420       0.46685418       1.13653826
H       -1.34207277       1.74953960      -0.05861713
H       -2.65945729       0.57316679      -0.36833545
16
Frame=2 idx=000492 GeodesicLength=0.05845810520291398 rxn_smarts="[C:1]([C@@:2]1([H:10])[C:3]([H:11])([H:12])[C@:4]([C:5]([H:14])([H:15])[H:16])([H:13])[O:6]1)([H:7])([H:8])[H:9]>>[C:1]([C@@:2]([C:3]([C:4][H:13])([H:11])[H:12])([O:6][C:5]([H:14])([H:15])[H:16])[H:10])([H:7])([H:8])[H:9]"
C        1.51062949       0.98273179       0.22235703
C        0.83055340      -0.17570529      -0.45828788
C        0.27812710      -1.32491847       0.37931448
C       -1.06362089      -1.15121825      -0.33952830
C       -1.69432552       0.70919902       0.08025634
O       -0.46492923       0.14959358      -1.04682116
H        1.65391336       1.81442181      -0.47004890
H        0.93682155       1.33068520       1.08294425
H        2.49125623       0.66289509       0.58067335
H        1.43618993      -0.53167834      -1.29814891
H        0.79320081      -2.27742008       0.25141711
H        0.23714341      -1.09855230       1.45121464
H       -1.21508096      -1.86940783      -1.15152767
H       -1.71797673       0.45763421       1.13662599
H       -1.35021836       1.74475817      -0.03631800
H       -2.66168358       0.57698170      -0.38412237
16
Frame=3 idx=000492 GeodesicLength=0.08757709358530288 rxn_smarts="[C:1]([C@@:2]1([H:10])[C:3]([H:11])([H:12])[C@:4]([C:5]([H:14])([H:15])[H:16])([H:13])[O:6]1)([H:7])([H:8])[H:9]>>[C:1]([C@@:2]([C:3]([C:4][H:13])([H:11])[H:12])([O:6][C:5]([H:14])([H:15])[H:16])[H:10])([H:7])([H:8])[H:9]"
C        1.51793270       0.98209344       0.21840722
C        0.83360555      -0.17583085      -0.45878444
C        0.27958812      -1.32159549       0.38191148
C       -1.06166218      -1.14687513      -0.33753993
C       -1.70195379       0.70187207       0.08063413
O       -0.46241295       0.15205151      -1.04495666
H        1.66119567       1.81269060      -0.47530372
H        0.94823476       1.33235247       1.08072661
H        2.49910456       0.66042089       0.57370230
H        1.43687474      -0.53567867      -1.29861296
H        0.79144136      -2.27606647       0.25608809
H        0.23917049      -1.09175197       1.45282663
H       -1.21287980      -1.86239318      -1.15184795
H       -1.74623721       0.44799375       1.13625587
H       -1.35846478       1.73956232      -0.01363260
H       -2.66353725       0.58115473      -0.39987406
16
Frame=4 idx=000492 GeodesicLength=0.11658441193379016 rxn_smarts="[C:1]([C@@:2]1([H:10])[C:3]([H:11])([H:12])[C@:4]([C:5]([H:14])([H:15])[H:16])([H:13])[O:6]1)([H:7])([H:8])[H:9]>>[C:1]([C@@:2]([C:3]([C:4][H:13])([H:11])[H:12])([O:6][C:5]([H:14])([H:15])[H:16])[H:10])([H:7])([H:8])[H:9]"
C        1.52529198       0.98145271       0.21439244
C        0.83665825      -0.17593806      -0.45927809
C        0.28103479      -1.31818994       0.38456158
C       -1.05970548      -1.14250232      -0.33553613
C       -1.70958278       0.69454610       0.08104585
O       -0.45991230       0.15457985      -1.04301160
H        1.66849919       1.81094728      -0.48063685
H        0.95980292       1.33406600       1.07845888
H        2.50699611       0.65791140       0.56663456
H        1.43749596      -0.53968813      -1.29908221
H        0.78966029      -2.27462331       0.26087707
H        0.24115650      -1.08480395       1.45446381
H       -1.21065159      -1.85536108      -1.15213101
H       -1.77489612       0.43797863       1.13539811
H       -1.36682714       1.73394044       0.00937135
H       -2.66502059       0.58568440      -0.41552776
16
Frame=5 idx=000492 GeodesicLength=0.14545727350743673 rxn_smarts="[C:1]([C@@:2]1([H:10])[C:3]([H:11])([H:12])[C@:4]([C:5]([H:14])([H:15])[H:16])([H:13])[O:6]1)([H:7])([H:8])[H:9]>>[C:1]([C@@:2]([C:3]([C:4][H:13])([H:11])[H:12])([O:6][C:5]([H:14])([H:15])[H:16])[H:10])([H:7])([H:8])[H:9]"
C        1.53269593       0.98081008       0.21032398
C        0.83971205      -0.17602851      -0.45976942
C        0.28247097      -1.31471199       0.38725758
C       -1.05775571      -1.13810034      -0.33350821
C       -1.71720178       0.68722907       0.08148357
O       -0.45742549       0.15716712      -1.04099678
H        1.67580745       1.80920061      -0.48603011
H        0.97150836       1.33581741       1.07615056
H        2.51491776       0.65537333       0.55949192
H        1.43806075      -0.54369961      -1.29955581
H        0.78785921      -2.27309985       0.26576209
H        0.24311051      -1.07773044       1.45612270
H       -1.20841604      -1.84831716      -1.15236302
H       -1.80388707       0.42763575       1.13403360
H       -1.37532105       1.72788497       0.03262672
H       -2.66613585       0.59056954      -0.43102939
16
Frame=6 idx=000492 GeodesicLength=0.17416255045843437 rxn_smarts="[C:1]([C@@:2]1([H:10])[C:3]([H:11])([H:12])[C@:4]([C:5]([H:14])([H:15])[H:16])([H:13])[O:6]1)([H:7])([H:8])[H:9]>>[C:1]([C@@:2]([C:3]([C:4][H:13])([H:11])[H:12])([O:6][C:5]([H:14])([H:15])[H:16])[H:10])([H:7])([H:8])[H:9]"
C        1.54013366       0.98016453       0.20621920
C        0.84276800      -0.17610341      -0.46025818
C        0.28390017      -1.31117372       0.38999043
C       -1.05581807      -1.13366827      -0.33144943
C       -1.72480239       0.67992950       0.08193784
O       -0.45495240       0.15980156      -1.03892338
H        1.68310734       1.80745890      -0.49145799
H        0.98333124       1.33759470       1.07382037
H        2.52285790       0.65281166       0.55230309
H        1.43857892      -0.54770316      -1.30003442
H        0.78603815      -2.27150770       0.27071673
H        0.24504177      -1.07055826       1.45779897
H       -1.20619318      -1.84126409      -1.15253283
H       -1.83311017       0.41703488       1.13213196
H       -1.38397570       1.72139245       0.05603285
H       -2.66690524       0.59579043      -0.44629522
16
Frame=7 idx=000492 GeodesicLength=0.20265152437510145 rxn_smarts="[C:1]([C@@:2]1([H:10])[C:3]([H:11])([H:12])[C@:4]([C:5]([H:14])([H:15])[H:16])([H:13])[O:6]1)([H:7])([H:8])[H:9]>>[C:1]([C@@:2]([C:3]([C:4][H:13])([H:11])[H:12])([O:6][C:5]([H:14])([H:15])[H:16])[H:10])([H:7])([H:8])[H:9]"
C        1.54756808       0.97950921       0.20208898
C        0.84581010      -0.17616208      -0.46074173
C        0.28532428      -1.30758131       0.39274434
C       -1.05389213      -1.12920533      -0.32935257
C       -1.73238819       0.67265176       0.08240950
O       -0.45249742       0.16247966      -1.03678680
H        1.69036159       1.80571904      -0.49689426
H        0.99522840       1.33938607       1.07146156
H        2.53076739       0.65021760       0.54509028
H        1.43903697      -0.55168768      -1.30050663
H        0.78420601      -2.26984654       0.27570607
H        0.24695274      -1.06331020       1.45947250
H       -1.20398597      -1.83420267      -1.15262826
H       -1.86243725       0.40625478       1.12977966
H       -1.39270803       1.71452278       0.07952596
H       -2.66734660       0.60125492      -0.46136858
16
Frame=8 idx=000492 GeodesicLength=0.2309637602961501 rxn_smarts="[C:1]([C@@:2]1([H:10])[C:3]([H:11])([H:12])[C@:4]([C:5]([H:14])([H:15])[H:16])([H:13])[O:6]1)([H:7])([H:8])[H:9]>>[C:1]([C@@:2]([C:3]([C:4][H:13])([H:11])[H:12])([O:6][C:5]([H:14])([H:15])[H:16])[H:10])([H:7])([H:8])[H:9]"
C        1.55502586       0.97884947       0.19793098
C        0.84885138      -0.17620511      -0.46122311
C        0.28674313      -1.30393249       0.39553021
C       -1.05198099      -1.12471197      -0.32721965
C       -1.73995709       0.66539274       0.08288923
O       -0.45005759       0.16519903      -1.03459873
H        1.69760086       1.80398443      -0.50235328
H        1.00722344       1.34119548       1.06908357
H        2.53868171       0.64759882       0.53784990
H        1.43945015      -0.55566030      -1.30098182
H        0.78235637      -2.26811811       0.28075282
H        0.24884759      -1.05597272       1.46115861
H       -1.20180087      -1.82713514      -1.15265288
H       -1.89192032       0.39525694       1.12687052
H       -1.40160215       1.70721667       0.10311763
H       -2.66746147       0.60704224      -0.47615400
16
Frame=9 idx=000492 GeodesicLength=0.2591369428806014 rxn_smarts="[C:1]([C@@:2]1([H:10])[C:3]([H:11])([H:12])[C@:4]([C:5]([H:14])([H:15])[H:16])([H:13])[O:6]1)([H:7])([H:8])[H:9]>>[C:1]([C@@:2]([C:3]([C:4][H:13])([H:11])[H:12])([O:6][C:5]([H:14])([H:15])[H:16])[H:10])([H:7])([H:8])[H:9]"
C        1.56250858       0.97818464       0.19373241
C        0.85188993      -0.17623377      -0.46170127
C        0.28815639      -1.30021899       0.39835577
C       -1.05007965      -1.12018565      -0.32504854
C       -1.74751056       0.65815005       0.08338128
O       -0.44763002       0.16796539      -1.03235057
H        1.70482337       1.80224902      -0.50785179
H        1.01932398       1.34302854       1.06666845
H        2.54660365       0.64495322       0.53055703
H        1.43980926      -0.55963249      -1.30145515
H        0.78049165      -2.26631482       0.28587738
H        0.25072651      -1.04852800       1.46286036
H       -1.19962692      -1.82005627      -1.15260711
H       -1.92161361       0.38400049       1.12339166
H       -1.41065149       1.69944559       0.12687966
H       -2.66722109       0.61319304      -0.49068955
16
Frame=10 idx=000492 GeodesicLength=0.2871849138312803 rxn_smarts="[C:1]([C@@:2]1([H:10])[C:3]([H:11])([H:12])[C@:4]([C:5]([H:14])([H:15])[H:16])([H:13])[O:6]1)([H:7])([H:8])[H:9]>>[C:1]([C@@:2]([C:3]([C:4][H:13])([H:11])[H:12])([O:6][C:5]([H:14])([H:15])[H:16])[H:10])([H:7])([H:8])[H:9]"
C        1.57001980       0.97751471       0.18948734
C        0.85492311      -0.17624634      -0.46217434
C        0.28956238      -1.29643456       0.40122812
C       -1.04818726      -1.11563019      -0.32284153
C       -1.75506188       0.65090797       0.08389740
O       -0.44521982       0.17078516      -1.03003216
H        1.71203799       1.80050682      -0.51340176
H        1.03153602       1.34489023       1.06420835
H        2.55453688       0.64227827       0.52320125
H        1.44010670      -0.56360702      -1.30192569
H        0.77861416      -2.26442862       0.29109434
H        0.25258679      -1.04096234       1.46458261
H       -1.19745514      -1.81296364      -1.15250078
H       -1.95153202       0.37247299       1.11931436
H       -1.41984097       1.69118748       0.15084306
H       -2.66662675       0.61972909      -0.50498058
16
Frame=11 idx=000492 GeodesicLength=0.3151387393709583 rxn_smarts="[C:1]([C@@:2]1([H:10])[C:3]([H:11])([H:12])[C@:4]([C:5]([H:14])([H:15])[H:16])([H:13])[O:6]1)([H:7])([H:8])[H:9]>>[C:1]([C@@:2]([C:3]([C:4][H:13])([H:11])[H:12])([O:6][C:5]([H:14])([H:15])[H:16])[H:10])([H:7])([H:8])[H:9]"
C        1.57756811       0.97684086       0.18518465
C        0.85795018      -0.17624166      -0.46264245
C        0.29095751      -1.29256945       0.40415646
C       -1.04630177      -1.11104397      -0.32059971
C       -1.76261866       0.64365968       0.08444038
O       -0.44282762       0.17366695      -1.02763630
H        1.71926475       1.79874679      -0.51902679
H        1.04387014       1.34679334       1.06168665
H        2.56248825       0.63956910       0.51577194
H        1.44033666      -0.56759005      -1.30239296
H        0.77671804      -2.26245149       0.29642551
H        0.25442532      -1.03325407       1.46633071
H       -1.19527535      -1.80585177      -1.15233818
H       -1.98171392       0.36063158       1.11460080
H       -1.42918442       1.68241048       0.17507230
H       -2.66565724       0.62668367      -0.51903302
16
Frame=12 idx=000492 GeodesicLength=0.342967389140282 rxn_smarts="[C:1]([C@@:2]1([H:10])[C:3]([H:11])([H:12])[C@:4]([C:5]([H:14])([H:15])[H:16])([H:13])[O:6]1)([H:7])([H:8])[H:9]>>[C:1]([C@@:2]([C:3]([C:4][H:13])([H:11])[H:12])([O:6][C:5]([H:14])([H:15])[H:16])[H:10])([H:7])([H:8])[H:9]"
C        1.58513861       0.97616304       0.18084197
C        0.86096901      -0.17622065      -0.46310336
C        0.29234393      -1.28863701       0.40712889
C       -1.04442941      -1.10642822      -0.31831822
C       -1.77017788       0.63641309       0.08499803
O       -0.44045257       0.17659903      -1.02517285
H        1.72649046       1.79697802      -0.52469838
H        1.05630161       1.34872563       1.05912023
H        2.57044209       0.63683067       0.50829091
H        1.44050688      -0.57157007      -1.30285450
H        0.77480313      -2.26039625       0.30184062
H        0.25624545      -1.02543371       1.46809813
H       -1.19310359      -1.79872705      -1.15211238
H       -2.01204221       0.34855851       1.10927125
H       -1.43869051       1.67313742       0.19946517
H       -2.66434499       0.63400755      -0.53279552
16
Frame=13 idx=000492 GeodesicLength=0.3706983162661742 rxn_smarts="[C:1]([C@@:2]1([H:10])[C:3]([H:11])([H:12])[C@:4]([C:5]([H:14])([H:15])[H:16])([H:13])[O:6]1)([H:7])([H:8])[H:9]>>[C:1]([C@@:2]([C:3]([C:4][H:13])([H:11])[H:12])([O:6][C:5]([H:14])([H:15])[H:16])[H:10])([H:7])([H:8])[H:9]"
C        1.59273431       0.97547873       0.17644800
C        0.86397926      -0.17618353      -0.46355389
C        0.29372345      -1.28462831       0.41015379
C       -1.04256512      -1.10178154      -0.31599663
C       -1.77774256       0.62915892       0.08557387
O       -0.43809535       0.17958748      -1.02263242
H        1.73371472       1.79519144      -0.53043282
H        1.06883881       1.35068703       1.05649394
H        2.57840415       0.63406004       0.50073917
H        1.44061255      -0.57555388      -1.30330155
H        0.77287178      -2.25825351       0.30736267
H        0.25804802      -1.01748434       1.46988653
H       -1.19092821      -1.79158013      -1.15182616
H       -2.04255572       0.33622879       1.10327382
H       -1.44836772       1.66332048       0.22407144
H       -2.66267240       0.64175233      -0.54625974
16
Frame=14 idx=000492 GeodesicLength=0.39830545226322384 rxn_smarts="[C:1]([C@@:2]1([H:10])[C:3]([H:11])([H:12])[C@:4]([C:5]([H:14])([H:15])[H:16])([H:13])[O:6]1)([H:7])([H:8])[H:9]>>[C:1]([C@@:2]([C:3]([C:4][H:13])([H:11])[H:12])([O:6][C:5]([H:14])([H:15])[H:16])[H:10])([H:7])([H:8])[H:9]"
C        1.60034320       0.97478935       0.17201889
C        0.86697905      -0.17613159      -0.46399631
C        0.29509621      -1.28055616       0.41322222
C       -1.04071596      -1.09710551      -0.31362700
C       -1.78530862       0.62190833       0.08615499
O       -0.43575538       0.18261905      -1.02002930
H        1.74092161       1.79340251      -0.53620235
H        1.08146137       1.35266700       1.05382676
H        2.58636190       0.63126175       0.49313605
H        1.44066069      -0.57953452      -1.30373807
H        0.77092389      -2.25603526       0.31296211
H        0.25984093      -1.00943170       1.47169350
H       -1.18876953      -1.78442322      -1.15146495
H       -2.07315534       0.32370548       1.09662620
H       -1.45822473       1.65298522       0.24880403
H       -2.66065929       0.64987929      -0.55938677
16
Frame=15 idx=000492 GeodesicLength=0.42581828095105 rxn_smarts="[C:1]([C@@:2]1([H:10])[C:3]([H:11])([H:12])[C@:4]([C:5]([H:14])([H:15])[H:16])([H:13])[O:6]1)([H:7])([H:8])[H:9]>>[C:1]([C@@:2]([C:3]([C:4][H:13])([H:11])[H:12])([O:6][C:5]([H:14])([H:15])[H:16])[H:10])([H:7])([H:8])[H:9]"
C        1.60797168       0.97409425       0.16754447
C        0.86996718      -0.17606354      -0.46442858
C        0.29646139      -1.27641047       0.41634313
C       -1.03887901      -1.09240087      -0.31121119
C       -1.79288448       0.61464893       0.08674556
O       -0.43343489       0.18570020      -1.01735447
H        1.74812377       1.79160021      -0.54202571
H        1.09418027       1.35467346       1.05110446
H        2.59432213       0.62843114       0.48546565
H        1.44064385      -0.58351701      -1.30416063
H        0.76896200      -2.25372990       0.31866116
H        0.26162163      -1.00125438       1.47352321
H       -1.18661688      -1.77725321      -1.15103390
H       -2.10388020       0.31096193       1.08928242
H       -1.46826709       1.64208371       0.27371759
H       -2.65829135       0.65843556      -0.57217320
16
Frame=16 idx=000492 GeodesicLength=0.45326730949194 rxn_smarts="[C:1]([C@@:2]1([H:10])[C:3]([H:11])([H:12])[C@:4]([C:5]([H:14])([H:15])[H:16])([H:13])[O:6]1)([H:7])([H:8])[H:9]>>[C:1]([C@@:2]([C:3]([C:4][H:13])([H:11])[H:12])([O:6][C:5]([H:14])([H:15])[H:16])[H:10])([H:7])([H:8])[H:9]"
C        1.61562997       0.97339358       0.16301298
C        0.87294333      -0.17597843      -0.46484981
C        0.29781452      -1.27218018       0.41952675
C       -1.03705263      -1.08766618      -0.30875275
C       -1.80048111       0.60737279       0.08734737
O       -0.43113393       0.18884190      -1.01459835
H        1.75533770       1.78977470      -0.54792578
H        1.10701040       1.35671557       1.04831288
H        2.60229455       0.62556318       0.47771098
H        1.44055492      -0.58750828      -1.30456906
H        0.76698106      -2.25132811       0.32448699
H        0.26338098      -0.99292810       1.47538183
H       -1.18445547      -1.77006497      -1.15054203
H       -2.13476595       0.29796365       1.08120190
H       -1.47850451       1.63057655       0.29887658
H       -2.65555382       0.66745233      -0.58462050
