11
Frame=0 idx=005115 GeodesicLength=0.0 rxn_smarts="[C:1]1([H:6])([H:7])[C:2]([H:8])([H:9])[O:3][C:4]([H:10])([H:11])[O:5]1>>[C:1]([O:5][C:4]([O+:3]=[C-:2][H:9])([H:10])[H:11])([H:6])([H:7])[H:8]"
C        0.58782991       1.03418168       0.06291914
C        0.96557755      -1.09499627      -0.24754190
O       -0.27030417      -1.22086500      -0.77747613
C       -1.20199223      -0.39678107      -0.11830063
O       -0.72933388       0.91009102      -0.30055494
H        1.03552342       1.86768206      -0.47755294
H        0.77077939       1.08792714       1.13669636
H        1.35573967       0.09802552      -0.48084944
H        0.90381994      -1.15237668       0.85593888
H       -2.17269842      -0.47443456      -0.60240838
H       -1.24494116      -0.65845382       0.94913003
11
Frame=1 idx=005115 GeodesicLength=0.05069902674562348 rxn_smarts="[C:1]1([H:6])([H:7])[C:2]([H:8])([H:9])[O:3][C:4]([H:10])([H:11])[O:5]1>>[C:1]([O:5][C:4]([O+:3]=[C-:2][H:9])([H:10])[H:11])([H:6])([H:7])[H:8]"
C        0.59026538       1.03193634       0.06138621
C        0.96358811      -1.09543082      -0.24170245
O       -0.27038325      -1.22122806      -0.77534890
C       -1.20353069      -0.39504102      -0.11778700
O       -0.73237103       0.91187651      -0.29494898
H        1.02922867       1.87179968      -0.47661621
H        0.77211604       1.09387617       1.13519394
H        1.37125329       0.10286717      -0.49461134
H        0.90171886      -1.16654822       0.86111345
H       -2.17232833      -0.47449447      -0.60558208
H       -1.24955704      -0.65961329       0.94890335
11
Frame=2 idx=005115 GeodesicLength=0.1013953164629012 rxn_smarts="[C:1]1([H:6])([H:7])[C:2]([H:8])([H:9])[O:3][C:4]([H:10])([H:11])[O:5]1>>[C:1]([O:5][C:4]([O+:3]=[C-:2][H:9])([H:10])[H:11])([H:6])([H:7])[H:8]"
C        0.59269896       1.02972359       0.05982939
C        0.96165355      -1.09569235      -0.23572511
O       -0.27037330      -1.22155619      -0.77315246
C       -1.20505298      -0.39329922      -0.11725109
O       -0.73543054       0.91368695      -0.28917170
H        1.02294253       1.87576474      -0.47577451
H        0.77345763       1.09998594       1.13360593
H        1.38669865       0.10784501      -0.50843465
H        0.89948576      -1.18111575       0.86621759
H       -2.17188031      -0.47453213      -0.60881488
H       -1.25419995      -0.66081059       0.94867149
11
Frame=3 idx=005115 GeodesicLength=0.15238925714074936 rxn_smarts="[C:1]1([H:6])([H:7])[C:2]([H:8])([H:9])[O:3][C:4]([H:10])([H:11])[O:5]1>>[C:1]([O:5][C:4]([O+:3]=[C-:2][H:9])([H:10])[H:11])([H:6])([H:7])[H:8]"
C        0.59512810       1.02751561       0.05825625
C        0.95974605      -1.09586247      -0.22961839
O       -0.27032535      -1.22185673      -0.77090194
C       -1.20656581      -0.39156009      -0.11670073
O       -0.73851442       0.91550930      -0.28324167
H        1.01661524       1.87969108      -0.47501070
H        0.77484738       1.10619796       1.13194621
H        1.40219706       0.11295566      -0.52236219
H        0.89711741      -1.19599865       0.87129940
H       -2.17135597      -0.47456334      -0.61211904
H       -1.25888969      -0.66202832       0.94845279
11
Frame=4 idx=005115 GeodesicLength=0.202789026087625 rxn_smarts="[C:1]1([H:6])([H:7])[C:2]([H:8])([H:9])[O:3][C:4]([H:10])([H:11])[O:5]1>>[C:1]([O:5][C:4]([O+:3]=[C-:2][H:9])([H:10])[H:11])([H:6])([H:7])[H:8]"
C        0.59755282       1.02540376       0.05665192
C        0.95792957      -1.09573581      -0.22330475
O       -0.27008500      -1.22210705      -0.76854176
C       -1.20804712      -0.38980703      -0.11610910
O       -0.74160354       0.91736418      -0.27710163
H        1.01037856       1.88324858      -0.47438026
H        0.77615510       1.11270768       1.13016137
H        1.41740887       0.11822575      -0.53626787
H        0.89463126      -1.21145787       0.87616395
H       -2.17074300      -0.47452479      -0.61546061
H       -1.26357752      -0.66331740       0.94818875
11
Frame=5 idx=005115 GeodesicLength=0.2534822262631767 rxn_smarts="[C:1]1([H:6])([H:7])[C:2]([H:8])([H:9])[O:3][C:4]([H:10])([H:11])[O:5]1>>[C:1]([O:5][C:4]([O+:3]=[C-:2][H:9])([H:10])[H:11])([H:6])([H:7])[H:8]"
C        0.59996477       1.02330381       0.05503859
C        0.95612847      -1.09553860      -0.21684264
O       -0.26980681      -1.22232594      -0.76613174
C       -1.20951688      -0.38805730      -0.11550079
O       -0.74471799       0.91923032      -0.27081333
H        1.00410802       1.88676848      -0.47384562
H        0.77751027       1.11931569       1.12830758
H        1.43268047       0.12364741      -0.55026783
H        0.89201036      -1.22723398       0.88098608
H       -2.17004899      -0.47448021      -0.61886840
H       -1.26831170      -0.66462968       0.94793810
11
Frame=6 idx=005115 GeodesicLength=0.30417548219924945 rxn_smarts="[C:1]1([H:6])([H:7])[C:2]([H:8])([H:9])[O:3][C:4]([H:10])([H:11])[O:5]1>>[C:1]([O:5][C:4]([O+:3]=[C-:2][H:9])([H:10])[H:11])([H:6])([H:7])[H:8]"
C        0.60236070       1.02124953       0.05341182
C        0.95435932      -1.09521504      -0.21020028
O       -0.26944136      -1.22250439      -0.76365433
C       -1.21096917      -0.38630318      -0.11486568
O       -0.74784792       0.92111028      -0.26436078
H        0.99783970       1.89013881      -0.47342841
H        0.77886614       1.12608987       1.12636258
H        1.44791321       0.12922968      -0.56430270
H        0.88926953      -1.24341226       0.88568430
H       -2.16927307      -0.47440332      -0.62232874
H       -1.27307707      -0.66597999       0.94768221
11
Frame=7 idx=005115 GeodesicLength=0.35486353059407433 rxn_smarts="[C:1]1([H:6])([H:7])[C:2]([H:8])([H:9])[O:3][C:4]([H:10])([H:11])[O:5]1>>[C:1]([O:5][C:4]([O+:3]=[C-:2][H:9])([H:10])[H:11])([H:6])([H:7])[H:8]"
C        0.60473811       1.01924305       0.05177417
C        0.95261517      -1.09477512      -0.20336684
O       -0.26898914      -1.22264128      -0.76110901
C       -1.21240361      -0.38454443      -0.11420245
O       -0.75099251       0.92300182      -0.25774607
H        0.99157207       1.89336169      -0.47313639
H        0.78022314       1.13303030       1.12432605
H        1.46311407       0.13497939      -0.57836523
H        0.88641112      -1.25999508       0.89024479
H       -2.16841323      -0.47429274      -0.62584020
H       -1.27787519      -0.66736759       0.94742117
11
Frame=8 idx=005115 GeodesicLength=0.4055441267066174 rxn_smarts="[C:1]1([H:6])([H:7])[C:2]([H:8])([H:9])[O:3][C:4]([H:10])([H:11])[O:5]1>>[C:1]([O:5][C:4]([O+:3]=[C-:2][H:9])([H:10])[H:11])([H:6])([H:7])[H:8]"
C        0.60709489       1.01728565       0.05012783
C        0.95088860      -1.09422983      -0.19633062
O       -0.26845098      -1.22273550      -0.75849612
C       -1.21382022      -0.38278069      -0.11351002
O       -0.75415035       0.92490288      -0.25097074
H        0.98530237       1.89643910      -0.47297582
H        0.78158175       1.14013719       1.12219687
H        1.47829160       0.14090286      -0.59244988
H        0.88343888      -1.27698272       0.89465512
H       -2.16746856      -0.47414649      -0.62940142
H       -1.28270798      -0.66879244       0.94715480
11
Frame=9 idx=005115 GeodesicLength=0.45621643307454884 rxn_smarts="[C:1]1([H:6])([H:7])[C:2]([H:8])([H:9])[O:3][C:4]([H:10])([H:11])[O:5]1>>[C:1]([O:5][C:4]([O+:3]=[C-:2][H:9])([H:10])[H:11])([H:6])([H:7])[H:8]"
C        0.60942878       1.01537783       0.04847362
C        0.94917354      -1.09358783      -0.18908089
O       -0.26782773      -1.22278683      -0.75581413
C       -1.21521948      -0.38101144      -0.11278716
O       -0.75732022       0.92681069      -0.24403456
H        0.97902695       1.89937209      -0.47295136
H        0.78294337       1.14741000       1.11997203
H        1.49345625       0.14700819      -0.60655402
H        0.88035458      -1.29437642       0.89890559
H       -2.16643772      -0.47396154      -0.63301214
H       -1.28757832      -0.67025475       0.94688303
11
Frame=10 idx=005115 GeodesicLength=0.5068830639817872 rxn_smarts="[C:1]1([H:6])([H:7])[C:2]([H:8])([H:9])[O:3][C:4]([H:10])([H:11])[O:5]1>>[C:1]([O:5][C:4]([O+:3]=[C-:2][H:9])([H:10])[H:11])([H:6])([H:7])[H:8]"
C        0.61173826       1.01352027       0.04681399
C        0.94746167      -1.09286032      -0.18160136
O       -0.26711905      -1.22279457      -0.75306068
C       -1.21660156      -0.37923620      -0.11203250
O       -0.76050065       0.92872321      -0.23693846
H        0.97274219       1.90216299      -0.47306946
H        0.78430894       1.15484872       1.11765024
H        1.50861671       0.15330356      -0.62067550
H        0.87716249      -1.31217849       0.90298018
H       -2.16531896      -0.47373581      -0.63667250
H       -1.29249003      -0.67175334       0.94660605
11
Frame=11 idx=005115 GeodesicLength=0.5575470820236096 rxn_smarts="[C:1]1([H:6])([H:7])[C:2]([H:8])([H:9])[O:3][C:4]([H:10])([H:11])[O:5]1>>[C:1]([O:5][C:4]([O+:3]=[C-:2][H:9])([H:10])[H:11])([H:6])([H:7])[H:8]"
C        0.61402177       1.01171272       0.04514928
C        0.94574597      -1.09205620      -0.17387837
O       -0.26632547      -1.22275923      -0.75023265
C       -1.21796694      -0.37745460      -0.11124453
O       -0.76368991       0.93063742      -0.22968166
H        0.96644375       1.90481189      -0.47333388
H        0.78568003       1.16245321       1.11522769
H        1.52378361       0.15979972      -0.63481468
H        0.87386422      -1.33039112       0.90686788
H       -2.16410995      -0.47346557      -0.64038299
H       -1.29744708      -0.67328823       0.94632392
11
Frame=12 idx=005115 GeodesicLength=0.6082051283447354 rxn_smarts="[C:1]1([H:6])([H:7])[C:2]([H:8])([H:9])[O:3][C:4]([H:10])([H:11])[O:5]1>>[C:1]([O:5][C:4]([O+:3]=[C-:2][H:9])([H:10])[H:11])([H:6])([H:7])[H:8]"
C        0.61627852       1.00995441       0.04348156
C        0.94401768      -1.09118500      -0.16589533
O       -0.26544698      -1.22268065      -0.74732675
C       -1.21931649      -0.37566623      -0.11042196
O       -0.76688684       0.93255199      -0.22226541
H        0.96012902       1.90732047      -0.47375074
H        0.78705797       1.17022283       1.11270310
H        1.53896507       0.16650521      -0.64896936
H        0.87046562      -1.34901569       0.91055236
H       -2.16280981      -0.47314961      -0.64414427
H       -1.30245376      -0.67485773       0.94603681
11
Frame=13 idx=005115 GeodesicLength=0.658859141059977 rxn_smarts="[C:1]1([H:6])([H:7])[C:2]([H:8])([H:9])[O:3][C:4]([H:10])([H:11])[O:5]1>>[C:1]([O:5][C:4]([O+:3]=[C-:2][H:9])([H:10])[H:11])([H:6])([H:7])[H:8]"
C        0.61850767       1.00824409       0.04181137
C        0.94226918      -1.09025509      -0.15763644
O       -0.26448346      -1.22255947      -0.74433861
C       -1.22065087      -0.37387061      -0.10956350
O       -0.77008952       0.93446404      -0.21468800
H        0.95379291       1.90968915      -0.47432399
H        0.78844521       1.17815633       1.11007300
H        1.55417099       0.17343078      -0.66314285
H        0.86696912      -1.36805348       0.91402249
H       -2.16141569      -0.47278414      -0.64795777
H       -1.30751555      -0.67646160       0.94574429
11
Frame=14 idx=005115 GeodesicLength=0.7095120480089894 rxn_smarts="[C:1]1([H:6])([H:7])[C:2]([H:8])([H:9])[O:3][C:4]([H:10])([H:11])[O:5]1>>[C:1]([O:5][C:4]([O+:3]=[C-:2][H:9])([H:10])[H:11])([H:6])([H:7])[H:8]"
C        0.62070878       1.00658007       0.04013922
C        0.94049220      -1.08927486      -0.14908349
O       -0.26343462      -1.22239693      -0.74126217
C       -1.22197083      -0.37206728      -0.10866773
O       -0.77329610       0.93637109      -0.20694808
H        0.94743036       1.91191867      -0.47505681
H        0.78984463       1.18625234       1.10733426
H        1.56941075       0.18058770      -0.67734019
H        0.86337813      -1.38750627       0.91726490
H       -2.15992452      -0.47236600      -0.65182619
H       -1.31263878      -0.67809854       0.94544629
11
Frame=15 idx=005115 GeodesicLength=0.7601634132974884 rxn_smarts="[C:1]1([H:6])([H:7])[C:2]([H:8])([H:9])[O:3][C:4]([H:10])([H:11])[O:5]1>>[C:1]([O:5][C:4]([O+:3]=[C-:2][H:9])([H:10])[H:11])([H:6])([H:7])[H:8]"
C        0.62288187       1.00496002       0.03846605
C        0.93867765      -1.08825265      -0.14021754
O       -0.26229969      -1.22219399      -0.73809142
C       -1.22327732      -0.37025572      -0.10773336
O       -0.77650465       0.93827092      -0.19904388
H        0.94103707       1.91400860      -0.47595357
H        0.79125895       1.19450920       1.10448380
H        1.58469220       0.18798788      -0.69156584
H        0.85969741      -1.40737477       0.92026574
H       -2.15833337      -0.47189186      -0.65575232
H       -1.31783012      -0.67976762       0.94514233
11
Frame=16 idx=005115 GeodesicLength=0.8108149037174007 rxn_smarts="[C:1]1([H:6])([H:7])[C:2]([H:8])([H:9])[O:3][C:4]([H:10])([H:11])[O:5]1>>[C:1]([O:5][C:4]([O+:3]=[C-:2][H:9])([H:10])[H:11])([H:6])([H:7])[H:8]"
C        0.62502728       1.00338110       0.03679273
C        0.93681640      -1.08719624      -0.13101876
O       -0.26107820      -1.22195246      -0.73481889
C       -1.22457136      -0.36843553      -0.10675913
O       -0.77971317       0.94016115      -0.19097402
H        0.93460875       1.91595873      -0.47701711
H        0.79269130       1.20292463       1.10151875
H        1.60002340       0.19564415      -0.70582749
H        0.85593142      -1.42765968       0.92301154
H       -2.15663882      -0.47135870      -0.65973963
H       -1.32309701      -0.68146715       0.94483201
