15
Frame=0 idx=010509 GeodesicLength=0.0 rxn_smarts="[C:1]([C:2]([C:3]([C:4](=[O:5])[C:6](=[O:7])[H:15])([H:13])[H:14])([H:11])[H:12])([H:8])([H:9])[H:10]>>[C-:6]#[O+:7].[C:1]([C:2]([C:3]([C:4][O:5][H:15])([H:13])[H:14])([H:11])[H:12])([H:8])([H:9])[H:10]"
C       -2.35736060      -0.08303790      -0.58075215
C       -1.07562038      -0.45233763       0.15460843
C        0.11766371       0.36366519      -0.33039193
C        1.43872452       0.10954587       0.30001554
O        1.52343672      -0.74151376       1.20619096
C        3.42401171       0.38979754       0.55440725
O        4.16536108       1.08751550       0.02675766
H       -2.60793791       0.97061239      -0.43428339
H       -3.20175542      -0.67618496      -0.22661499
H       -2.26035034      -0.25299948      -1.65597668
H       -0.86094508      -1.51571128       0.02298920
H       -1.20262490      -0.30075617       1.22932363
H        0.27543513       0.24144718      -1.40949001
H       -0.05985964       1.44088975      -0.21722169
H        2.68182140      -0.58093227       1.36043811
15
Frame=1 idx=010509 GeodesicLength=0.04043518897693133 rxn_smarts="[C:1]([C:2]([C:3]([C:4](=[O:5])[C:6](=[O:7])[H:15])([H:13])[H:14])([H:11])[H:12])([H:8])([H:9])[H:10]>>[C-:6]#[O+:7].[C:1]([C:2]([C:3]([C:4][O:5][H:15])([H:13])[H:14])([H:11])[H:12])([H:8])([H:9])[H:10]"
C       -2.35597972      -0.08105347      -0.58309570
C       -1.07636275      -0.45275073       0.15480296
C        0.11853760       0.36225768      -0.32724669
C        1.43624674       0.10450761       0.30806511
O        1.52103801      -0.74875085       1.21269356
C        3.42165480       0.39412844       0.55306178
O        4.15145628       1.09296250       0.00963040
H       -2.60540833       0.97288043      -0.43662316
H       -3.20218817      -0.67310607      -0.23147177
H       -2.25692300      -0.25014737      -1.65828013
H       -0.86273208      -1.51632272       0.02309144
H       -1.20527970      -0.30218458       1.22943031
H        0.27997852       0.24027976      -1.40580520
H       -0.05681196       1.43975902      -0.21341840
H        2.69277376      -0.58245962       1.36516550
15
Frame=2 idx=010509 GeodesicLength=0.08090079146692819 rxn_smarts="[C:1]([C:2]([C:3]([C:4](=[O:5])[C:6](=[O:7])[H:15])([H:13])[H:14])([H:11])[H:12])([H:8])([H:9])[H:10]>>[C-:6]#[O+:7].[C:1]([C:2]([C:3]([C:4][O:5][H:15])([H:13])[H:14])([H:11])[H:12])([H:8])([H:9])[H:10]"
C       -2.35468865      -0.07855596      -0.58500318
C       -1.07717362      -0.45297933       0.15520859
C        0.11972055       0.35979612      -0.32502247
C        1.43412999       0.09799343       0.31485107
O        1.51877884      -0.75680867       1.21856139
C        3.41964739       0.39681088       0.54997577
O        4.13572641       1.10401582      -0.00215451
H       -2.60215199       0.97595364      -0.43925932
H       -3.20298729      -0.66862347      -0.23509039
H       -2.25413675      -0.24770088      -1.66005052
H       -0.86540188      -1.51700415       0.02416128
H       -1.20745975      -0.30247870       1.22967703
H        0.28430922       0.23707366      -1.40299679
H       -0.05263755       1.43778277      -0.21131589
H        2.70432510      -0.58527516       1.36845796
15
Frame=3 idx=010509 GeodesicLength=0.12143052647460739 rxn_smarts="[C:1]([C:2]([C:3]([C:4](=[O:5])[C:6](=[O:7])[H:15])([H:13])[H:14])([H:11])[H:12])([H:8])([H:9])[H:10]>>[C-:6]#[O+:7].[C:1]([C:2]([C:3]([C:4][O:5][H:15])([H:13])[H:14])([H:11])[H:12])([H:8])([H:9])[H:10]"
C       -2.35340582      -0.07584104      -0.58675862
C       -1.07799799      -0.45318287       0.15565462
C        0.12103995       0.35691377      -0.32311171
C        1.43214958       0.09084353       0.32117725
O        1.51654714      -0.76533355       1.22413293
C        3.41748163       0.39974494       0.54701064
O        4.11931115       1.11644789      -0.01268555
H       -2.59858136       0.97934117      -0.44193456
H       -3.20389984      -0.66360260      -0.23830443
H       -2.25156777      -0.24530588      -1.66164424
H       -0.86840683      -1.51774446       0.02546946
H       -1.20945156      -0.30247419       1.22994879
H        0.28858059       0.23315145      -1.40048844
H       -0.04800248       1.43544988      -0.20973278
H        2.71620362      -0.58840803       1.37126664
15
Frame=4 idx=010509 GeodesicLength=0.16192649576450044 rxn_smarts="[C:1]([C:2]([C:3]([C:4](=[O:5])[C:6](=[O:7])[H:15])([H:13])[H:14])([H:11])[H:12])([H:8])([H:9])[H:10]>>[C-:6]#[O+:7].[C:1]([C:2]([C:3]([C:4][O:5][H:15])([H:13])[H:14])([H:11])[H:12])([H:8])([H:9])[H:10]"
C       -2.35184344      -0.07404447      -0.58939708
C       -1.07865376      -0.45387438       0.15560231
C        0.12180153       0.35606894      -0.31921376
C        1.42941467       0.08639649       0.33011053
O        1.51396141      -0.77268031       1.23081916
C        3.41413044       0.40682640       0.54759973
O        4.10587596       1.11633894      -0.03446408
H       -2.59632002       0.98120240      -0.44378064
H       -3.20399764      -0.66131027      -0.24418494
H       -2.24757816      -0.24174467      -1.66433634
H       -0.86965526      -1.51844224       0.02452357
H       -1.21239553      -0.30508632       1.22987896
H        0.29338122       0.23343131      -1.39605952
H       -0.04552120       1.43470697      -0.20435916
H        2.72739979      -0.58778879       1.37726128
15
Frame=5 idx=010509 GeodesicLength=0.20246412597677432 rxn_smarts="[C:1]([C:2]([C:3]([C:4](=[O:5])[C:6](=[O:7])[H:15])([H:13])[H:14])([H:11])[H:12])([H:8])([H:9])[H:10]>>[C-:6]#[O+:7].[C:1]([C:2]([C:3]([C:4][O:5][H:15])([H:13])[H:14])([H:11])[H:12])([H:8])([H:9])[H:10]"
C       -2.35051403      -0.07123411      -0.59112034
C       -1.07945484      -0.45415425       0.15598362
C        0.12319461       0.35301772      -0.31735050
C        1.42746815       0.07891942       0.33629288
O        1.51167030      -0.78161255       1.23616594
C        3.41134201       0.41139172       0.54576086
O        4.08921027       1.12758223      -0.04561900
H       -2.59258977       0.98468971      -0.44632005
H       -3.20488531      -0.65613090      -0.24737595
H       -2.24502791      -0.23919332      -1.66590948
H       -0.87275320      -1.51926348       0.02566797
H       -1.21431003      -0.30522277       1.23009839
H        0.29766789       0.22938076      -1.39359305
H       -0.04069582       1.43219703      -0.20272734
H        2.73967769      -0.59036719       1.38004604
15
Frame=6 idx=010509 GeodesicLength=0.243048510668741 rxn_smarts="[C:1]([C:2]([C:3]([C:4](=[O:5])[C:6](=[O:7])[H:15])([H:13])[H:14])([H:11])[H:12])([H:8])([H:9])[H:10]>>[C-:6]#[O+:7].[C:1]([C:2]([C:3]([C:4][O:5][H:15])([H:13])[H:14])([H:11])[H:12])([H:8])([H:9])[H:10]"
C       -2.34904384      -0.06873641      -0.59319497
C       -1.08019791      -0.45461485       0.15619760
C        0.12439883       0.35070586      -0.31468276
C        1.42522063       0.07240458       0.34353715
O        1.50919627      -0.79015492       1.24200829
C        3.40809097       0.41728360       0.54493162
O        4.07335316       1.13432679      -0.06086341
H       -2.58928987       0.98764244      -0.44858249
H       -3.20545575      -0.65190965      -0.25161392
H       -2.24187515      -0.23618493      -1.66790690
H       -0.87521583      -1.52006901       0.02599007
H       -1.21662012      -0.30633394       1.23020172
H        0.30220452       0.22687856      -1.39033422
H       -0.03663724       1.43025664      -0.19960760
H        2.75187133      -0.59149477       1.38391983
15
Frame=7 idx=010509 GeodesicLength=0.2837072784546293 rxn_smarts="[C:1]([C:2]([C:3]([C:4](=[O:5])[C:6](=[O:7])[H:15])([H:13])[H:14])([H:11])[H:12])([H:8])([H:9])[H:10]>>[C-:6]#[O+:7].[C:1]([C:2]([C:3]([C:4][O:5][H:15])([H:13])[H:14])([H:11])[H:12])([H:8])([H:9])[H:10]"
C       -2.34746691      -0.06638304      -0.59547932
C       -1.08091769      -0.45515829       0.15635007
C        0.12552186       0.34876301      -0.31153990
C        1.42279389       0.06637311       0.35143568
O        1.50657781      -0.79849854       1.24821621
C        3.40465665       0.42345747       0.54413353
O        4.05759776       1.13904497      -0.07799564
H       -2.58616525       0.99034394      -0.45076288
H       -3.20584987      -0.64813774      -0.25644361
H       -2.23833620      -0.23295157      -1.67014019
H       -0.87736293      -1.52085981       0.02593325
H       -1.21918303      -0.30791989       1.23025906
H        0.30693234       0.22513899      -1.38658905
H       -0.03295048       1.42859910      -0.19567894
H        2.76415206      -0.59181173       1.38830174
15
Frame=8 idx=010509 GeodesicLength=0.32437170430151924 rxn_smarts="[C:1]([C:2]([C:3]([C:4](=[O:5])[C:6](=[O:7])[H:15])([H:13])[H:14])([H:11])[H:12])([H:8])([H:9])[H:10]>>[C-:6]#[O+:7].[C:1]([C:2]([C:3]([C:4][O:5][H:15])([H:13])[H:14])([H:11])[H:12])([H:8])([H:9])[H:10]"
C       -2.34590490      -0.06366332      -0.59751390
C       -1.08172005      -0.45546803       0.15677206
C        0.12690347       0.34599427      -0.30903353
C        1.42059326       0.05931316       0.35860834
O        1.50393367      -0.80721623       1.25434039
C        3.40201338       0.42617740       0.53986594
O        4.03977112       1.14979524      -0.08963525
H       -2.58240968       0.99366133      -0.45347759
H       -3.20651402      -0.64322161      -0.26037364
H       -2.23514826      -0.23027140      -1.67201216
H       -0.88023052      -1.52163184       0.02693448
H       -1.22150198      -0.30834539       1.23049751
H        0.31160795       0.22161527      -1.38341097
H       -0.02835807       1.42628826      -0.19318533
H        2.77696464      -0.59302712       1.39162364
15
Frame=9 idx=010509 GeodesicLength=0.36514224782272797 rxn_smarts="[C:1]([C:2]([C:3]([C:4](=[O:5])[C:6](=[O:7])[H:15])([H:13])[H:14])([H:11])[H:12])([H:8])([H:9])[H:10]>>[C-:6]#[O+:7].[C:1]([C:2]([C:3]([C:4][O:5][H:15])([H:13])[H:14])([H:11])[H:12])([H:8])([H:9])[H:10]"
C       -2.34416576      -0.06131994      -0.59998392
C       -1.08245346      -0.45601026       0.15698781
C        0.12804384       0.34415552      -0.30550140
C        1.41801199       0.05344274       0.36711978
O        1.50109585      -0.81545537       1.26108625
C        3.39847611       0.43175301       0.53799645
O        4.02310435       1.15425975      -0.10703036
H       -2.57920135       0.99632726      -0.45582308
H       -3.20678566      -0.63949782      -0.26563295
H       -2.23119176      -0.22697299      -1.67440896
H       -0.88229775      -1.52239346       0.02689734
H       -1.22432663      -0.31001477       1.23058991
H        0.31660760       0.22005214      -1.37921705
H       -0.02473699       1.42470031      -0.18878739
H        2.78981961      -0.59302611       1.39570756
15
Frame=10 idx=010509 GeodesicLength=0.4059699471073028 rxn_smarts="[C:1]([C:2]([C:3]([C:4](=[O:5])[C:6](=[O:7])[H:15])([H:13])[H:14])([H:11])[H:12])([H:8])([H:9])[H:10]>>[C-:6]#[O+:7].[C:1]([C:2]([C:3]([C:4][O:5][H:15])([H:13])[H:14])([H:11])[H:12])([H:8])([H:9])[H:10]"
C       -2.34244509      -0.05854318      -0.60215893
C       -1.08325855      -0.45637860       0.15742641
C        0.12948276       0.34134959      -0.30271338
C        1.41571522       0.04629878       0.37471139
O        1.49830906      -0.82434361       1.26752688
C        3.39507854       0.43627953       0.53496121
O        4.00460741       1.16350804      -0.12017156
H       -2.57526592       0.99969041      -0.45861190
H       -3.20735706      -0.63449953      -0.26991105
H       -2.22767689      -0.22413366      -1.67641508
H       -0.88517116      -1.52320798       0.02782730
H       -1.22680839      -0.31060300       1.23083295
H        0.32151508       0.21656782      -1.37571286
H       -0.02007394       1.42232572      -0.18589177
H        2.80334895      -0.59431034       1.39830039
15
Frame=11 idx=010509 GeodesicLength=0.44694208636839694 rxn_smarts="[C:1]([C:2]([C:3]([C:4](=[O:5])[C:6](=[O:7])[H:15])([H:13])[H:14])([H:11])[H:12])([H:8])([H:9])[H:10]>>[C-:6]#[O+:7].[C:1]([C:2]([C:3]([C:4][O:5][H:15])([H:13])[H:14])([H:11])[H:12])([H:8])([H:9])[H:10]"
C       -2.34056116      -0.05600284      -0.60466534
C       -1.08401595      -0.45693791       0.15771672
C        0.13076007       0.33919812      -0.29911358
C        1.41312672       0.03996474       0.38335077
O        1.49537624      -0.83297709       1.27444229
C        3.39113010       0.44230385       0.53296717
O        3.98663838       1.16843165      -0.13729044
H       -2.57167980       1.00261351      -0.46110829
H       -3.20763172      -0.63031984      -0.27523126
H       -2.22353328      -0.22076063      -1.67881509
H       -0.88747148      -1.52403054       0.02796213
H       -1.22968936      -0.31216312       1.23096830
H        0.32670847       0.21452029      -1.37139378
H       -0.01609402       1.42044840      -0.18150126
H        2.81693679      -0.59428861       1.40171165
15
Frame=12 idx=010509 GeodesicLength=0.48801579321325733 rxn_smarts="[C:1]([C:2]([C:3]([C:4](=[O:5])[C:6](=[O:7])[H:15])([H:13])[H:14])([H:11])[H:12])([H:8])([H:9])[H:10]>>[C-:6]#[O+:7].[C:1]([C:2]([C:3]([C:4][O:5][H:15])([H:13])[H:14])([H:11])[H:12])([H:8])([H:9])[H:10]"
C       -2.33862771      -0.05323553      -0.60707938
C       -1.08481303      -0.45741774       0.15813724
C        0.13220321       0.33656147      -0.29577688
C        1.41064266       0.03299452       0.39170219
O        1.49240781      -0.84196997       1.28133863
C        3.38716903       0.44773227       0.53019885
O        3.96744666       1.17567348      -0.15246366
H       -2.56766798       1.00589304      -0.46387946
H       -3.20801900      -0.62548819      -0.28019451
H       -2.21947922      -0.21758762      -1.68106827
H       -0.89017432      -1.52488260       0.02859129
H       -1.23246604      -0.31320753       1.23118950
H        0.33193904       0.21152111      -1.36729234
H       -0.01157602       1.41816926      -0.17773696
H        2.83101491      -0.59475598       1.40433376
15
Frame=13 idx=010509 GeodesicLength=0.529187844502893 rxn_smarts="[C:1]([C:2]([C:3]([C:4](=[O:5])[C:6](=[O:7])[H:15])([H:13])[H:14])([H:11])[H:12])([H:8])([H:9])[H:10]>>[C-:6]#[O+:7].[C:1]([C:2]([C:3]([C:4][O:5][H:15])([H:13])[H:14])([H:11])[H:12])([H:8])([H:9])[H:10]"
C       -2.33658482      -0.05050421      -0.60963090
C       -1.08559930      -0.45795677       0.15853717
C        0.13362719       0.33408734      -0.29210798
C        1.40804396       0.02621207       0.40050366
O        1.48932337      -0.85095217       1.28849751
C        3.38298968       0.45337186       0.52732403
O        3.94796924       1.18173631      -0.16871176
H       -2.56367448       1.00908139      -0.46661170
H       -3.20828441      -0.62083556      -0.28556408
H       -2.21511904      -0.21422092      -1.68346824
H       -0.89272807      -1.52574233       0.02901120
H       -1.23541758      -0.31454185       1.23139135
H        0.33733927       0.20890736      -1.36283576
H       -0.00721027       1.41600385      -0.17343341
H        2.84532526      -0.59464637       1.40709892
15
Frame=14 idx=010509 GeodesicLength=0.5704573312843589 rxn_smarts="[C:1]([C:2]([C:3]([C:4](=[O:5])[C:6](=[O:7])[H:15])([H:13])[H:14])([H:11])[H:12])([H:8])([H:9])[H:10]>>[C-:6]#[O+:7].[C:1]([C:2]([C:3]([C:4][O:5][H:15])([H:13])[H:14])([H:11])[H:12])([H:8])([H:9])[H:10]"
C       -2.33444720      -0.04775522      -0.61226580
C       -1.08638156      -0.45852876       0.15893941
C        0.13507067       0.33164240      -0.28823741
C        1.40538246       0.01943921       0.40957951
O        1.48612798      -0.86000709       1.29583969
C        3.37862628       0.45906017       0.52420354
O        3.92804561       1.18729598      -0.18539612
H       -2.55961295       1.01226785      -0.46935071
H       -3.20847174      -0.61619716      -0.29117248
H       -2.21054491      -0.21073553      -1.68594801
H       -0.89524306      -1.52661536       0.02934881
H       -1.23847758      -0.31600914       1.23158766
H        0.34287263       0.20641454      -1.35815110
H       -0.00285490       1.41384462      -0.16882843
H        2.85990828      -0.59411652       1.40985142
15
Frame=15 idx=010509 GeodesicLength=0.6118183873467791 rxn_smarts="[C:1]([C:2]([C:3]([C:4](=[O:5])[C:6](=[O:7])[H:15])([H:13])[H:14])([H:11])[H:12])([H:8])([H:9])[H:10]>>[C-:6]#[O+:7].[C:1]([C:2]([C:3]([C:4][O:5][H:15])([H:13])[H:14])([H:11])[H:12])([H:8])([H:9])[H:10]"
C       -2.33229209      -0.04474336      -0.61473809
C       -1.08719418      -0.45903774       0.15943794
C        0.13670452       0.32860072      -0.28478345
C        1.40289198       0.01185024       0.41810616
O        1.48291824      -0.86956821       1.30294419
C        3.37391239       0.46533513       0.52145954
O        3.90716132       1.19463948      -0.20036397
H       -2.55508152       1.01585777      -0.47229051
H       -3.20880235      -0.61081354      -0.29625941
H       -2.20620089      -0.20745029      -1.68821838
H       -0.89823485      -1.52754634       0.03015229
H       -1.24132483      -0.31693914       1.23184681
H        0.34835793       0.20282449      -1.35385557
H        0.00214461       1.41117852      -0.16501398
H        2.87503972      -0.59418773       1.41157643
15
Frame=16 idx=010509 GeodesicLength=0.6532728511984831 rxn_smarts="[C:1]([C:2]([C:3]([C:4](=[O:5])[C:6](=[O:7])[H:15])([H:13])[H:14])([H:11])[H:12])([H:8])([H:9])[H:10]>>[C-:6]#[O+:7].[C:1]([C:2]([C:3]([C:4][O:5][H:15])([H:13])[H:14])([H:11])[H:12])([H:8])([H:9])[H:10]"
C       -2.33001883      -0.04181121      -0.61737539
C       -1.08797822      -0.45963730       0.15987034
C        0.13828555       0.32585242      -0.28088652
C        1.40025958       0.00458762       0.42718605
O        1.47954535      -0.87907052       1.31032561
C        3.36905072       0.47149192       0.51826818
O        3.88615201       1.20032369      -0.21672959
H       -2.55066476       1.01927102      -0.47507732
H       -3.20895415      -0.60577947      -0.30188376
H       -2.20149188      -0.20386277      -1.69067729
H       -0.90096251      -1.52848222       0.03056281
H       -1.24438501      -0.31834416       1.23205100
H        0.35402309       0.19991790      -1.34910141
H        0.00685719       1.40872787      -0.16040747
H        2.89028186      -0.59318480       1.41387474
