13
Frame=0 idx=002103 GeodesicLength=0.0 rxn_smarts="[C:1]([c:2]1[c:3]([H:10])[c:4]([H:11])[c:5]([H:12])[n:6]1[H:13])([H:7])([H:8])[H:9]>>[C:1](/[C:2]([C:3](=[C:4]=[C:5]([H:11])[H:12])[H:10])=[N:6]\[H:13])([H:7])([H:8])[H:9]"
C        2.02404384       0.08818398      -0.04838588
C        0.57428573      -0.31815576      -0.11708926
C       -0.38849683       0.70901940       0.29222147
C       -1.68448805       0.43796575       0.13888340
C       -2.77583470      -0.14989810      -0.33827490
N        0.15036821      -1.45520521      -0.50353583
H        2.28049541       0.41094111       0.96337540
H        2.67993913      -0.73545602      -0.32870611
H        2.21294899       0.93132079      -0.71676269
H       -0.05418187       1.64956147       0.70346581
H       -2.55784922       1.19800522       0.35170348
H       -3.38065479      -0.70789484       0.38394085
H        0.91942418      -2.05838777      -0.78083569
13
Frame=1 idx=002103 GeodesicLength=0.09100832269244911 rxn_smarts="[C:1]([c:2]1[c:3]([H:10])[c:4]([H:11])[c:5]([H:12])[n:6]1[H:13])([H:7])([H:8])[H:9]>>[C:1](/[C:2]([C:3](=[C:4]=[C:5]([H:11])[H:12])[H:10])=[N:6]\[H:13])([H:7])([H:8])[H:9]"
C        2.02652333       0.08237577      -0.05015937
C        0.56966565      -0.29072193      -0.13158443
C       -0.38082448       0.74369895       0.28143905
C       -1.67860761       0.44315751       0.19950659
C       -2.72219708      -0.18880242      -0.32678267
N        0.11791734      -1.42287794      -0.51069830
H        2.28839859       0.37308018       0.96994202
H        2.66678436      -0.74605487      -0.35226716
H        2.23334172       0.93895983      -0.69582694
H       -0.04048534       1.68019249       0.69672698
H       -2.59467004       1.19347666       0.30878760
H       -3.35673753      -0.74800995       0.36763876
H        0.87089109      -2.05847428      -0.75672213
13
Frame=2 idx=002103 GeodesicLength=0.18226359919730084 rxn_smarts="[C:1]([c:2]1[c:3]([H:10])[c:4]([H:11])[c:5]([H:12])[n:6]1[H:13])([H:7])([H:8])[H:9]>>[C:1](/[C:2]([C:3](=[C:4]=[C:5]([H:11])[H:12])[H:10])=[N:6]\[H:13])([H:7])([H:8])[H:9]"
C        2.02715316       0.07646779      -0.05082549
C        0.56438068      -0.26494558      -0.14400196
C       -0.37496228       0.77511522       0.27324591
C       -1.67255574       0.45538419       0.24268769
C       -2.67011542      -0.22591496      -0.31225223
N        0.08656788      -1.39315337      -0.51284539
H        2.29387406       0.33382949       0.97701015
H        2.65255384      -0.75460802      -0.37617259
H        2.25069648       0.94643903      -0.67248655
H       -0.02825901       1.70712453       0.69325435
H       -2.62718948       1.18490403       0.26010767
H       -3.32458383      -0.78574755       0.36186192
H        0.82243966      -2.05489481      -0.73958346
13
Frame=3 idx=002103 GeodesicLength=0.27343934074872506 rxn_smarts="[C:1]([c:2]1[c:3]([H:10])[c:4]([H:11])[c:5]([H:12])[n:6]1[H:13])([H:7])([H:8])[H:9]>>[C:1](/[C:2]([C:3](=[C:4]=[C:5]([H:11])[H:12])[H:10])=[N:6]\[H:13])([H:7])([H:8])[H:9]"
C        2.02664740       0.07068136      -0.05121274
C        0.55899713      -0.24092761      -0.15384854
C       -0.36979995       0.80364976       0.26818050
C       -1.66694963       0.47174993       0.27401446
C       -2.62024266      -0.25981575      -0.29626487
N        0.05661249      -1.36581051      -0.51047118
H        2.29841852       0.29408389       0.98326707
H        2.63785341      -0.76096571      -0.40121316
H        2.26527421       0.95367789      -0.64813142
H       -0.01679295       1.73131285       0.69257208
H       -2.65663143       1.17222213       0.20799490
H       -3.28880602      -0.82059413       0.36170995
H        0.77541948      -2.04926409      -0.72659706
13
Frame=4 idx=002103 GeodesicLength=0.3654969324318855 rxn_smarts="[C:1]([c:2]1[c:3]([H:10])[c:4]([H:11])[c:5]([H:12])[n:6]1[H:13])([H:7])([H:8])[H:9]>>[C:1](/[C:2]([C:3](=[C:4]=[C:5]([H:11])[H:12])[H:10])=[N:6]\[H:13])([H:7])([H:8])[H:9]"
C        2.02547128       0.06451410      -0.05045396
C        0.55365834      -0.21699407      -0.16541601
C       -0.36528449       0.83173003       0.26060657
C       -1.66187135       0.49081670       0.29613444
C       -2.57265178      -0.29036951      -0.27781274
N        0.02780608      -1.33791422      -0.51191508
H        2.29942353       0.25164006       0.99066621
H        2.62323252      -0.76611773      -0.42541428
H        2.28073226       0.96069913      -0.62006958
H       -0.00612010       1.75482179       0.68995882
H       -2.68515845       1.15477303       0.15858732
H       -3.24839572      -0.85442323       0.36798726
H        0.72915788      -2.04317608      -0.71285896
13
Frame=5 idx=002103 GeodesicLength=0.4572486606721032 rxn_smarts="[C:1]([c:2]1[c:3]([H:10])[c:4]([H:11])[c:5]([H:12])[n:6]1[H:13])([H:7])([H:8])[H:9]>>[C:1](/[C:2]([C:3](=[C:4]=[C:5]([H:11])[H:12])[H:10])=[N:6]\[H:13])([H:7])([H:8])[H:9]"
C        2.02396733       0.05914184      -0.05185788
C        0.54862476      -0.19525983      -0.17265759
C       -0.36080004       0.85686197       0.25830834
C       -1.65762500       0.51076933       0.31332089
C       -2.52686481      -0.31557568      -0.26324443
N        0.00069964      -1.31252204      -0.50722155
H        2.30289042       0.21099913       0.99365470
H        2.60867290      -0.76855320      -0.45324872
H        2.29216565       0.96753019      -0.59536088
H        0.00421163       1.77532336       0.69282635
H       -2.71117283       1.13517278       0.11118663
H       -3.20934752      -0.88588980       0.36882707
H        0.68457786      -2.03799806      -0.69453294
13
Frame=6 idx=002103 GeodesicLength=0.5494324634283725 rxn_smarts="[C:1]([c:2]1[c:3]([H:10])[c:4]([H:11])[c:5]([H:12])[n:6]1[H:13])([H:7])([H:8])[H:9]>>[C:1](/[C:2]([C:3](=[C:4]=[C:5]([H:11])[H:12])[H:10])=[N:6]\[H:13])([H:7])([H:8])[H:9]"
C        2.02208108       0.05346792      -0.05211605
C        0.54380498      -0.17428196      -0.17976370
C       -0.35666137       0.88136323       0.25423239
C       -1.65394652       0.53161369       0.32528874
C       -2.48305268      -0.33808213      -0.24695258
N       -0.02518293      -1.28769779      -0.50339664
H        2.30412959       0.16966988       0.99713974
H        2.59442389      -0.77007155      -0.47930597
H        2.30389574       0.97328473      -0.56865355
H        0.01386800       1.79547549       0.69346791
H       -2.73624523       1.11218956       0.06571867
H       -3.16836738      -0.91553616       0.37389978
H        0.64125284      -2.03139493      -0.67955874
13
Frame=7 idx=002103 GeodesicLength=0.6418142669861227 rxn_smarts="[C:1]([c:2]1[c:3]([H:10])[c:4]([H:11])[c:5]([H:12])[n:6]1[H:13])([H:7])([H:8])[H:9]>>[C:1](/[C:2]([C:3](=[C:4]=[C:5]([H:11])[H:12])[H:10])=[N:6]\[H:13])([H:7])([H:8])[H:9]"
C        2.01994535       0.04776118      -0.05207421
C        0.53925741      -0.15430794      -0.18587083
C       -0.35271829       0.90488036       0.24987191
C       -1.65082847       0.55286627       0.33337526
C       -2.44104889      -0.35759759      -0.23058379
N       -0.04981123      -1.26373893      -0.49905408
H        2.30441952       0.12839936       0.99988276
H        2.58052770      -0.77036187      -0.50476801
H        2.31503454       0.97813707      -0.54138194
H        0.02297879       1.81486542       0.69353913
H       -2.76018625       1.08665179       0.02249713
H       -3.12685700      -0.94336014       0.38023842
H        0.59928682      -2.02419496      -0.66567176
13
Frame=8 idx=002103 GeodesicLength=0.7344274430097115 rxn_smarts="[C:1]([c:2]1[c:3]([H:10])[c:4]([H:11])[c:5]([H:12])[n:6]1[H:13])([H:7])([H:8])[H:9]>>[C:1](/[C:2]([C:3](=[C:4]=[C:5]([H:11])[H:12])[H:10])=[N:6]\[H:13])([H:7])([H:8])[H:9]"
C        2.01761229       0.04192134      -0.05133471
C        0.53499774      -0.13522375      -0.19123410
C       -0.34893409       0.92764942       0.24468787
C       -1.64826226       0.57445072       0.33794024
C       -2.40083368      -0.37474643      -0.21333395
N       -0.07333637      -1.24061931      -0.49455654
H        2.30344563       0.08702739       1.00244121
H        2.56711372      -0.76960742      -0.52906109
H        2.32597637       0.98200613      -0.51297918
H        0.03160662       1.83385231       0.69232970
H       -2.78323188       1.05853373      -0.01931739
H       -3.08491411      -0.96917184       0.38919164
H        0.55876002      -2.01607229      -0.65477370
13
Frame=9 idx=002103 GeodesicLength=0.8265744874803567 rxn_smarts="[C:1]([c:2]1[c:3]([H:10])[c:4]([H:11])[c:5]([H:12])[n:6]1[H:13])([H:7])([H:8])[H:9]>>[C:1](/[C:2]([C:3](=[C:4]=[C:5]([H:11])[H:12])[H:10])=[N:6]\[H:13])([H:7])([H:8])[H:9]"
C        2.01518896       0.03654622      -0.05160937
C        0.53099714      -0.11761249      -0.19412085
C       -0.34513328       0.94865996       0.24190321
C       -1.64632066       0.59593406       0.34003253
C       -2.36234666      -0.38893106      -0.19772060
N       -0.09536092      -1.21912816      -0.48679658
H        2.30374054       0.04676498       1.00231229
H        2.55383286      -0.76697563      -0.55479745
H        2.33488418       0.98555666      -0.48617356
H        0.03979848       1.85095646       0.69391930
H       -2.80430542       1.02920693      -0.06087142
H       -3.04490150      -0.99256716       0.39604438
H        0.51992628      -2.00841079      -0.64212188
13
Frame=10 idx=002103 GeodesicLength=0.9189681052356791 rxn_smarts="[C:1]([c:2]1[c:3]([H:10])[c:4]([H:11])[c:5]([H:12])[n:6]1[H:13])([H:7])([H:8])[H:9]>>[C:1](/[C:2]([C:3](=[C:4]=[C:5]([H:11])[H:12])[H:10])=[N:6]\[H:13])([H:7])([H:8])[H:9]"
C        2.01267666       0.03109899      -0.05135338
C        0.52724079      -0.10080563      -0.19624244
C       -0.34145788       0.96897677       0.23860730
C       -1.64490458       0.61756778       0.33926237
C       -2.32543844      -0.40114971      -0.18134153
N       -0.11650011      -1.19840302      -0.47890183
H        2.30321337       0.00645039       1.00180764
H        2.54099883      -0.76328068      -0.57962274
H        2.34361677       0.98828961      -0.45844560
H        0.04752199       1.86763805       0.69472113
H       -2.82450480       0.99764453      -0.10151183
H       -3.00485330      -1.01392159       0.40511549
H        0.48239070      -2.00010548      -0.63209457
13
Frame=11 idx=002103 GeodesicLength=1.0114360162992282 rxn_smarts="[C:1]([c:2]1[c:3]([H:10])[c:4]([H:11])[c:5]([H:12])[n:6]1[H:13])([H:7])([H:8])[H:9]>>[C:1](/[C:2]([C:3](=[C:4]=[C:5]([H:11])[H:12])[H:10])=[N:6]\[H:13])([H:7])([H:8])[H:9]"
C        2.01007500       0.02561670      -0.05073841
C        0.52371788      -0.08476401      -0.19756975
C       -0.33786550       0.98860204       0.23504943
C       -1.64392536       0.63929155       0.33589597
C       -2.29000438      -0.41147161      -0.16451418
N       -0.13671856      -1.17834110      -0.47077381
H        2.30205182      -0.03384921       1.00065966
H        2.52857026      -0.75848550      -0.60375968
H        2.35200671       0.99023708      -0.42999994
H        0.05479086       1.88383498       0.69508775
H       -2.84371695       0.96403343      -0.14120416
H       -2.96502408      -1.03334468       0.41588202
H        0.44604230      -1.99135965      -0.62401491
13
Frame=12 idx=002103 GeodesicLength=1.103987488982383 rxn_smarts="[C:1]([c:2]1[c:3]([H:10])[c:4]([H:11])[c:5]([H:12])[n:6]1[H:13])([H:7])([H:8])[H:9]>>[C:1](/[C:2]([C:3](=[C:4]=[C:5]([H:11])[H:12])[H:10])=[N:6]\[H:13])([H:7])([H:8])[H:9]"
C        2.00737562       0.02002599      -0.04956869
C        0.52041796      -0.06933306      -0.19838831
C       -0.33434474       1.00771718       0.23090761
C       -1.64333593       0.66117296       0.32984884
C       -2.25594006      -0.42016117      -0.14680417
N       -0.15613404      -1.15873008      -0.46298872
H        2.29995801      -0.07440533       0.99913926
H        2.51661175      -0.75264266      -0.62698889
H        2.36026405       0.99135012      -0.40036039
H        0.06162348       1.89973734       0.69471064
H       -2.86203337       0.92812736      -0.18018536
H       -2.92517736      -1.05082711       0.42920998
H        0.41071465      -1.98203156      -0.61853180
13
Frame=13 idx=002103 GeodesicLength=1.1964290113708012 rxn_smarts="[C:1]([c:2]1[c:3]([H:10])[c:4]([H:11])[c:5]([H:12])[n:6]1[H:13])([H:7])([H:8])[H:9]>>[C:1](/[C:2]([C:3](=[C:4]=[C:5]([H:11])[H:12])[H:10])=[N:6]\[H:13])([H:7])([H:8])[H:9]"
C        2.00462273       0.01451997      -0.04842389
C        0.51731246      -0.05462439      -0.19823148
C       -0.33083736       1.02605393       0.22720801
C       -1.64313669       0.68310656       0.32130725
C       -2.22320322      -0.42710192      -0.12892330
N       -0.17467486      -1.13973992      -0.45470966
H        2.29776209      -0.11487184       0.99640122
H        2.50493777      -0.74549034      -0.65015211
H        2.36788621       0.99185183      -0.37041640
H        0.06803377       1.91481146       0.69510760
H       -2.87902947       0.89027385      -0.21913241
H       -2.88604952      -1.06621871       0.44374647
H        0.37637608      -1.97257045      -0.61378130
13
Frame=14 idx=002103 GeodesicLength=1.2889967590261777 rxn_smarts="[C:1]([c:2]1[c:3]([H:10])[c:4]([H:11])[c:5]([H:12])[n:6]1[H:13])([H:7])([H:8])[H:9]>>[C:1](/[C:2]([C:3](=[C:4]=[C:5]([H:11])[H:12])[H:10])=[N:6]\[H:13])([H:7])([H:8])[H:9]"
C        2.00176136       0.00885118      -0.04665734
C        0.51439488      -0.04035460      -0.19779857
C       -0.32739086       1.04405563       0.22278866
C       -1.64324957       0.70524273       0.30988447
C       -2.19158552      -0.43258207      -0.10995653
N       -0.19262075      -1.12092598      -0.44737590
H        2.29447868      -0.15580645       0.99334032
H        2.49376982      -0.73730219      -0.67232271
H        2.37546430       0.99145013      -0.33897156
H        0.07398941       1.92965286       0.69487385
H       -2.89516155       0.84978695      -0.25744840
H       -2.84658578      -1.07959586       0.46139469
H        0.34273557      -1.96247234      -0.61175098
13
Frame=15 idx=002103 GeodesicLength=1.381634560649696 rxn_smarts="[C:1]([c:2]1[c:3]([H:10])[c:4]([H:11])[c:5]([H:12])[n:6]1[H:13])([H:7])([H:8])[H:9]>>[C:1](/[C:2]([C:3](=[C:4]=[C:5]([H:11])[H:12])[H:10])=[N:6]\[H:13])([H:7])([H:8])[H:9]"
C        1.99877894       0.00303530      -0.04437042
C        0.51164567      -0.02650404      -0.19705846
C       -0.32398911       1.06172172       0.21780042
C       -1.64362333       0.72754569       0.29547615
C       -2.16097569      -0.43655127      -0.09007391
N       -0.21001332      -1.10223660      -0.44098911
H        2.29020356      -0.19714476       0.98977187
H        2.48309462      -0.72804922      -0.69359774
H        2.38286077       0.99012013      -0.30615976
H        0.07946793       1.94414649       0.69438861
H       -2.91032876       0.80657072      -0.29509729
H       -2.80679445      -1.09085277       0.48196736
H        0.30967318      -1.95180140      -0.61205772
13
Frame=16 idx=002103 GeodesicLength=1.474363551513136 rxn_smarts="[C:1]([c:2]1[c:3]([H:10])[c:4]([H:11])[c:5]([H:12])[n:6]1[H:13])([H:7])([H:8])[H:9]>>[C:1](/[C:2]([C:3](=[C:4]=[C:5]([H:11])[H:12])[H:10])=[N:6]\[H:13])([H:7])([H:8])[H:9]"
C        1.99561782      -0.00302200      -0.04137162
C        0.50905013      -0.01294971      -0.19630542
C       -0.32064408       1.07921560       0.21185000
C       -1.64417657       0.74999641       0.27785127
C       -2.13120027      -0.43901134      -0.06909144
N       -0.22695822      -1.08344418      -0.43620636
H        2.28452894      -0.23909062       0.98591314
H        2.47302317      -0.71780249      -0.71367006
H        2.39015429       0.98770452      -0.27154604
H        0.08442135       1.95844415       0.69330343
H       -2.92463598       0.76027091      -0.33159077
H       -2.76619413      -1.09991586       0.50602597
H        0.27701356      -1.94039537      -0.61516209
