16
Frame=0 idx=002557 GeodesicLength=0.0 rxn_smarts="[C:1]([C:2]([C:3]([H:11])([H:12])[H:13])([C@@:4]1([H:14])[C:5]([H:15])([H:16])[O:6]1)[H:10])([H:7])([H:8])[H:9]>>[C:1](=[C:2]([C:3]([H:11])([H:12])[H:13])[H:10])([H:8])[H:9].[C:4]([C:5]([H:7])([H:15])[H:16])(=[O:6])[H:14]"
C       -0.36727888       1.20332336      -0.51117728
C       -0.66323448      -0.02765867       0.20459006
C       -1.54954141      -1.04924335      -0.48511862
C        0.86000374      -0.66979686       0.35263857
C        1.67106554       0.57340903       0.58970056
O        1.13207573      -1.44272229       1.33893919
H        0.98615201       1.29757711      -0.26887151
H       -0.65300610       2.16679448      -0.10202279
H       -0.34588817       1.16927347      -1.59877815
H       -0.99312655       0.16254474       1.22706825
H       -2.59424682      -0.73491179      -0.51394865
H       -1.49006111      -1.99594317       0.05610882
H       -1.22038264      -1.22630647      -1.51215487
H        1.05743209      -1.06462451      -0.67393969
H        2.74054087       0.55070705       0.37840285
H        1.42949622       1.08757787       1.51856325
16
Frame=1 idx=002557 GeodesicLength=0.11367601879754105 rxn_smarts="[C:1]([C:2]([C:3]([H:11])([H:12])[H:13])([C@@:4]1([H:14])[C:5]([H:15])([H:16])[O:6]1)[H:10])([H:7])([H:8])[H:9]>>[C:1](=[C:2]([C:3]([H:11])([H:12])[H:13])[H:10])([H:8])[H:9].[C:4]([C:5]([H:7])([H:15])[H:16])(=[O:6])[H:14]"
C       -0.37741449       1.20832254      -0.51695253
C       -0.67515098      -0.02131409       0.19731426
C       -1.55588566      -1.04923406      -0.48818056
C        0.86933357      -0.67224006       0.34942514
C        1.68615702       0.56163934       0.60150748
O        1.14576525      -1.42541067       1.34993260
H        0.99037080       1.30733114      -0.26090561
H       -0.67967666       2.16825812      -0.11144351
H       -0.35453943       1.17104256      -1.60454219
H       -1.00557963       0.16875366       1.21985048
H       -2.60293493      -0.74204375      -0.51024800
H       -1.48448815      -1.99529523       0.05291070
H       -1.23223195      -1.22123085      -1.51778391
H        1.06947620      -1.07229440      -0.67302775
H        2.75364834       0.53631964       0.38066784
H        1.45315072       1.07739609       1.53147557
16
Frame=2 idx=002557 GeodesicLength=0.2273295458248142 rxn_smarts="[C:1]([C:2]([C:3]([H:11])([H:12])[H:13])([C@@:4]1([H:14])[C:5]([H:15])([H:16])[O:6]1)[H:10])([H:7])([H:8])[H:9]>>[C:1](=[C:2]([C:3]([H:11])([H:12])[H:13])[H:10])([H:8])[H:9].[C:4]([C:5]([H:7])([H:15])[H:16])(=[O:6])[H:14]"
C       -0.38785958       1.21342873      -0.52295211
C       -0.68723341      -0.01476061       0.19002952
C       -1.56225830      -1.04913283      -0.49112631
C        0.87906251      -0.67461295       0.34633619
C        1.70161615       0.54968313       0.61364941
O        1.15911936      -1.40878357       1.36019574
H        0.99443800       1.31741322      -0.25240030
H       -0.70717405       2.16963617      -0.12179107
H       -0.36318300       1.17262022      -1.61050814
H       -1.01797218       0.17518094       1.21268663
H       -2.61158656      -0.74919952      -0.50645181
H       -1.47893233      -1.99438501       0.04985371
H       -1.24414508      -1.21626357      -1.52321462
H        1.08178327      -1.07971129      -0.67207753
H        2.76698085       0.52196286       0.38303567
H        1.47734434       1.06692409       1.54473502
16
Frame=3 idx=002557 GeodesicLength=0.3409670292662496 rxn_smarts="[C:1]([C:2]([C:3]([H:11])([H:12])[H:13])([C@@:4]1([H:14])[C:5]([H:15])([H:16])[O:6]1)[H:10])([H:7])([H:8])[H:9]>>[C:1](=[C:2]([C:3]([H:11])([H:12])[H:13])[H:10])([H:8])[H:9].[C:4]([C:5]([H:7])([H:15])[H:16])(=[O:6])[H:14]"
C       -0.39863037       1.21865335      -0.52918862
C       -0.69950035      -0.00798378       0.18272843
C       -1.56866181      -1.04893859      -0.49395150
C        0.88919821      -0.67689997       0.34335626
C        1.71746348       0.53752705       0.62612939
O        1.17214643      -1.39286109       1.36975465
H        0.99833157       1.32784180      -0.24332111
H       -0.73551857       2.17091732      -0.13310698
H       -0.37181687       1.17400789      -1.61668310
H       -1.03031290       0.18184689       1.20557109
H       -2.62020618      -0.75639011      -0.50254504
H       -1.47337462      -1.99320901       0.04694320
H       -1.25613328      -1.21140051      -1.52844872
H        1.09435793      -1.08686059      -0.67110704
H        2.78055379       0.50762401       0.38551469
H        1.50210357       1.05612536       1.55835440
16
Frame=4 idx=002557 GeodesicLength=0.45460290629337013 rxn_smarts="[C:1]([C:2]([C:3]([H:11])([H:12])[H:13])([C@@:4]1([H:14])[C:5]([H:15])([H:16])[O:6]1)[H:10])([H:7])([H:8])[H:9]>>[C:1](=[C:2]([C:3]([H:11])([H:12])[H:13])[H:10])([H:8])[H:9].[C:4]([C:5]([H:7])([H:15])[H:16])(=[O:6])[H:14]"
C       -0.40974521       1.22400981      -0.53567541
C       -0.71197225      -0.00096775       0.17540312
C       -1.57509853      -1.04864932      -0.49665101
C        0.89974987      -0.67908458       0.34046651
C        1.73372076       0.52515507       0.63895097
O        1.18485819      -1.37765803       1.37863628
H        1.00202595       1.33863556      -0.23363265
H       -0.76473207       2.17208552      -0.14544022
H       -0.38043999       1.17520718      -1.62307384
H       -1.04261194       0.18877404       1.19849785
H       -2.62879765      -0.76362763      -0.49851002
H       -1.46779417      -1.99176074       0.04418466
H       -1.26820895      -1.20663700      -1.53348703
H        1.10720524      -1.09372553      -0.67013644
H        2.79438471       0.49328797       0.38811620
H        1.52745603       1.04495542       1.57235105
16
Frame=5 idx=002557 GeodesicLength=0.5682378052037003 rxn_smarts="[C:1]([C:2]([C:3]([H:11])([H:12])[H:13])([C@@:4]1([H:14])[C:5]([H:15])([H:16])[O:6]1)[H:10])([H:7])([H:8])[H:9]>>[C:1](=[C:2]([C:3]([H:11])([H:12])[H:13])[H:10])([H:8])[H:9].[C:4]([C:5]([H:7])([H:15])[H:16])(=[O:6])[H:14]"
C       -0.42122213       1.22950982      -0.54242439
C       -0.72467028       0.00630218       0.16804613
C       -1.58157088      -1.04826370      -0.49922018
C        0.91072649      -0.68115142       0.33765115
C        1.75041070       0.51255101       0.65211533
O        1.19726326      -1.36318610       1.38686740
H        1.00549289       1.34981258      -0.22329220
H       -0.79483055       2.17312505      -0.15883718
H       -0.38905021       1.17622086      -1.62968496
H       -1.05487859       0.19598204       1.19146132
H       -2.63736514      -0.77092408      -0.49433218
H       -1.46217187      -1.99003371       0.04158245
H       -1.28038344      -1.20196892      -1.53832995
H        1.12033062      -1.10029210      -0.66918388
H        2.80849112       0.47894120       0.39084682
H        1.55342800       1.03337529       1.58673433
16
Frame=6 idx=002557 GeodesicLength=0.6818844678001126 rxn_smarts="[C:1]([C:2]([C:3]([H:11])([H:12])[H:13])([C@@:4]1([H:14])[C:5]([H:15])([H:16])[O:6]1)[H:10])([H:7])([H:8])[H:9]>>[C:1](=[C:2]([C:3]([H:11])([H:12])[H:13])[H:10])([H:8])[H:9].[C:4]([C:5]([H:7])([H:15])[H:16])(=[O:6])[H:14]"
C       -0.43308306       1.23516688      -0.54945057
C       -0.73761588       0.01384204       0.16064903
C       -1.58808141      -1.04777927      -0.50165387
C        0.92213800      -0.68308086       0.33489342
C        1.76755787       0.49969409       0.66562425
O        1.20937419      -1.34944916       1.39447093
H        1.00870222       1.36139037      -0.21225881
H       -0.82583383       2.17401365      -0.17334593
H       -0.39764576       1.17704981      -1.63652262
H       -1.06712653       0.20349516       1.18445417
H       -2.64591073      -0.77829087      -0.48999521
H       -1.45648798      -1.98801806       0.03914311
H       -1.29266865      -1.19739420      -1.54297686
H        1.13373953      -1.10654171      -0.66826734
H        2.82289328       0.46456869       0.39371664
H        1.58004873       1.02133345       1.60151966
16
Frame=7 idx=002557 GeodesicLength=0.7955433859978613 rxn_smarts="[C:1]([C:2]([C:3]([H:11])([H:12])[H:13])([C@@:4]1([H:14])[C:5]([H:15])([H:16])[O:6]1)[H:10])([H:7])([H:8])[H:9]>>[C:1](=[C:2]([C:3]([H:11])([H:12])[H:13])[H:10])([H:8])[H:9].[C:4]([C:5]([H:7])([H:15])[H:16])(=[O:6])[H:14]"
C       -0.44535126       1.24099459      -0.55676721
C       -0.75083342       0.02166769       0.15320366
C       -1.59463206      -1.04719416      -0.50394652
C        0.93399526      -0.68485367       0.33217663
C        1.78518656       0.48656536       0.67947684
O        1.22120208      -1.33644770       1.40147130
H        1.01161897       1.37338310      -0.20048480
H       -0.85775003       2.17472809      -0.18901780
H       -0.40622634       1.17769645      -1.64359031
H       -1.07936813       0.21133512       1.17746974
H       -2.65443757      -0.78574153      -0.48548233
H       -1.45072213      -1.98570338       0.03687119
H       -1.30507624      -1.19290928      -1.54742653
H        1.14743817      -1.11245704      -0.66740707
H        2.83761163       0.45015414       0.39673607
H        1.60734449       1.00878222       1.61671714
16
Frame=8 idx=002557 GeodesicLength=0.9092205966662334 rxn_smarts="[C:1]([C:2]([C:3]([H:11])([H:12])[H:13])([C@@:4]1([H:14])[C:5]([H:15])([H:16])[O:6]1)[H:10])([H:7])([H:8])[H:9]>>[C:1](=[C:2]([C:3]([H:11])([H:12])[H:13])[H:10])([H:8])[H:9].[C:4]([C:5]([H:7])([H:15])[H:16])(=[O:6])[H:14]"
C       -0.45805024       1.24700524      -0.56438861
C       -0.76434852       0.02979534       0.14570074
C       -1.60122614      -1.04650569      -0.50609465
C        0.94630886      -0.68645065       0.32948533
C        1.80332432       0.47314187       0.69367090
O        1.23275684      -1.32417684       1.40789322
H        1.01420728       1.38580615      -0.18792103
H       -0.89059455       2.17524529      -0.20589945
H       -0.41479201       1.17816500      -1.65089135
H       -1.09161719       0.21952459       1.17049981
H       -2.66294668      -0.79328922      -0.48078066
H       -1.44485504      -1.98307761       0.03477356
H       -1.31761586      -1.18851382      -1.55167803
H        1.16143189      -1.11802170      -0.66661789
H        2.85266979       0.43568078       0.39991251
H        1.63534727       0.99567128       1.63233561
16
Frame=9 idx=002557 GeodesicLength=1.022913981499523 rxn_smarts="[C:1]([C:2]([C:3]([H:11])([H:12])[H:13])([C@@:4]1([H:14])[C:5]([H:15])([H:16])[O:6]1)[H:10])([H:7])([H:8])[H:9]>>[C:1](=[C:2]([C:3]([H:11])([H:12])[H:13])[H:10])([H:8])[H:9].[C:4]([C:5]([H:7])([H:15])[H:16])(=[O:6])[H:14]"
C       -0.47120090       1.25321030      -0.57232676
C       -0.77818529       0.03824075       0.13813140
C       -1.60786390      -1.04571133      -0.50809386
C        0.95909013      -0.68785166       0.32680684
C        1.82199603       0.45939544       0.70820425
O        1.24404875      -1.31262583       1.41376199
H        1.01642426       1.39867685      -0.17451716
H       -0.92437368       2.17553802      -0.22403676
H       -0.42334342       1.17845954      -1.65842522
H       -1.10388793       0.22808603       1.16353579
H       -2.67143747      -0.80094609      -0.47587573
H       -1.43886830      -1.98012702       0.03285289
H       -1.33029660      -1.18420538      -1.55573019
H        1.17572732      -1.12322326      -0.66591345
H        2.86808960       0.42113186       0.40324849
H        1.66408141       0.98195178       1.64837751
16
Frame=10 idx=002557 GeodesicLength=1.1366244657811635 rxn_smarts="[C:1]([C:2]([C:3]([H:11])([H:12])[H:13])([C@@:4]1([H:14])[C:5]([H:15])([H:16])[O:6]1)[H:10])([H:7])([H:8])[H:9]>>[C:1](=[C:2]([C:3]([H:11])([H:12])[H:13])[H:10])([H:8])[H:9].[C:4]([C:5]([H:7])([H:15])[H:16])(=[O:6])[H:14]"
C       -0.48483835       1.25962624      -0.58059947
C       -0.79237502       0.04702165       0.13048588
C       -1.61454942      -1.04480802      -0.50993894
C        0.97235222      -0.68903101       0.32412326
C        1.84123382       0.44530537       0.72306996
O        1.25508979      -1.30178293       1.41909872
H        1.01822653       1.41199960      -0.16021136
H       -0.95908544       2.17557291      -0.24348217
H       -0.43188175       1.17858383      -1.66619524
H       -1.11620088       0.23704402       1.15656892
H       -2.67991047      -0.80872889      -0.47075108
H       -1.43273892      -1.97683554       0.03111683
H       -1.34312998      -1.17998398      -1.55957992
H        1.19032966      -1.12803769      -0.66531376
H        2.88390134       0.40648390       0.40676099
H        1.69357685       0.96757055       1.66484737
16
Frame=11 idx=002557 GeodesicLength=1.250350941742059 rxn_smarts="[C:1]([C:2]([C:3]([H:11])([H:12])[H:13])([C@@:4]1([H:14])[C:5]([H:15])([H:16])[O:6]1)[H:10])([H:7])([H:8])[H:9]>>[C:1](=[C:2]([C:3]([H:11])([H:12])[H:13])[H:10])([H:8])[H:9].[C:4]([C:5]([H:7])([H:15])[H:16])(=[O:6])[H:14]"
C       -0.49899490       1.26626576      -0.58922431
C       -0.80694896       0.05615449       0.12275381
C       -1.62128473      -1.04379458      -0.51162554
C        0.98610772      -0.68996071       0.32142381
C        1.86106740       0.43084449       0.73826245
O        1.26588879      -1.29162756       1.42392267
H        1.01956430       1.42577903      -0.14495428
H       -0.99471261       2.17532341      -0.26427184
H       -0.44041282       1.17854158      -1.67420341
H       -1.12857706       0.24642272       1.14958834
H       -2.68836430      -0.81665544      -0.46539301
H       -1.42644583      -1.97318649       0.02957109
H       -1.35612295      -1.17585229      -1.56322400
H        1.20524528      -1.13244351      -0.66483228
H        2.90013286       0.39171611       0.41045927
H        1.72385782       0.95247300       1.68174722
16
Frame=12 idx=002557 GeodesicLength=1.3640920936616265 rxn_smarts="[C:1]([C:2]([C:3]([H:11])([H:12])[H:13])([C@@:4]1([H:14])[C:5]([H:15])([H:16])[O:6]1)[H:10])([H:7])([H:8])[H:9]>>[C:1](=[C:2]([C:3]([H:11])([H:12])[H:13])[H:10])([H:8])[H:9].[C:4]([C:5]([H:7])([H:15])[H:16])(=[O:6])[H:14]"
C       -0.51370319       1.27314226      -0.59821654
C       -0.82194142       0.06565668       0.11492495
C       -1.62807117      -1.04266770      -0.51314905
C        1.00037205      -0.69061455       0.31869555
C        1.88152968       0.41598416       0.75377335
O        1.27645613      -1.28213588       1.42825595
H        1.02038774       1.44001742      -0.12868303
H       -1.03125208       2.17475340      -0.28645523
H       -0.44894038       1.17833987      -1.68244692
H       -1.14103779       0.25624617       1.14258373
H       -2.69679753      -0.82474180      -0.45978774
H       -1.41996866      -1.96915816       0.02821970
H       -1.36928422      -1.17181060      -1.56665919
H        1.22047993      -1.13642212      -0.66448348
H        2.91681790       0.37680398       0.41435465
H        1.75495301       0.93660689       1.69907330
16
Frame=13 idx=002557 GeodesicLength=1.4778394995401096 rxn_smarts="[C:1]([C:2]([C:3]([H:11])([H:12])[H:13])([C@@:4]1([H:14])[C:5]([H:15])([H:16])[O:6]1)[H:10])([H:7])([H:8])[H:9]>>[C:1](=[C:2]([C:3]([H:11])([H:12])[H:13])[H:10])([H:8])[H:9].[C:4]([C:5]([H:7])([H:15])[H:16])(=[O:6])[H:14]"
C       -0.52899945       1.28026941      -0.60759157
C       -0.83738750       0.07554385       0.10698901
C       -1.63491055      -1.04142517      -0.51450613
C        1.01515947      -0.69096238       0.31593063
C        1.90265394       0.40069299       0.76959285
O        1.28679979      -1.27327959       1.43211965
H        1.02064064       1.45471296      -0.11134214
H       -1.06867670       2.17382802      -0.31007004
H       -0.45747154       1.17798540      -1.69092148
H       -1.15360903       0.26653683       1.13554391
H       -2.70520705      -0.83300651      -0.45392292
H       -1.41328579      -1.96473075       0.02706624
H       -1.38261962      -1.16785931      -1.56988295
H        1.23603824      -1.13995261      -0.66427763
H        2.93398926       0.36172293       0.41845564
H        1.78688590       0.91992393       1.71681693
16
Frame=14 idx=002557 GeodesicLength=1.5915954813264006 rxn_smarts="[C:1]([C:2]([C:3]([H:11])([H:12])[H:13])([C@@:4]1([H:14])[C:5]([H:15])([H:16])[O:6]1)[H:10])([H:7])([H:8])[H:9]>>[C:1](=[C:2]([C:3]([H:11])([H:12])[H:13])[H:10])([H:8])[H:9].[C:4]([C:5]([H:7])([H:15])[H:16])(=[O:6])[H:14]"
C       -0.54492448       1.28766031      -0.61737132
C       -0.85332699       0.08583534       0.09893310
C       -1.64180393      -1.04006336      -0.51569231
C        1.03048781      -0.69096931       0.31311835
C        1.92447795       0.38493927       0.78570941
O        1.29692848      -1.26502103       1.43553323
H        1.02026570       1.46985739      -0.09287225
H       -1.10697138       2.17251232      -0.33515372
H       -0.46601707       1.17748627      -1.69962698
H       -1.16631884       0.27732225       1.12845462
H       -2.71358733      -0.84146904      -0.44778450
H       -1.40637430      -1.95987782       0.02611673
H       -1.39613467      -1.16400396      -1.57289020
H        1.25192625      -1.14301044      -0.66422562
H        2.95168894       0.34644108       0.42277809
H        1.81968386       0.90236074       1.73497337
16
Frame=15 idx=002557 GeodesicLength=1.7053451834206417 rxn_smarts="[C:1]([C:2]([C:3]([H:11])([H:12])[H:13])([C@@:4]1([H:14])[C:5]([H:15])([H:16])[O:6]1)[H:10])([H:7])([H:8])[H:9]>>[C:1](=[C:2]([C:3]([H:11])([H:12])[H:13])[H:10])([H:8])[H:9].[C:4]([C:5]([H:7])([H:15])[H:16])(=[O:6])[H:14]"
C       -0.56152028       1.29532711      -0.62757521
C       -0.86979984       0.09654769       0.09074484
C       -1.64875163      -1.03857991      -0.51670460
C        1.04637489      -0.69059977       0.31025159
C        1.94703771       0.36869095       0.80210799
O        1.30684946      -1.25732009       1.43851717
H        1.01920258       1.48543663      -0.07321634
H       -1.14610337       2.17077309      -0.36173483
H       -0.47459090       1.17685353      -1.70855963
H       -1.17919860       0.28862663       1.12130145
H       -2.72193207      -0.85014985      -0.44136068
H       -1.39921059      -1.95457405       0.02537528
H       -1.40983294      -1.16024922      -1.57567727
H        1.26814838      -1.14557278      -0.66433447
H        2.96995819       0.33092232       0.42733695
H        1.85336902       0.88386773       1.75352775
16
Frame=16 idx=002557 GeodesicLength=1.8190789161496088 rxn_smarts="[C:1]([C:2]([C:3]([H:11])([H:12])[H:13])([C@@:4]1([H:14])[C:5]([H:15])([H:16])[O:6]1)[H:10])([H:7])([H:8])[H:9]>>[C:1](=[C:2]([C:3]([H:11])([H:12])[H:13])[H:10])([H:8])[H:9].[C:4]([C:5]([H:7])([H:15])[H:16])(=[O:6])[H:14]"
C       -0.57883245       1.30328215      -0.63822435
C       -0.88685070       0.10769842       0.08241077
C       -1.65575425      -1.03697120      -0.51753948
C        1.06284051      -0.68981442       0.30732423
C        1.97037278       0.35191259       0.81877425
O        1.31656966      -1.25013102       1.44109062
H        1.01738812       1.50143160      -0.05231738
H       -1.18603830       2.16857294      -0.38984318
H       -0.48320699       1.17609739      -1.71771372
H       -1.19228191       0.30047519       1.11406868
H       -2.73023408      -0.85907098      -0.43463781
H       -1.39177079      -1.94878958       0.02484569
H       -1.42371820      -1.15659929      -1.57823983
H        1.28470935      -1.14761434      -0.66461248
H        2.98884412       0.31512835       0.43214954
H        1.88796313       0.86439221       1.77246446
