14
Frame=0 idx=008248 GeodesicLength=0.0 rxn_smarts="[C:1]([C@:2]12[N:3]([H:11])[C@@:4]1([H:12])[C:5]([H:13])([H:14])[C:6]2=[O:7])([H:8])([H:9])[H:10]>>[C:1]([C@:2]12[N:3]3[C@@:4]1([H:12])[C:5]([H:13])([H:14])[C@:6]23[O:7][H:11])([H:8])([H:9])[H:10]"
C       -1.97277076       0.15420364       0.10096133
C       -0.49696794       0.01866219       0.08275991
N        0.30257622      -1.07670322       0.61909696
C        0.67798519       0.31790492       0.95831488
C        1.62506196       0.63453630      -0.19534939
C        0.58697320      -0.23854890      -0.89414511
O        0.69607714      -1.20957153      -1.74999362
H       -2.27785744       1.15669910      -0.20095189
H       -2.35127816      -0.04348552       1.10423368
H       -2.41828844      -0.56769362      -0.58504629
H        0.67338853      -1.67124115      -0.55899787
H        0.68180407       0.64576081       1.98814721
H        2.62757979       0.20953973      -0.13037629
H        1.64571664       1.66993724      -0.53865357
14
Frame=1 idx=008248 GeodesicLength=0.06149069811595024 rxn_smarts="[C:1]([C@:2]12[N:3]([H:11])[C@@:4]1([H:12])[C:5]([H:13])([H:14])[C:6]2=[O:7])([H:8])([H:9])[H:10]>>[C:1]([C@:2]12[N:3]3[C@@:4]1([H:12])[C:5]([H:13])([H:14])[C@:6]23[O:7][H:11])([H:8])([H:9])[H:10]"
C       -1.97288006       0.15342898       0.10120865
C       -0.49701844       0.01949227       0.08423655
N        0.30222952      -1.07631152       0.62055486
C        0.67834456       0.31723842       0.95939179
C        1.62524940       0.63414009      -0.19435834
C        0.58362199      -0.23131498      -0.89851616
O        0.69160357      -1.19935014      -1.75637577
H       -2.27817955       1.15342738      -0.20871809
H       -2.35053661      -0.03709880       1.10618658
H       -2.41878584      -0.57372954      -0.57895597
H        0.67871014      -1.68453248      -0.55873493
H        0.68060090       0.64782892       1.98826000
H        2.62690217       0.20718975      -0.12705771
H        1.65013825       1.66959164      -0.53712144
14
Frame=2 idx=008248 GeodesicLength=0.12295628668947256 rxn_smarts="[C:1]([C@:2]12[N:3]([H:11])[C@@:4]1([H:12])[C:5]([H:13])([H:14])[C:6]2=[O:7])([H:8])([H:9])[H:10]>>[C:1]([C@:2]12[N:3]3[C@@:4]1([H:12])[C:5]([H:13])([H:14])[C@:6]23[O:7][H:11])([H:8])([H:9])[H:10]"
C       -1.97300317       0.15266037       0.10145653
C       -0.49707999       0.02036298       0.08567083
N        0.30187432      -1.07588960       0.62194826
C        0.67869450       0.31659385       0.96042824
C        1.62543084       0.63376103      -0.19340597
C        0.58020313      -0.22385171      -0.90295866
O        0.68720342      -1.18914980      -1.76254744
H       -2.27855332       1.15012510      -0.21634101
H       -2.34980626      -0.03081129       1.10806785
H       -2.41927566      -0.57964615      -0.57291077
H        0.68408001      -1.69812796      -0.55837538
H        0.67940879       0.64989325       1.98833082
H        2.62619084       0.20480886      -0.12381487
H        1.65463255       1.66927107      -0.53554841
14
Frame=3 idx=008248 GeodesicLength=0.18441191928868025 rxn_smarts="[C:1]([C@:2]12[N:3]([H:11])[C@@:4]1([H:12])[C:5]([H:13])([H:14])[C:6]2=[O:7])([H:8])([H:9])[H:10]>>[C:1]([C@:2]12[N:3]3[C@@:4]1([H:12])[C:5]([H:13])([H:14])[C@:6]23[O:7][H:11])([H:8])([H:9])[H:10]"
C       -1.97314012       0.15189810       0.10170446
C       -0.49715255       0.02127536       0.08706088
N        0.30151096      -1.07543735       0.62327245
C        0.67903501       0.31597056       0.96142278
C        1.62560573       0.63340076      -0.19249347
C        0.57671467      -0.21614886      -0.90747468
O        0.68287665      -1.17896381      -1.76851101
H       -2.27898030       1.14679445      -0.22382332
H       -2.34908609      -0.02462109       1.10988003
H       -2.41975777      -0.58544716      -0.56691120
H        0.68949982      -1.71204552      -0.55790438
H        0.67822837       0.65195014       1.98835951
H        2.62544465       0.20239708      -0.12065093
H        1.65920097       1.66897735      -0.53393112
14
Frame=4 idx=008248 GeodesicLength=0.24586265139417712 rxn_smarts="[C:1]([C@:2]12[N:3]([H:11])[C@@:4]1([H:12])[C:5]([H:13])([H:14])[C:6]2=[O:7])([H:8])([H:9])[H:10]>>[C:1]([C@:2]12[N:3]3[C@@:4]1([H:12])[C:5]([H:13])([H:14])[C@:6]23[O:7][H:11])([H:8])([H:9])[H:10]"
C       -1.97329101       0.15114252       0.10195170
C       -0.49723609       0.02223082       0.08840451
N        0.30113973      -1.07495459       0.62452232
C        0.67936611       0.31536793       0.96237365
C        1.62577327       0.63306119      -0.19162255
C        0.57315459      -0.20819602      -0.91206650
O        0.67862475      -1.16878916      -1.77426581
H       -2.27946205       1.14343831      -0.23116386
H       -2.34837528      -0.01852956       1.11162424
H       -2.42023196      -0.59113263      -0.56095964
H        0.69497087      -1.72630268      -0.55730717
H        0.67706045       0.65399600       1.98834559
H        2.62466234       0.19995521      -0.11756943
H        1.66384427       1.66871266      -0.53226704
14
Frame=5 idx=008248 GeodesicLength=0.3073200328974116 rxn_smarts="[C:1]([C@:2]12[N:3]([H:11])[C@@:4]1([H:12])[C:5]([H:13])([H:14])[C:6]2=[O:7])([H:8])([H:9])[H:10]>>[C:1]([C@:2]12[N:3]3[C@@:4]1([H:12])[C:5]([H:13])([H:14])[C@:6]23[O:7][H:11])([H:8])([H:9])[H:10]"
C       -1.97345577       0.15039418       0.10219784
C       -0.49733046       0.02323059       0.08969970
N        0.30076103      -1.07444106       0.62569337
C        0.67968791       0.31478562       0.96327913
C        1.62593271       0.63274415      -0.19079489
C        0.56952086      -0.19998293      -0.91673583
O        0.67444752      -1.15861921      -1.77981300
H       -2.28000011       1.14006099      -0.23836351
H       -2.34767300      -0.01253819       1.11330336
H       -2.42069763      -0.59670511      -0.55505948
H        0.70049489      -1.74091904      -0.55656768
H        0.67590580       0.65602772       1.98828861
H        2.62384256       0.19748362      -0.11457413
H        1.66856369       1.66847866      -0.53055348
14
Frame=6 idx=008248 GeodesicLength=0.36878612653919274 rxn_smarts="[C:1]([C@:2]12[N:3]([H:11])[C@@:4]1([H:12])[C:5]([H:13])([H:14])[C:6]2=[O:7])([H:8])([H:9])[H:10]>>[C:1]([C@:2]12[N:3]3[C@@:4]1([H:12])[C:5]([H:13])([H:14])[C@:6]23[O:7][H:11])([H:8])([H:9])[H:10]"
C       -1.97363438       0.14965391       0.10244214
C       -0.49743541       0.02427634       0.09094375
N        0.30037488      -1.07389653       0.62678010
C        0.68000058       0.31422323       0.96413721
C        1.62608317       0.63245199      -0.19001278
C        0.56581144      -0.19149763      -0.92148548
O        0.67034737      -1.14845208      -1.78514818
H       -2.28059666       1.13666523      -0.24541862
H       -2.34697808      -0.00664982       1.11491723
H       -2.42115426      -0.60216304      -0.54921432
H        0.70607215      -1.75591548      -0.55567198
H        0.67476534       0.65804197       1.98818793
H        2.62298410       0.19498374      -0.11166916
H        1.67335977       1.66827816      -0.52878785
14
Frame=7 idx=008248 GeodesicLength=0.4294258079755824 rxn_smarts="[C:1]([C@:2]12[N:3]([H:11])[C@@:4]1([H:12])[C:5]([H:13])([H:14])[C:6]2=[O:7])([H:8])([H:9])[H:10]>>[C:1]([C@:2]12[N:3]3[C@@:4]1([H:12])[C:5]([H:13])([H:14])[C@:6]23[O:7][H:11])([H:8])([H:9])[H:10]"
C       -1.97383253       0.14891077       0.10268461
C       -0.49756141       0.02533674       0.09217518
N        0.29996267      -1.07334243       0.62788800
C        0.68029999       0.31368622       0.96498430
C        1.62623174       0.63213547      -0.18924415
C        0.56207952      -0.18292338      -0.92622667
O        0.66622619      -1.13825930      -1.79042789
H       -2.28122091       1.13322233      -0.25242486
H       -2.34631337      -0.00076083       1.11649594
H       -2.42161523      -0.60759966      -0.54335519
H        0.71177607      -1.77095642      -0.55482016
H        0.67362507       0.66007711       1.98806653
H        2.62212915       0.19243836      -0.10876966
H        1.67821306       1.66803502      -0.52702597
14
Frame=8 idx=008248 GeodesicLength=0.49172147453605597 rxn_smarts="[C:1]([C@:2]12[N:3]([H:11])[C@@:4]1([H:12])[C:5]([H:13])([H:14])[C:6]2=[O:7])([H:8])([H:9])[H:10]>>[C:1]([C@:2]12[N:3]3[C@@:4]1([H:12])[C:5]([H:13])([H:14])[C@:6]23[O:7][H:11])([H:8])([H:9])[H:10]"
C       -1.97403129       0.14819971       0.10292144
C       -0.49767566       0.02650833       0.09327139
N        0.29958324      -1.07271394       0.62868781
C        0.68060125       0.31315534       0.96570293
C        1.62634893       0.63195094      -0.18859798
C        0.55815851      -0.17368425      -0.93122773
O        0.66239175      -1.12811974      -1.79518638
H       -2.28196104       1.12985283      -0.25905826
H       -2.34561324       0.00477144       1.11795232
H       -2.42203480      -0.61271271      -0.53773749
H        0.71738131      -1.78711204      -0.55332242
H        0.67253371       0.66200795       1.98785123
H        2.62114501       0.18991283      -0.10615086
H        1.68317231       1.66798331      -0.52510602
14
Frame=9 idx=008248 GeodesicLength=0.5532297012350454 rxn_smarts="[C:1]([C@:2]12[N:3]([H:11])[C@@:4]1([H:12])[C:5]([H:13])([H:14])[C:6]2=[O:7])([H:8])([H:9])[H:10]>>[C:1]([C@:2]12[N:3]3[C@@:4]1([H:12])[C:5]([H:13])([H:14])[C@:6]23[O:7][H:11])([H:8])([H:9])[H:10]"
C       -1.97424933       0.14748833       0.10315433
C       -0.49781074       0.02769739       0.09434925
N        0.29917890      -1.07207114       0.62950684
C        0.68088920       0.31265738       0.96640399
C        1.62646107       0.63174630      -0.18797575
C        0.55420882      -0.16433534      -0.93622401
O        0.65853447      -1.11795308      -1.79987015
H       -2.28272944       1.12646500      -0.26559100
H       -2.34494710       0.01024801       1.11936549
H       -2.42245512      -0.61776951      -0.53215720
H        0.72312633      -1.80337911      -0.55182091
H        0.67144351       0.66397138       1.98760777
H        2.62016077       0.18734483      -0.10355090
H        1.68818866       1.66788957      -0.52319774
14
Frame=10 idx=008248 GeodesicLength=0.6147487436159017 rxn_smarts="[C:1]([C@:2]12[N:3]([H:11])[C@@:4]1([H:12])[C:5]([H:13])([H:14])[C:6]2=[O:7])([H:8])([H:9])[H:10]>>[C:1]([C@:2]12[N:3]3[C@@:4]1([H:12])[C:5]([H:13])([H:14])[C@:6]23[O:7][H:11])([H:8])([H:9])[H:10]"
C       -1.97448010       0.14678756       0.10338197
C       -0.49795508       0.02893698       0.09536544
N        0.29876974      -1.07139782       0.63021927
C        0.68116942       0.31217547       0.96704858
C        1.62655889       0.63157604      -0.18740950
C        0.55017557      -0.15467136      -0.94130760
O        0.65475884      -1.10777003      -1.80433844
H       -2.28355968       1.12308054      -0.27196482
H       -2.34428547       0.01560133       1.12071906
H       -2.42286330      -0.62270642      -0.52665699
H        0.72892699      -1.82010969      -0.55008276
H        0.67037129       0.66590298       1.98731674
H        2.61913176       0.18475597      -0.10106031
H        1.69328111       1.66783844      -0.52123065
14
Frame=11 idx=008248 GeodesicLength=0.6762827969339498 rxn_smarts="[C:1]([C@:2]12[N:3]([H:11])[C@@:4]1([H:12])[C:5]([H:13])([H:14])[C:6]2=[O:7])([H:8])([H:9])[H:10]>>[C:1]([C@:2]12[N:3]3[C@@:4]1([H:12])[C:5]([H:13])([H:14])[C@:6]23[O:7][H:11])([H:8])([H:9])[H:10]"
C       -1.97472299       0.14609841       0.10360301
C       -0.49810804       0.03022866       0.09631636
N        0.29835631      -1.07069438       0.63081878
C        0.68144241       0.31170876       0.96763400
C        1.62664088       0.63144313      -0.18690250
C        0.54605654      -0.14467923      -0.94648050
O        0.65106571      -1.09756354      -1.80858711
H       -2.28445300       1.11970535      -0.27817503
H       -2.34362661       0.02082537       1.12201413
H       -2.42325844      -0.62752191      -0.52124441
H        0.73478357      -1.83733027      -0.54808597
H        0.66931818       0.66779865       1.98697693
H        2.61805632       0.18214876      -0.09868480
H        1.69844915       1.66783225      -0.51920289
14
Frame=12 idx=008248 GeodesicLength=0.7378200952508976 rxn_smarts="[C:1]([C@:2]12[N:3]([H:11])[C@@:4]1([H:12])[C:5]([H:13])([H:14])[C:6]2=[O:7])([H:8])([H:9])[H:10]>>[C:1]([C@:2]12[N:3]3[C@@:4]1([H:12])[C:5]([H:13])([H:14])[C@:6]23[O:7][H:11])([H:8])([H:9])[H:10]"
C       -1.97497732       0.14542173       0.10381661
C       -0.49826892       0.03157321       0.09719934
N        0.29793891      -1.06996139       0.63130083
C        0.68170861       0.31125608       0.96815809
C        1.62670501       0.63135004      -0.18645798
C        0.54185011      -0.13434950      -0.95174307
O        0.64745542      -1.08732871      -1.81261261
H       -2.28540992       1.11634593      -0.28421578
H       -2.34296961       0.02591331       1.12325085
H       -2.42363946      -0.63221214      -0.51592796
H        0.74069823      -1.85506338      -0.54581212
H        0.66828526       0.66965550       1.98658726
H        2.61693276       0.17952620      -0.09642960
H        1.70369093       1.66787312      -0.51711386
14
Frame=13 idx=008248 GeodesicLength=0.798423280755827 rxn_smarts="[C:1]([C@:2]12[N:3]([H:11])[C@@:4]1([H:12])[C:5]([H:13])([H:14])[C:6]2=[O:7])([H:8])([H:9])[H:10]>>[C:1]([C@:2]12[N:3]3[C@@:4]1([H:12])[C:5]([H:13])([H:14])[C@:6]23[O:7][H:11])([H:8])([H:9])[H:10]"
C       -1.97521151       0.14475475       0.10403260
C       -0.49844183       0.03294470       0.09805273
N        0.29754223      -1.06923321       0.63165860
C        0.68196463       0.31082282       0.96866036
C        1.62677323       0.63130645      -0.18605674
C        0.53761412      -0.12392628      -0.95701168
O        0.64388935      -1.07714445      -1.81648285
H       -2.28639342       1.11298117      -0.29018343
H       -2.34232062       0.03098055       1.12444738
H       -2.42402995      -0.63680323      -0.51065480
H        0.74662073      -1.87304257      -0.54343776
H        0.66727326       0.67143888       1.98619897
H        2.61579731       0.17695862      -0.09423214
H        1.70892247       1.66796181      -0.51499125
14
Frame=14 idx=008248 GeodesicLength=0.8608792444559535 rxn_smarts="[C:1]([C@:2]12[N:3]([H:11])[C@@:4]1([H:12])[C:5]([H:13])([H:14])[C:6]2=[O:7])([H:8])([H:9])[H:10]>>[C:1]([C@:2]12[N:3]3[C@@:4]1([H:12])[C:5]([H:13])([H:14])[C@:6]23[O:7][H:11])([H:8])([H:9])[H:10]"
C       -1.97551507       0.14410996       0.10421573
C       -0.49860956       0.03442316       0.09874925
N        0.29709647      -1.06841207       0.63189177
C        0.68222614       0.31038447       0.96901332
C        1.62676904       0.63129866      -0.18577172
C        0.53317236      -0.11264576      -0.96253524
O        0.64049700      -1.06673980      -1.81999484
H       -2.28750813       1.10970470      -0.29576523
H       -2.34165794       0.03564556       1.12555189
H       -2.42435232      -0.64119997      -0.50562405
H        0.75267879      -1.89216733      -0.54032543
H        0.66628996       0.67323064       1.98565608
H        2.61453574       0.17426126      -0.09230584
H        1.71437752       1.66810653      -0.51275569
14
Frame=15 idx=008248 GeodesicLength=0.9224003757378838 rxn_smarts="[C:1]([C@:2]12[N:3]([H:11])[C@@:4]1([H:12])[C:5]([H:13])([H:14])[C:6]2=[O:7])([H:8])([H:9])[H:10]>>[C:1]([C@:2]12[N:3]3[C@@:4]1([H:12])[C:5]([H:13])([H:14])[C@:6]23[O:7][H:11])([H:8])([H:9])[H:10]"
C       -1.97579626       0.14347860       0.10439847
C       -0.49878740       0.03592819       0.09940915
N        0.29667316      -1.06759448       0.63199731
C        0.68247852       0.30996828       0.96933602
C        1.62676285       0.63134661      -0.18554316
C        0.52869594      -0.10125504      -0.96806723
O        0.63714839      -1.05638315      -1.82333650
H       -2.28864606       1.10646020      -0.30121723
H       -2.34100486       0.04022545       1.12661104
H       -2.42467985      -0.64545868      -0.50069919
H        0.75875347      -1.91160062      -0.53704398
H        0.66533011       0.67495482       1.98510611
H        2.61325728       0.17162720      -0.09045317
H        1.71981472       1.66830262      -0.51049766
14
Frame=16 idx=008248 GeodesicLength=0.9838983014519497 rxn_smarts="[C:1]([C@:2]12[N:3]([H:11])[C@@:4]1([H:12])[C:5]([H:13])([H:14])[C:6]2=[O:7])([H:8])([H:9])[H:10]>>[C:1]([C@:2]12[N:3]3[C@@:4]1([H:12])[C:5]([H:13])([H:14])[C@:6]23[O:7][H:11])([H:8])([H:9])[H:10]"
C       -1.97608411       0.14286338       0.10456778
C       -0.49896849       0.03748777       0.09998726
N        0.29625084      -1.06675103       0.63196424
C        0.68272803       0.30956069       0.96958592
C        1.62672984       0.63144800      -0.18539352
C        0.52412752      -0.08948840      -0.97368964
O        0.63388495      -1.04596558      -1.82644738
H       -2.28984400       1.10326769      -0.30646334
H       -2.34034968       0.04462198       1.12761320
H       -2.42498648      -0.64957069      -0.49592200
H        0.76487775      -1.93165275      -0.53337459
H        0.66439593       0.67662682       1.98449959
H        2.61192434       0.16899626      -0.08874690
H        1.72531357       1.66855584      -0.50818061
