14
Frame=0 idx=002324 GeodesicLength=0.0 rxn_smarts="[O:1]=[C:2]([C:3]([C:4]1([H:10])[C:5]([H:11])([H:12])[C:6]1([H:13])[H:14])([H:8])[H:9])[H:7]>>[C:5](=[C:6]([H:13])[H:14])([H:11])[H:12].[O:1]=[C:2]([C:4](=[C:3]([H:8])[H:9])[H:10])[H:7]"
O        2.15973860       0.61035257      -1.54756425
C        1.43736335       0.75755822      -0.58228634
C        1.21237200      -0.46779575       0.82684245
C        0.30690102      -0.25821329      -0.24120760
C       -1.91866223      -0.64685009       0.03372356
C       -1.16014344       0.52585983      -0.04269097
H        1.32304195       1.71185761      -0.04547773
H        1.76588472      -1.39214396       0.92276596
H        1.24973433       0.22085594       1.65992720
H        0.27241192      -1.01521775      -1.01559290
H       -2.38614379      -1.06708960      -0.84680643
H       -1.92940255      -1.24123647       0.93768792
H       -1.30793991       1.14833678      -0.92007798
H       -1.02515592       1.11372593       0.86075709
14
Frame=1 idx=002324 GeodesicLength=0.10649241722223832 rxn_smarts="[O:1]=[C:2]([C:3]([C:4]1([H:10])[C:5]([H:11])([H:12])[C:6]1([H:13])[H:14])([H:8])[H:9])[H:7]>>[C:5](=[C:6]([H:13])[H:14])([H:11])[H:12].[O:1]=[C:2]([C:4](=[C:3]([H:8])[H:9])[H:10])[H:7]"
O        2.12440665       0.63306033      -1.57929757
C        1.45768839       0.76090479      -0.57313444
C        1.22392271      -0.47115396       0.82631533
C        0.30955427      -0.26235347      -0.23257626
C       -1.91634267      -0.65391507       0.03012830
C       -1.18056695       0.53341742      -0.04741119
H        1.38302649       1.71101999      -0.02059127
H        1.76886827      -1.40101740       0.92224451
H        1.26556900       0.20953270       1.66623243
H        0.26914204      -1.01786837      -1.00785888
H       -2.36641509      -1.09079893      -0.85142789
H       -1.95528651      -1.22468655       0.94841791
H       -1.31898120       1.14431447      -0.93418983
H       -1.06458540       1.12954405       0.85314885
14
Frame=2 idx=002324 GeodesicLength=0.21294369575122776 rxn_smarts="[O:1]=[C:2]([C:3]([C:4]1([H:10])[C:5]([H:11])([H:12])[C:6]1([H:13])[H:14])([H:8])[H:9])[H:7]>>[C:5](=[C:6]([H:13])[H:14])([H:11])[H:12].[O:1]=[C:2]([C:4](=[C:3]([H:8])[H:9])[H:10])[H:7]"
O        2.08685805       0.65888240      -1.60853184
C        1.47872608       0.76392323      -0.56426601
C        1.23570754      -0.47466906       0.82563448
C        0.31222382      -0.26646131      -0.22373307
C       -1.91383537      -0.66100953       0.02741916
C       -1.20177711       0.54082437      -0.05284408
H        1.44664846       1.70804038       0.00404199
H        1.77185665      -1.41007995       0.92151538
H        1.28220421       0.19803741       1.67221626
H        0.26589853      -1.02025672      -1.00010326
H       -2.34680592      -1.11460173      -0.85433323
H       -1.98164473      -1.20800946       0.95842033
H       -1.33045228       1.13931217      -0.94927967
H       -1.10560792       1.14606780       0.84384357
14
Frame=3 idx=002324 GeodesicLength=0.319361204889284 rxn_smarts="[O:1]=[C:2]([C:3]([C:4]1([H:10])[C:5]([H:11])([H:12])[C:6]1([H:13])[H:14])([H:8])[H:9])[H:7]>>[C:5](=[C:6]([H:13])[H:14])([H:11])[H:12].[O:1]=[C:2]([C:4](=[C:3]([H:8])[H:9])[H:10])[H:7]"
O        2.04727768       0.68785529      -1.63485447
C        1.50045675       0.76664084      -0.55576783
C        1.24771180      -0.47826632       0.82478291
C        0.31486663      -0.27046935      -0.21466120
C       -1.91118485      -0.66813865       0.02562370
C       -1.22388180       0.54805639      -0.05897026
H        1.51421712       1.70265118       0.02810552
H        1.77482994      -1.41925605       0.92055846
H        1.29971562       0.18649497       1.67781755
H        0.26264054      -1.02228139      -0.99234887
H       -2.32734291      -1.13850310      -0.85552482
H       -2.00844438      -1.19132644       0.96766527
H       -1.34245385       1.13334081      -0.96525617
H       -1.14840830       1.16320180       0.83283022
14
Frame=4 idx=002324 GeodesicLength=0.4257544948111459 rxn_smarts="[O:1]=[C:2]([C:3]([C:4]1([H:10])[C:5]([H:11])([H:12])[C:6]1([H:13])[H:14])([H:8])[H:9])[H:7]>>[C:5](=[C:6]([H:13])[H:14])([H:11])[H:12].[O:1]=[C:2]([C:4](=[C:3]([H:8])[H:9])[H:10])[H:7]"
O        2.00604809       0.72022855      -1.65775627
C        1.52283384       0.76915458      -0.54769110
C        1.25990722      -0.48193739       0.82368272
C        0.31744563      -0.27430351      -0.20541340
C       -1.90838961      -0.67532990       0.02486201
C       -1.24699926       0.55508193      -0.06584587
H        1.58603357       1.69450617       0.05140160
H        1.77775927      -1.42854667       0.91923818
H        1.31812164       0.17490322       1.68297912
H        0.25934404      -1.02377464      -0.98475586
H       -2.30800475      -1.16268885      -0.85483145
H       -2.03578504      -1.17451884       0.97635558
H       -1.35512802       1.12629654      -0.98218551
H       -1.19318664       1.18092882       0.81996025
14
Frame=5 idx=002324 GeodesicLength=0.5320047701947602 rxn_smarts="[O:1]=[C:2]([C:3]([C:4]1([H:10])[C:5]([H:11])([H:12])[C:6]1([H:13])[H:14])([H:8])[H:9])[H:7]>>[C:5](=[C:6]([H:13])[H:14])([H:11])[H:12].[O:1]=[C:2]([C:4](=[C:3]([H:8])[H:9])[H:10])[H:7]"
O        1.96291303       0.75547707      -1.67698620
C        1.54585888       0.77135552      -0.54011703
C        1.27235659      -0.48537769       0.82247299
C        0.31991904      -0.27785273      -0.19572581
C       -1.90554130      -0.68253918       0.02485728
C       -1.27126270       0.56183623      -0.07321163
H        1.66251469       1.68324837       0.07301636
H        1.78071130      -1.43758754       0.91780237
H        1.33767118       0.16373163       1.68759788
H        0.25597855      -1.02467869      -0.97692165
H       -2.28873993      -1.18669596      -0.85276676
H       -2.06361230      -1.15812912       0.98384488
H       -1.36851395       1.11846026      -0.99947476
H       -1.24025309       1.19875183       0.80561209
14
Frame=6 idx=002324 GeodesicLength=0.6381555110223144 rxn_smarts="[O:1]=[C:2]([C:3]([C:4]1([H:10])[C:5]([H:11])([H:12])[C:6]1([H:13])[H:14])([H:8])[H:9])[H:7]>>[C:5](=[C:6]([H:13])[H:14])([H:11])[H:12].[O:1]=[C:2]([C:4](=[C:3]([H:8])[H:9])[H:10])[H:7]"
O        1.91882028       0.79402548      -1.69192195
C        1.56947146       0.77345569      -0.53309540
C        1.28493698      -0.48863414       0.82104389
C        0.32223515      -0.28102754      -0.18577843
C       -1.90264878      -0.68979913       0.02588580
C       -1.29681227       0.56831495      -0.08118552
H        1.74385895       1.66844879       0.09274407
H        1.78355096      -1.44647459       0.91608009
H        1.35827124       0.15292874       1.69165693
H        0.25249795      -1.02478106      -0.96923163
H       -2.26964743      -1.21082192      -0.84894754
H       -2.09187586      -1.14210332       0.99056463
H       -1.38282142       1.10969022      -1.01736053
H       -1.28983721       1.21677783       0.78954561
14
Frame=7 idx=002324 GeodesicLength=0.7441680854659245 rxn_smarts="[O:1]=[C:2]([C:3]([C:4]1([H:10])[C:5]([H:11])([H:12])[C:6]1([H:13])[H:14])([H:8])[H:9])[H:7]>>[C:5](=[C:6]([H:13])[H:14])([H:11])[H:12].[O:1]=[C:2]([C:4](=[C:3]([H:8])[H:9])[H:10])[H:7]"
O        1.87385308       0.83606867      -1.70218284
C        1.59369218       0.77548707      -0.52660610
C        1.29763137      -0.49156856       0.81943593
C        0.32437086      -0.28370555      -0.17549326
C       -1.89974001      -0.69707874       0.02792880
C       -1.32378492       0.57446855      -0.08973580
H        1.83049707       1.64946781       0.10997439
H        1.78618023      -1.45508230       0.91418778
H        1.37998800       0.14267746       1.69511662
H        0.24890027      -1.02390611      -0.96162910
H       -2.25066132      -1.23501118      -0.84343034
H       -2.12052860      -1.12661096       0.99641380
H       -1.39814469       1.09999489      -1.03571393
H       -1.34225351       1.23479897       0.77173407
14
Frame=8 idx=002324 GeodesicLength=0.8500653220522738 rxn_smarts="[O:1]=[C:2]([C:3]([C:4]1([H:10])[C:5]([H:11])([H:12])[C:6]1([H:13])[H:14])([H:8])[H:9])[H:7]>>[C:5](=[C:6]([H:13])[H:14])([H:11])[H:12].[O:1]=[C:2]([C:4](=[C:3]([H:8])[H:9])[H:10])[H:7]"
O        1.82852571       0.88220950      -1.70716502
C        1.61850676       0.77768897      -0.52054710
C        1.31035833      -0.49420366       0.81759769
C        0.32630090      -0.28573291      -0.16495825
C       -1.89677463      -0.70437321       0.03121262
C       -1.35234102       0.58026054      -0.09901362
H        1.92275731       1.62554623       0.12432494
H        1.78847432      -1.46348229       0.91198197
H        1.40276371       0.13289069       1.69800834
H        0.24517230      -1.02174899      -0.95438444
H       -2.23167050      -1.25958776      -0.83584691
H       -2.14957725      -1.11146412       1.00175138
H       -1.41466779       1.08915976      -1.05479888
H       -1.39782815       1.25283726       0.75183729
14
Frame=9 idx=002324 GeodesicLength=0.9555453135879506 rxn_smarts="[O:1]=[C:2]([C:3]([C:4]1([H:10])[C:5]([H:11])([H:12])[C:6]1([H:13])[H:14])([H:8])[H:9])[H:7]>>[C:5](=[C:6]([H:13])[H:14])([H:11])[H:12].[O:1]=[C:2]([C:4](=[C:3]([H:8])[H:9])[H:10])[H:7]"
O        1.78214767       0.93130609      -1.70666375
C        1.64402902       0.77950249      -0.51514138
C        1.32328650      -0.49587199       0.81598469
C        0.32802478      -0.28705358      -0.15349445
C       -1.89391563      -0.71157029       0.03488545
C       -1.38255100       0.58560804      -0.10829101
H        2.02074918       1.59598271       0.13345457
H        1.79050140      -1.47089125       0.91045706
H        1.42721224       0.12478730       1.70010914
H        0.24140813      -1.01846763      -0.94642008
H       -2.21255065      -1.28321620      -0.82776802
H       -2.17918951      -1.09796601       1.00497695
H       -1.43211631       1.07812204      -1.07312643
H       -1.45703581       1.26972828       0.73103726
14
Frame=10 idx=002324 GeodesicLength=1.0607869011162194 rxn_smarts="[O:1]=[C:2]([C:3]([C:4]1([H:10])[C:5]([H:11])([H:12])[C:6]1([H:13])[H:14])([H:8])[H:9])[H:7]>>[C:5](=[C:6]([H:13])[H:14])([H:11])[H:12].[O:1]=[C:2]([C:4](=[C:3]([H:8])[H:9])[H:10])[H:7]"
O        1.73597871       0.98473351      -1.69984350
C        1.67030268       0.78142391      -0.51023637
C        1.33617308      -0.49681300       0.81448559
C        0.32951054      -0.28748337      -0.14149647
C       -1.89110648      -0.71869018       0.03952808
C       -1.41457857       0.59054434      -0.11801112
H        2.12446556       1.55978671       0.13726221
H        1.79193771      -1.47770758       0.90933761
H        1.45302408       0.11798928       1.70163233
H        0.23753456      -1.01365410      -0.93855772
H       -2.19334309      -1.30673324      -0.81825710
H       -2.20897991      -1.08574333       1.00719338
H       -1.45079973       1.06644867      -1.09158712
H       -1.52011914       1.28589838       0.70855020
14
Frame=11 idx=002324 GeodesicLength=1.1656346949667307 rxn_smarts="[O:1]=[C:2]([C:3]([C:4]1([H:10])[C:5]([H:11])([H:12])[C:6]1([H:13])[H:14])([H:8])[H:9])[H:7]>>[C:5](=[C:6]([H:13])[H:14])([H:11])[H:12].[O:1]=[C:2]([C:4](=[C:3]([H:8])[H:9])[H:10])[H:7]"
O        1.68974210       1.04373976      -1.68548049
C        1.69748084       0.78333491      -0.50573876
C        1.34895283      -0.49681234       0.81318178
C        0.33078505      -0.28681853      -0.12886271
C       -1.88828999      -0.72563281       0.04513606
C       -1.44857150       0.59494308      -0.12828340
H        2.23428964       1.51505017       0.13440811
H        1.79249807      -1.48369305       0.90898828
H        1.48024913       0.11280892       1.70240868
H        0.23368171      -1.00693444      -0.93071293
H       -2.17377167      -1.33014238      -0.80720414
H       -2.23880730      -1.07479734       1.00835379
H       -1.47075536       1.05394417      -1.11020307
H       -1.58748355       1.30100989       0.68400880
14
Frame=12 idx=002324 GeodesicLength=1.2701208002246804 rxn_smarts="[O:1]=[C:2]([C:3]([C:4]1([H:10])[C:5]([H:11])([H:12])[C:6]1([H:13])[H:14])([H:8])[H:9])[H:7]>>[C:5](=[C:6]([H:13])[H:14])([H:11])[H:12].[O:1]=[C:2]([C:4](=[C:3]([H:8])[H:9])[H:10])[H:7]"
O        1.64391933       1.10924060      -1.66217250
C        1.72565780       0.78531451      -0.50164094
C        1.36153365      -0.49561818       0.81231675
C        0.33182119      -0.28484626      -0.11545532
C       -1.88550106      -0.73235999       0.05163058
C       -1.48471100       0.59873597      -0.13912270
H        2.35016499       1.45993995       0.12291317
H        1.79193548      -1.48863271       0.90987923
H        1.50910581       0.10973616       1.70247134
H        0.22990144      -0.99798174      -0.92288061
H       -2.15363853      -1.35341268      -0.79476023
H       -2.26856023      -1.06545395       1.00841077
H       -1.49202758       1.04069883      -1.12893135
H       -1.65960131       1.31463948       0.65734180
14
Frame=13 idx=002324 GeodesicLength=1.3741457400904051 rxn_smarts="[O:1]=[C:2]([C:3]([C:4]1([H:10])[C:5]([H:11])([H:12])[C:6]1([H:13])[H:14])([H:8])[H:9])[H:7]>>[C:5](=[C:6]([H:13])[H:14])([H:11])[H:12].[O:1]=[C:2]([C:4](=[C:3]([H:8])[H:9])[H:10])[H:7]"
O        1.59768984       1.18172592      -1.62806192
C        1.75541848       0.78606852      -0.49852824
C        1.37420975      -0.49287636       0.81251273
C        0.33278308      -0.28177022      -0.10060994
C       -1.88269511      -0.73878218       0.05825168
C       -1.52275504       0.60195965      -0.15013170
H        2.46995766       1.39349050       0.09950937
H        1.79016518      -1.49222632       0.91355436
H        1.54050421       0.10992134       1.70166381
H        0.22641182      -0.98715053      -0.91425742
H       -2.13279134      -1.37559741      -0.78234249
H       -2.29857092      -1.05848998       1.00616305
H       -1.51393792       1.02763194      -1.14692037
H       -1.73638969       1.32609513       0.62919708
14
Frame=14 idx=002324 GeodesicLength=1.4772629319140003 rxn_smarts="[O:1]=[C:2]([C:3]([C:4]1([H:10])[C:5]([H:11])([H:12])[C:6]1([H:13])[H:14])([H:8])[H:9])[H:7]>>[C:5](=[C:6]([H:13])[H:14])([H:11])[H:12].[O:1]=[C:2]([C:4](=[C:3]([H:8])[H:9])[H:10])[H:7]"
O        1.55410526       1.26205766      -1.58031715
C        1.78680573       0.78573625      -0.49648996
C        1.38667244      -0.48857387       0.81350319
C        0.33366174      -0.27727195      -0.08480002
C       -1.87981855      -0.74457016       0.06547069
C       -1.56287961       0.60451329      -0.16181501
H        2.59085280       1.31410512       0.06299420
H        1.78699944      -1.49426397       0.91966998
H        1.57418995       0.11322364       1.69961871
H        0.22319945      -0.97373658      -0.90548744
H       -2.11113745      -1.39697427      -0.76888331
H       -2.32759256      -1.05347494       1.00268731
H       -1.53689009       1.01419155      -1.16481987
H       -1.81816857       1.33503823       0.59866870
14
Frame=15 idx=002324 GeodesicLength=1.5796735331499956 rxn_smarts="[O:1]=[C:2]([C:3]([C:4]1([H:10])[C:5]([H:11])([H:12])[C:6]1([H:13])[H:14])([H:8])[H:9])[H:7]>>[C:5](=[C:6]([H:13])[H:14])([H:11])[H:12].[O:1]=[C:2]([C:4](=[C:3]([H:8])[H:9])[H:10])[H:7]"
O        1.51388898       1.35041949      -1.51566807
C        1.82036195       0.78258657      -0.49695019
C        1.39947431      -0.48273331       0.81560410
C        0.33465082      -0.27194041      -0.06753298
C       -1.87693189      -0.74957378       0.07283139
C       -1.60452610       0.60648411      -0.17416391
H        2.70806415       1.22300560       0.01117070
H        1.78287846      -1.49472830       0.92925599
H        1.61133702       0.12029804       1.69595517
H        0.22021195      -0.95852437      -0.89599187
H       -2.08898388      -1.41696228      -0.75525113
H       -2.35620069      -1.05045169       0.99740933
H       -1.56006766       1.00096715      -1.18248648
H       -1.90415742       1.34115320       0.56581793
14
Frame=16 idx=002324 GeodesicLength=1.681292136319073 rxn_smarts="[O:1]=[C:2]([C:3]([C:4]1([H:10])[C:5]([H:11])([H:12])[C:6]1([H:13])[H:14])([H:8])[H:9])[H:7]>>[C:5](=[C:6]([H:13])[H:14])([H:11])[H:12].[O:1]=[C:2]([C:4](=[C:3]([H:8])[H:9])[H:10])[H:7]"
O        1.48072790       1.44415060      -1.43126705
C        1.85519634       0.77631686      -0.50061052
C        1.41309049      -0.47547063       0.81843789
C        0.33573251      -0.26613233      -0.04854130
C       -1.87417641      -0.75320568       0.08034988
C       -1.64745607       0.60799306      -0.18738690
H        2.81646545       1.12239898      -0.05619918
H        1.77916383      -1.49326340       0.94143425
H        1.65258698       0.13076248       1.68995470
H        0.21724988      -0.94175911      -0.88535551
H       -2.06632794      -1.43504166      -0.74121166
H       -2.38431075      -1.04874842       0.99038995
H       -1.58332928       0.98799212      -1.19999497
H       -1.99461294       1.34400713       0.53000042
