15
Frame=0 idx=011003 GeodesicLength=0.0 rxn_smarts="[C:1]([C@@:2]1([O:3][H:11])[C:4]([H:12])([H:13])[C@@:5]2([H:14])[O:6][C@@:7]12[H:15])([H:8])([H:9])[H:10]>>[C:1]([C@@:2]1([O:3][H:11])[C:4]([H:12])([H:13])[O:6][C@@:7]1([C:5][H:14])[H:15])([H:8])([H:9])[H:10]"
C        1.54483353       0.55625476      -0.32614377
C        0.31319086      -0.02221972       0.34744709
O        0.58658318      -0.45641410       1.65519883
C       -0.88477349       0.93855303       0.36779927
C       -1.87993572      -0.86456926      -0.00697993
O       -1.29812064       0.04978131      -1.18346206
C       -0.50140795      -0.96381332      -0.50751720
H        1.30747182       0.89800717      -1.33437316
H        1.94059431       1.39521057       0.24850473
H        2.32479839      -0.20578311      -0.40725439
H        1.42753085      -0.91708274       1.66432220
H       -1.42436968       1.02608399       1.30001625
H       -0.78724660       1.88065768      -0.16986577
H       -2.56027479      -1.57667920      -0.48490909
H       -0.10887406      -1.73798710      -1.16278300
15
Frame=1 idx=011003 GeodesicLength=0.024771309117926174 rxn_smarts="[C:1]([C@@:2]1([O:3][H:11])[C:4]([H:12])([H:13])[C@@:5]2([H:14])[O:6][C@@:7]12[H:15])([H:8])([H:9])[H:10]>>[C:1]([C@@:2]1([O:3][H:11])[C:4]([H:12])([H:13])[O:6][C@@:7]1([C:5][H:14])[H:15])([H:8])([H:9])[H:10]"
C        1.54517854       0.55811585      -0.32629975
C        0.31398357      -0.02096686       0.34685388
O        0.58752747      -0.45451295       1.65480311
C       -0.88965067       0.93356205       0.36396229
C       -1.87706549      -0.85889261      -0.00845306
O       -1.29591660       0.04533121      -1.18847924
C       -0.49973162      -0.96616368      -0.50868720
H        1.30867249       0.89935325      -1.33489708
H        1.93914854       1.39803748       0.24818491
H        2.32638578      -0.20280632      -0.40648480
H        1.42347529      -0.92433365       1.66177227
H       -1.42064888       1.02435349       1.30128291
H       -0.79167725       1.88027703      -0.16558621
H       -2.56475152      -1.56771250      -0.47962739
H       -0.10492966      -1.74364181      -1.15834463
15
Frame=2 idx=011003 GeodesicLength=0.04954766368357567 rxn_smarts="[C:1]([C@@:2]1([O:3][H:11])[C:4]([H:12])([H:13])[C@@:5]2([H:14])[O:6][C@@:7]12[H:15])([H:8])([H:9])[H:10]>>[C:1]([C@@:2]1([O:3][H:11])[C:4]([H:12])([H:13])[O:6][C@@:7]1([C:5][H:14])[H:15])([H:8])([H:9])[H:10]"
C        1.54552173       0.55995905      -0.32647237
C        0.31476921      -0.01970083       0.34626579
O        0.58848896      -0.45262660       1.65439852
C       -0.89446537       0.92860109       0.36016747
C       -1.87418281      -0.85331944      -0.00994852
O       -1.29376587       0.04088962      -1.19340248
C       -0.49806745      -0.96850366      -0.50984280
H        1.30986087       0.90067120      -1.33543763
H        1.93772418       1.40084674       0.24782528
H        2.32795880      -0.19985706      -0.40571709
H        1.41935863      -0.93149919       1.65925338
H       -1.41693009       1.02261126       1.30245266
H       -0.79610516       1.87986134      -0.16123775
H       -2.56917206      -1.55871227      -0.47440619
H       -0.10099357      -1.74922124      -1.15389828
15
Frame=3 idx=011003 GeodesicLength=0.07433347798032998 rxn_smarts="[C:1]([C@@:2]1([O:3][H:11])[C:4]([H:12])([H:13])[C@@:5]2([H:14])[O:6][C@@:7]12[H:15])([H:8])([H:9])[H:10]>>[C:1]([C@@:2]1([O:3][H:11])[C:4]([H:12])([H:13])[O:6][C@@:7]1([C:5][H:14])[H:15])([H:8])([H:9])[H:10]"
C        1.54586327       0.56178699      -0.32666160
C        0.31554901      -0.01842168       0.34568249
O        0.58947090      -0.45075463       1.65398485
C       -0.89921846       0.92366938       0.35641416
C       -1.87128765      -0.84784714      -0.01146624
O       -1.29166384       0.03645520      -1.19823604
C       -0.49641388      -0.97083488      -0.51098307
H        1.31103711       0.90196140      -1.33599569
H        1.93631766       1.40364321       0.24742549
H        2.32952094      -0.19692956      -0.40495120
H        1.41518111      -0.93858786       1.65675988
H       -1.41321484       1.02085237       1.30352896
H       -0.80053373       1.87941024      -0.15682126
H       -2.57354403      -1.54966682      -0.46924833
H       -0.09706358      -1.75473622      -1.14943243
15
Frame=4 idx=011003 GeodesicLength=0.09913159799726742 rxn_smarts="[C:1]([C@@:2]1([O:3][H:11])[C:4]([H:12])([H:13])[C@@:5]2([H:14])[O:6][C@@:7]12[H:15])([H:8])([H:9])[H:10]>>[C:1]([C@@:2]1([O:3][H:11])[C:4]([H:12])([H:13])[O:6][C@@:7]1([C:5][H:14])[H:15])([H:8])([H:9])[H:10]"
C        1.54621175       0.56360419      -0.32686618
C        0.31632595      -0.01712656       0.34510407
O        0.59048357      -0.44888841       1.65356718
C       -0.90391765       0.91877114       0.35270347
C       -1.86838647      -0.84247516      -0.01300643
O       -1.28961605       0.03202062      -1.20298983
C       -0.49477097      -0.97316253      -0.51211066
H        1.31220817       0.90322511      -1.33657376
H        1.93493541       1.40643639       0.24699130
H        2.33108815      -0.19401928      -0.40418694
H        1.41094363      -0.94561949       1.65428402
H       -1.40950800       1.01908315       1.30452224
H       -0.80497572       1.87892745      -0.15233854
H       -2.57788632      -1.54057293      -0.46415564
H       -0.09313544      -1.76020369      -1.14494431
15
Frame=5 idx=011003 GeodesicLength=0.12394848320430114 rxn_smarts="[C:1]([C@@:2]1([O:3][H:11])[C:4]([H:12])([H:13])[C@@:5]2([H:14])[O:6][C@@:7]12[H:15])([H:8])([H:9])[H:10]>>[C:1]([C@@:2]1([O:3][H:11])[C:4]([H:12])([H:13])[O:6][C@@:7]1([C:5][H:14])[H:15])([H:8])([H:9])[H:10]"
C        1.54655184       0.56541049      -0.32708838
C        0.31709897      -0.01581888       0.34452742
O        0.59151728      -0.44703984       1.65313447
C       -0.90854993       0.91389869       0.34902622
C       -1.86546856      -0.83719666      -0.01456794
O       -1.28760317       0.02759649      -1.20765554
C       -0.49313374      -0.97547927      -0.51322036
H        1.31336211       0.90446572      -1.33717006
H        1.93355432       1.40922199       0.24651353
H        2.33263956      -0.19112008      -0.40341872
H        1.40663024      -0.95260043       1.65182460
H       -1.40580129       1.01728670       1.30542164
H       -0.80941467       1.87840646      -0.14779632
H       -2.58217448      -1.53142069      -0.45911236
H       -0.08920849      -1.76561069      -1.14041821
15
Frame=6 idx=011003 GeodesicLength=0.14877611665191198 rxn_smarts="[C:1]([C@@:2]1([O:3][H:11])[C:4]([H:12])([H:13])[C@@:5]2([H:14])[O:6][C@@:7]12[H:15])([H:8])([H:9])[H:10]>>[C:1]([C@@:2]1([O:3][H:11])[C:4]([H:12])([H:13])[O:6][C@@:7]1([C:5][H:14])[H:15])([H:8])([H:9])[H:10]"
C        1.54688538       0.56720434      -0.32732595
C        0.31786208      -0.01449846       0.34395013
O        0.59255590      -0.44520553       1.65268130
C       -0.91311305       0.90905124       0.34538310
C       -1.86252513      -0.83201746      -0.01614059
O       -1.28562852       0.02318108      -1.21222825
C       -0.49150521      -0.97778117      -0.51431279
H        1.31450933       0.90568797      -1.33777474
H        1.93218564       1.41199029       0.24599464
H        2.33416467      -0.18823623      -0.40264942
H        1.40222998      -0.95951106       1.64937655
H       -1.40209490       1.01545946       1.30622287
H       -0.81383596       1.87784211      -0.14319856
H       -2.58639655      -1.52222924      -0.45410631
H       -0.08529366      -1.77093735      -1.13587198
15
Frame=7 idx=011003 GeodesicLength=0.1736106068971787 rxn_smarts="[C:1]([C@@:2]1([O:3][H:11])[C:4]([H:12])([H:13])[C@@:5]2([H:14])[O:6][C@@:7]12[H:15])([H:8])([H:9])[H:10]>>[C:1]([C@@:2]1([O:3][H:11])[C:4]([H:12])([H:13])[O:6][C@@:7]1([C:5][H:14])[H:15])([H:8])([H:9])[H:10]"
C        1.54722675       0.56898198      -0.32757924
C        0.31862360      -0.01316548       0.34337747
O        0.59362075      -0.44338099       1.65222628
C       -0.91762403       0.90423859       0.34178168
C       -1.85958157      -0.82693247      -0.01773475
O       -1.28371229       0.01877130      -1.21672625
C       -0.48988769      -0.98007771      -0.51539912
H        1.31565007       0.90688478      -1.33839926
H        1.93084672       1.41474592       0.24544527
H        2.33569419      -0.18537946      -0.40188617
H        1.39778524      -0.96634323       1.64696406
H       -1.39841234       1.01361624       1.30694735
H       -0.81826606       1.87724610      -0.13853780
H       -2.59058205      -1.51299761      -0.44915673
H       -0.08138127      -1.77620796      -1.13132277
15
Frame=8 idx=011003 GeodesicLength=0.19845041452698994 rxn_smarts="[C:1]([C@@:2]1([O:3][H:11])[C:4]([H:12])([H:13])[C@@:5]2([H:14])[O:6][C@@:7]12[H:15])([H:8])([H:9])[H:10]>>[C:1]([C@@:2]1([O:3][H:11])[C:4]([H:12])([H:13])[O:6][C@@:7]1([C:5][H:14])[H:15])([H:8])([H:9])[H:10]"
C        1.54756822       0.57074383      -0.32784812
C        0.31938013      -0.01182192       0.34280780
O        0.59470098      -0.44157087       1.65176280
C       -0.92207552       0.89945662       0.33821813
C       -1.85662941      -0.82194019      -0.01934695
O       -1.28184294       0.01437175      -1.22114458
C       -0.48828025      -0.98236484      -0.51647525
H        1.31678298       0.90805878      -1.33903935
H        1.92952894       1.41748504       0.24486146
H        2.33721217      -0.18254718      -0.40112937
H        1.39328456      -0.97309329       1.64458403
H       -1.39474751       1.01174729       1.30759004
H       -0.82269083       1.87661388      -0.13381889
H       -2.59471464      -1.50372795      -0.44425452
H       -0.07747687      -1.78141096      -1.12676722
15
Frame=9 idx=011003 GeodesicLength=0.22329253131616786 rxn_smarts="[C:1]([C@@:2]1([O:3][H:11])[C:4]([H:12])([H:13])[C@@:5]2([H:14])[O:6][C@@:7]12[H:15])([H:8])([H:9])[H:10]>>[C:1]([C@@:2]1([O:3][H:11])[C:4]([H:12])([H:13])[O:6][C@@:7]1([C:5][H:14])[H:15])([H:8])([H:9])[H:10]"
C        1.54790953       0.57248786      -0.32813165
C        0.32013107      -0.01046935       0.34224155
O        0.59579340      -0.43977655       1.65129051
C       -0.92646791       0.89470488       0.33469254
C       -1.85367095      -0.81703814      -0.02097753
O       -1.28002066       0.00998455      -1.22548380
C       -0.48668398      -0.98464108      -0.51754176
H        1.31790881       0.90920898      -1.33969329
H        1.92823363       1.42020327       0.24424545
H        2.33871645      -0.17974221      -0.40038245
H        1.38873531      -0.97974967       1.64224210
H       -1.39110412       1.00985051       1.30815257
H       -0.82710641       1.87594378      -0.12904355
H       -2.59879013      -1.49442540      -0.43939822
H       -0.07358406      -1.78654141      -1.12221248
15
Frame=10 idx=011003 GeodesicLength=0.24813289378070372 rxn_smarts="[C:1]([C@@:2]1([O:3][H:11])[C:4]([H:12])([H:13])[C@@:5]2([H:14])[O:6][C@@:7]12[H:15])([H:8])([H:9])[H:10]>>[C:1]([C@@:2]1([O:3][H:11])[C:4]([H:12])([H:13])[O:6][C@@:7]1([C:5][H:14])[H:15])([H:8])([H:9])[H:10]"
C        1.54825826       0.57421873      -0.32843071
C        0.32087859      -0.00910533       0.34167788
O        0.59690285      -0.43799227       1.65081057
C       -0.93080639       0.88998769       0.33120479
C       -1.85071229      -0.81222780      -0.02262619
O       -1.27824799       0.00560487      -1.22974869
C       -0.48509894      -0.98691201      -0.51860090
H        1.31903408       0.91034020      -1.34036231
H        1.92696851       1.42291027       0.24359913
H        2.34022036      -0.17696102      -0.39964413
H        1.38413330      -0.98633090       1.63992942
H       -1.38748845       1.00793131       1.30864180
H       -0.83151993       1.87524288      -0.12421052
H       -2.60282277      -1.48509125      -0.43458665
H       -0.06969921      -1.79161536      -1.11765348
15
Frame=11 idx=011003 GeodesicLength=0.2729897470154982 rxn_smarts="[C:1]([C@@:2]1([O:3][H:11])[C:4]([H:12])([H:13])[C@@:5]2([H:14])[O:6][C@@:7]12[H:15])([H:8])([H:9])[H:10]>>[C:1]([C@@:2]1([O:3][H:11])[C:4]([H:12])([H:13])[O:6][C@@:7]1([C:5][H:14])[H:15])([H:8])([H:9])[H:10]"
C        1.54860204       0.57593455      -0.32874576
C        0.32162169      -0.00773103       0.34111506
O        0.59802644      -0.43622367       1.65031915
C       -0.93508380       0.88529731       0.32775018
C       -1.84774029      -0.80750140      -0.02429058
O       -1.27651375       0.00123771      -1.23393967
C       -0.48352108      -0.98916958      -0.51964938
H        1.32014753       0.91144982      -1.34104681
H        1.92571638       1.42559874       0.24291594
H        2.34170646      -0.17419970      -0.39890912
H        1.37946970      -0.99283731       1.63764494
H       -1.38388930       1.00597235       1.30905302
H       -0.83592837       1.87450070      -0.11932489
H       -2.60679524      -1.47570623      -0.42981555
H       -0.06581844      -1.79662227      -1.11307654
15
Frame=12 idx=011003 GeodesicLength=0.2978575126656623 rxn_smarts="[C:1]([C@@:2]1([O:3][H:11])[C:4]([H:12])([H:13])[C@@:5]2([H:14])[O:6][C@@:7]12[H:15])([H:8])([H:9])[H:10]>>[C:1]([C@@:2]1([O:3][H:11])[C:4]([H:12])([H:13])[O:6][C@@:7]1([C:5][H:14])[H:15])([H:8])([H:9])[H:10]"
C        1.54893902       0.57762843      -0.32907667
C        0.32235785      -0.00634753       0.34055475
O        0.59915713      -0.43446686       1.64982070
C       -0.93929938       0.88063395       0.32432924
C       -1.84475217      -0.80285814      -0.02596917
O       -1.27482158      -0.00311158      -1.23805531
C       -0.48195037      -0.99140847      -0.52068956
H        1.32124740       0.91253773      -1.34174446
H        1.92448337       1.42825321       0.24220071
H        2.34316401      -0.17147156      -0.39818457
H        1.37475277      -0.99924764       1.63540225
H       -1.38031425       1.00397570       1.30938830
H       -0.84032479       1.87371366      -0.11439087
H       -2.61069085      -1.46628870      -0.42508050
H       -0.06194817      -1.80154219      -1.10850484
15
Frame=13 idx=011003 GeodesicLength=0.3227164945043326 rxn_smarts="[C:1]([C@@:2]1([O:3][H:11])[C:4]([H:12])([H:13])[C@@:5]2([H:14])[O:6][C@@:7]12[H:15])([H:8])([H:9])[H:10]>>[C:1]([C@@:2]1([O:3][H:11])[C:4]([H:12])([H:13])[O:6][C@@:7]1([C:5][H:14])[H:15])([H:8])([H:9])[H:10]"
C        1.54928579       0.57930654      -0.32942205
C        0.32309056      -0.00495274       0.33999692
O        0.60029918      -0.43272119       1.64931482
C       -0.94346366       0.87600655       0.32094583
C       -1.84176847      -0.79830123      -0.02766437
O       -1.27318059      -0.00744890      -1.24210091
C       -0.48039198      -0.99363922      -0.52172602
H        1.32235055       0.91360609      -1.34245567
H        1.92328646       1.43089198       0.24145764
H        2.34461790      -0.16877632      -0.39747333
H        1.36999343      -1.00556861       1.63319622
H       -1.37677752       1.00195081       1.30965717
H       -0.84471770       1.87289716      -0.10940162
H       -2.61453606      -1.45684935      -0.42038559
H       -0.05808789      -1.80640157      -1.10393903
15
Frame=14 idx=011003 GeodesicLength=0.3475763614271443 rxn_smarts="[C:1]([C@@:2]1([O:3][H:11])[C:4]([H:12])([H:13])[C@@:5]2([H:14])[O:6][C@@:7]12[H:15])([H:8])([H:9])[H:10]>>[C:1]([C@@:2]1([O:3][H:11])[C:4]([H:12])([H:13])[O:6][C@@:7]1([C:5][H:14])[H:15])([H:8])([H:9])[H:10]"
C        1.54964134       0.58097098      -0.32978163
C        0.32382140      -0.00354655       0.33944054
O        0.60145955      -0.43098273       1.64880246
C       -0.94757773       0.87141310       0.31759763
C       -1.83878597      -0.79382933      -0.02937516
O       -1.27158965      -0.01177834      -1.24608100
C       -0.47884369      -0.99586340      -0.52275941
H        1.32345469       0.91465188      -1.34318265
H        1.92211930       1.43352018       0.24068619
H        2.34607419      -0.16610463      -0.39676736
H        1.36518588      -1.01181594       1.63101976
H       -1.37327473       0.99989675       1.30986389
H       -0.84911212       1.87204828      -0.10436008
H       -2.61833888      -1.44737439      -0.41572954
H       -0.05423358      -1.81120585      -1.09937363
15
Frame=15 idx=011003 GeodesicLength=0.3724489646123837 rxn_smarts="[C:1]([C@@:2]1([O:3][H:11])[C:4]([H:12])([H:13])[C@@:5]2([H:14])[O:6][C@@:7]12[H:15])([H:8])([H:9])[H:10]>>[C:1]([C@@:2]1([O:3][H:11])[C:4]([H:12])([H:13])[O:6][C@@:7]1([C:5][H:14])[H:15])([H:8])([H:9])[H:10]"
C        1.54999340       0.58262228      -0.33015676
C        0.32454764      -0.00213171       0.33888317
O        0.60262908      -0.42926001       1.64827646
C       -0.95163239       0.86684558       0.31428010
C       -1.83579352      -0.78943526      -0.03110070
O       -1.27002983      -0.01609398      -1.24999348
C       -0.47730207      -0.99807506      -0.52378310
H        1.32455199       0.91567530      -1.34392521
H        1.92096341       1.43613374       0.23987661
H        2.34751492      -0.16344957      -0.39606427
H        1.36031942      -1.01798898       1.62887064
H       -1.36979478       0.99779546       1.31000480
H       -0.85349888       1.87115809      -0.09926898
H       -2.62208058      -1.43784841      -0.41110862
H       -0.05038781      -1.81594746      -1.09479067
15
Frame=16 idx=011003 GeodesicLength=0.39733158635748245 rxn_smarts="[C:1]([C@@:2]1([O:3][H:11])[C:4]([H:12])([H:13])[C@@:5]2([H:14])[O:6][C@@:7]12[H:15])([H:8])([H:9])[H:10]>>[C:1]([C@@:2]1([O:3][H:11])[C:4]([H:12])([H:13])[O:6][C@@:7]1([C:5][H:14])[H:15])([H:8])([H:9])[H:10]"
C        1.55033933       0.58425474      -0.33054641
C        0.32526674      -0.00070768       0.33832615
O        0.60380260      -0.42755067       1.64774022
C       -0.95562827       0.86230733       0.31099132
C       -1.83278531      -0.78511836      -0.03283483
O       -1.26850963      -0.02039120      -1.25383594
C       -0.47576678      -1.00026851      -0.52479942
H        1.32563960       0.91667747      -1.34467987
H        1.91982213       1.43871907       0.23903650
H        2.34892973      -0.16082300      -0.39536593
H        1.35539341      -1.02407958       1.62675504
H       -1.36633911       0.99565288       1.31007761
H       -0.85787178       1.87022531      -0.09413928
H       -2.62574089      -1.42829207      -0.40651173
H       -0.04655177      -1.82060574      -1.09021342
