13
Frame=0 idx=006691 GeodesicLength=0.0 rxn_smarts="[C:1]([c:2]1[c:3]([H:11])[n:4][c:5]([N:6]([H:12])[H:13])[o:7]1)([H:8])([H:9])[H:10]>>[C:1]([C:2](=[C:3]=[N:4][C:5]([N:6]([H:12])[H:13])=[O:7])[H:11])([H:8])([H:9])[H:10]"
C       -2.59095436       0.16204731      -0.01056390
C       -1.32637489      -0.26845323       0.58713722
C       -0.20423013      -0.80567420       0.21096892
N        1.04933516      -0.91446112       0.00321366
C        1.64786620       0.35860715      -0.04912718
N        2.98844073       0.27772863      -0.22585275
O        1.04678335       1.41425290       0.04224826
H       -2.44962702       1.24586887      -0.10732561
H       -2.78029619      -0.23085911      -1.01102613
H       -3.44789527       0.00593972       0.64242821
H       -0.89765281      -1.74929572       0.36546148
H        3.52745084       1.12189822      -0.22289889
H        3.43715437      -0.61759938      -0.22466332
13
Frame=1 idx=006691 GeodesicLength=0.07495943986201613 rxn_smarts="[C:1]([c:2]1[c:3]([H:11])[n:4][c:5]([N:6]([H:12])[H:13])[o:7]1)([H:8])([H:9])[H:10]>>[C:1]([C:2](=[C:3]=[N:4][C:5]([N:6]([H:12])[H:13])=[O:7])[H:11])([H:8])([H:9])[H:10]"
C       -2.58306865       0.17079226      -0.00604587
C       -1.29733488      -0.25903975       0.54990139
C       -0.20641673      -0.82961111       0.12944460
N        1.05610986      -0.93037230      -0.03474662
C        1.64355839       0.34586748      -0.05714385
N        2.98713682       0.28956724      -0.21893082
O        1.02649664       1.38894487       0.09608043
H       -2.42934777       1.24309051      -0.17819770
H       -2.83725829      -0.27908999      -0.96732377
H       -3.40639393       0.07028435       0.69937763
H       -0.91513516      -1.75426742       0.38481164
H        3.51174469       1.14244039      -0.19206688
H        3.44990900      -0.59860652      -0.20516020
13
Frame=2 idx=006691 GeodesicLength=0.15139394510287538 rxn_smarts="[C:1]([c:2]1[c:3]([H:11])[n:4][c:5]([N:6]([H:12])[H:13])[o:7]1)([H:8])([H:9])[H:10]>>[C:1]([C:2](=[C:3]=[N:4][C:5]([N:6]([H:12])[H:13])=[O:7])[H:11])([H:8])([H:9])[H:10]"
C       -2.56980137       0.18064663      -0.00187212
C       -1.26977380      -0.25491031       0.51992688
C       -0.20774133      -0.85580568       0.06520685
N        1.06029020      -0.94585627      -0.07648796
C        1.63459499       0.33369050      -0.07231654
N        2.98134620       0.30229994      -0.21240914
O        1.00000628       1.36008922       0.13851508
H       -2.40546792       1.23748997      -0.24308112
H       -2.88060228      -0.31804169      -0.92146484
H       -3.36144645       0.13532995       0.74461060
H       -0.92991929      -1.75894988       0.40291334
H        3.49098656       1.16276410      -0.15366155
H        3.45752821      -0.57874647      -0.18987947
13
Frame=3 idx=006691 GeodesicLength=0.22900376569598443 rxn_smarts="[C:1]([c:2]1[c:3]([H:11])[n:4][c:5]([N:6]([H:12])[H:13])[o:7]1)([H:8])([H:9])[H:10]>>[C:1]([C:2](=[C:3]=[N:4][C:5]([N:6]([H:12])[H:13])=[O:7])[H:11])([H:8])([H:9])[H:10]"
C       -2.55359887       0.19091364       0.00226130
C       -1.24356489      -0.25436171       0.49508050
C       -0.20869382      -0.88245998       0.01173427
N        1.06306979      -0.96000189      -0.12160860
C        1.62368197       0.32239701      -0.08945886
N        2.97316106       0.31517804      -0.20460341
O        0.97042533       1.32967426       0.17102611
H       -2.38099166       1.22947387      -0.30228196
H       -2.91506522      -0.34932572      -0.87426253
H       -3.31463696       0.19894327       0.78146998
H       -0.94280729      -1.76344023       0.41937145
H        3.46718871       1.18192746      -0.11307547
H        3.46183185      -0.55891803      -0.17565278
13
Frame=4 idx=006691 GeodesicLength=0.30697102680863697 rxn_smarts="[C:1]([c:2]1[c:3]([H:11])[n:4][c:5]([N:6]([H:12])[H:13])[o:7]1)([H:8])([H:9])[H:10]>>[C:1]([C:2](=[C:3]=[N:4][C:5]([N:6]([H:12])[H:13])=[O:7])[H:11])([H:8])([H:9])[H:10]"
C       -2.53699817       0.20049358       0.00617888
C       -1.21822861      -0.25409808       0.47179138
C       -0.20960063      -0.90688340      -0.03696316
N        1.06469181      -0.97099294      -0.17198749
C        1.61287468       0.31268308      -0.10685153
N        2.96437107       0.32728245      -0.19559216
O        0.94138689       1.29924077       0.19922819
H       -2.36066431       1.21742177      -0.36115376
H       -2.94666605      -0.37885364      -0.82280801
H       -3.26553494       0.26194735       0.81381151
H       -0.95263422      -1.76532900       0.43562062
H        3.44337551       1.19793792      -0.06754932
H        3.46362697      -0.54084985      -0.16372514
13
Frame=5 idx=006691 GeodesicLength=0.385400853501527 rxn_smarts="[C:1]([c:2]1[c:3]([H:11])[n:4][c:5]([N:6]([H:12])[H:13])[o:7]1)([H:8])([H:9])[H:10]>>[C:1]([C:2](=[C:3]=[N:4][C:5]([N:6]([H:12])[H:13])=[O:7])[H:11])([H:8])([H:9])[H:10]"
C       -2.51961795       0.20974113       0.00913495
C       -1.19422061      -0.25507916       0.45099288
C       -0.21033504      -0.93010896      -0.07981757
N        1.06587550      -0.97975136      -0.22111235
C        1.60194150       0.30402852      -0.12224096
N        2.95453349       0.33926018      -0.18713668
O        0.91246178       1.26866202       0.22521189
H       -2.34256552       1.20227019      -0.41834443
H       -2.97367757      -0.40475900      -0.76983720
H       -3.21560092       0.32396400       0.83967906
H       -0.96099139      -1.76622266       0.45128279
H        3.41867603       1.21144046      -0.01988360
H        3.46352070      -0.52344537      -0.15792877
13
Frame=6 idx=006691 GeodesicLength=0.46433520094060854 rxn_smarts="[C:1]([c:2]1[c:3]([H:11])[n:4][c:5]([N:6]([H:12])[H:13])[o:7]1)([H:8])([H:9])[H:10]>>[C:1]([C:2](=[C:3]=[N:4][C:5]([N:6]([H:12])[H:13])=[O:7])[H:11])([H:8])([H:9])[H:10]"
C       -2.50146065       0.21876270       0.01148505
C       -1.17137894      -0.25767848       0.43255004
C       -0.21088366      -0.95252067      -0.11810794
N        1.06676094      -0.98665909      -0.26834279
C        1.59081171       0.29620592      -0.13611547
N        2.94377339       0.35114487      -0.17875184
O        0.88350261       1.23814532       0.24843873
H       -2.32598076       1.18468549      -0.47270135
H       -2.99650948      -0.42632900      -0.71600978
H       -3.16502103       0.38461381       0.85992595
H       -0.96861288      -1.76704452       0.46534980
H        3.39288625       1.22296062       0.02745711
H        3.46211252      -0.50628697      -0.15517752
13
Frame=7 idx=006691 GeodesicLength=0.543555054261122 rxn_smarts="[C:1]([c:2]1[c:3]([H:11])[n:4][c:5]([N:6]([H:12])[H:13])[o:7]1)([H:8])([H:9])[H:10]>>[C:1]([C:2](=[C:3]=[N:4][C:5]([N:6]([H:12])[H:13])=[O:7])[H:11])([H:8])([H:9])[H:10]"
C       -2.48321132       0.22723236       0.01364865
C       -1.14928626      -0.26082301       0.41533908
C       -0.21125678      -0.97341261      -0.15385092
N        1.06718884      -0.99107280      -0.31610483
C        1.57992553       0.28948946      -0.14972872
N        2.93272218       0.36249011      -0.16953420
O        0.85504371       1.20856737       0.26751828
H       -2.31265538       1.16425004      -0.52503402
H       -3.01671123      -0.44515073      -0.65987762
H       -3.11344513       0.44388348       0.87618767
H       -0.97483234      -1.76700304       0.47840426
H        3.36690146       1.23159304       0.07678334
H        3.45961671      -0.49004365      -0.15375096
13
Frame=8 idx=006691 GeodesicLength=0.6231900196733724 rxn_smarts="[C:1]([c:2]1[c:3]([H:11])[n:4][c:5]([N:6]([H:12])[H:13])[o:7]1)([H:8])([H:9])[H:10]>>[C:1]([C:2](=[C:3]=[N:4][C:5]([N:6]([H:12])[H:13])=[O:7])[H:11])([H:8])([H:9])[H:10]"
C       -2.46465939       0.23526254       0.01550655
C       -1.12795249      -0.26486991       0.39963852
C       -0.21137838      -0.99329344      -0.18687730
N        1.06729977      -0.99344439      -0.36293910
C        1.56909542       0.28369819      -0.16291154
N        2.92118708       0.37361418      -0.16006263
O        0.82679185       1.18002636       0.28283197
H       -2.30158654       1.14139403      -0.57497018
H       -3.03397942      -0.46071179      -0.60236246
H       -3.06114632       0.50178417       0.88827105
H       -0.98027316      -1.76677865       0.49051596
H        3.34034261       1.23739777       0.12784918
H        3.45625896      -0.47407904      -0.15449002
13
Frame=9 idx=006691 GeodesicLength=0.7030006774614821 rxn_smarts="[C:1]([c:2]1[c:3]([H:11])[n:4][c:5]([N:6]([H:12])[H:13])[o:7]1)([H:8])([H:9])[H:10]>>[C:1]([C:2](=[C:3]=[N:4][C:5]([N:6]([H:12])[H:13])=[O:7])[H:11])([H:8])([H:9])[H:10]"
C       -2.44621400       0.24276088       0.01673568
C       -1.10744323      -0.26922985       0.38505390
C       -0.21126314      -1.01186034      -0.21750781
N        1.06702102      -0.99361414      -0.40890748
C        1.55854086       0.27879790      -0.17496764
N        2.90946112       0.38439847      -0.15058530
O        0.79945570       1.15221011       0.29717797
H       -2.29341683       1.11607719      -0.62304882
H       -3.04848345      -0.47367504      -0.54374611
H       -3.00875136       0.55815611       0.89597468
H       -0.98501348      -1.76590938       0.50224364
H        3.31373114       1.24031988       0.17940318
H        3.45237564      -0.45843178      -0.15782589
13
Frame=10 idx=006691 GeodesicLength=0.7831370765990986 rxn_smarts="[C:1]([c:2]1[c:3]([H:11])[n:4][c:5]([N:6]([H:12])[H:13])[o:7]1)([H:8])([H:9])[H:10]>>[C:1]([C:2](=[C:3]=[N:4][C:5]([N:6]([H:12])[H:13])=[O:7])[H:11])([H:8])([H:9])[H:10]"
C       -2.42767196       0.24981263       0.01767885
C       -1.08757733      -0.27427734       0.37163645
C       -0.21086791      -1.02947230      -0.24624454
N        1.06638725      -0.99186393      -0.45403882
C        1.54812043       0.27468111      -0.18652411
N        2.89745540       0.39478271      -0.14068568
O        0.77258670       1.12540008       0.30916255
H       -2.28745177       1.08896160      -0.66829712
H       -3.06021634      -0.48348054      -0.48453750
H       -2.95617249       0.61261460       0.89999686
H       -0.98933424      -1.76501929       0.51307322
H        3.28678841       1.24089068       0.23033886
H        3.44795384      -0.44303002      -0.16155901
13
Frame=11 idx=006691 GeodesicLength=0.8635439120850112 rxn_smarts="[C:1]([c:2]1[c:3]([H:11])[n:4][c:5]([N:6]([H:12])[H:13])[o:7]1)([H:8])([H:9])[H:10]>>[C:1]([C:2](=[C:3]=[N:4][C:5]([N:6]([H:12])[H:13])=[O:7])[H:11])([H:8])([H:9])[H:10]"
C       -2.40923818       0.25628611       0.01827836
C       -1.06823753      -0.27956753       0.35913401
C       -0.21013421      -1.04599958      -0.27327365
N        1.06531746      -0.98797791      -0.49879930
C        1.53792046       0.27148505      -0.19786941
N        2.88529483       0.40472980      -0.13029212
O        0.74627704       1.09994949       0.31860941
H       -2.28410936       1.05979768      -0.71121425
H       -3.06938609      -0.49079793      -0.42447882
H       -2.90355666       0.66532860       0.90043485
H       -0.99294671      -1.76367623       0.52383543
H        3.25970423       1.23829080       0.28244135
H        3.44309472      -0.42784835      -0.16680585
13
Frame=12 idx=006691 GeodesicLength=0.9442407865604072 rxn_smarts="[C:1]([c:2]1[c:3]([H:11])[n:4][c:5]([N:6]([H:12])[H:13])[o:7]1)([H:8])([H:9])[H:10]>>[C:1]([C:2](=[C:3]=[N:4][C:5]([N:6]([H:12])[H:13])=[O:7])[H:11])([H:8])([H:9])[H:10]"
C       -2.39092194       0.26217049       0.01861781
C       -1.04932098      -0.28507828       0.34740781
C       -0.20901568      -1.06150047      -0.29890853
N        1.06378421      -0.98197098      -0.54334027
C        1.52793445       0.26921115      -0.20920456
N        2.87298974       0.41413009      -0.11931363
O        0.72047479       1.07598552       0.32546476
H       -2.28327764       1.02888778      -0.75148636
H       -3.07601166      -0.49562300      -0.36384538
H       -2.85100417       0.71604105       0.89761585
H       -0.99584791      -1.76193645       0.53450492
H        3.23243421       1.23264666       0.33500230
H        3.43778257      -0.41296356      -0.17251472
13
Frame=13 idx=006691 GeodesicLength=1.0251380560209051 rxn_smarts="[C:1]([c:2]1[c:3]([H:11])[n:4][c:5]([N:6]([H:12])[H:13])[o:7]1)([H:8])([H:9])[H:10]>>[C:1]([C:2](=[C:3]=[N:4][C:5]([N:6]([H:12])[H:13])=[O:7])[H:11])([H:8])([H:9])[H:10]"
C       -2.37289901       0.26743325       0.01842456
C       -1.03089106      -0.29054380       0.33641828
C       -0.20747181      -1.07595221      -0.32293636
N        1.06173510      -0.97379097      -0.58735546
C        1.51818716       0.26786631      -0.22011497
N        2.86062402       0.42310045      -0.10809239
O        0.69542950       1.05325329       0.33121022
H       -2.28496845       0.99608248      -0.78960005
H       -3.08011163      -0.49831720      -0.30293944
H       -2.79900013       0.76494037       0.89116758
H       -0.99808807      -1.75953066       0.54567416
H        3.20520070       1.22344443       0.38840676
H        3.43225368      -0.39798576      -0.18026289
13
Frame=14 idx=006691 GeodesicLength=1.1062629235310895 rxn_smarts="[C:1]([c:2]1[c:3]([H:11])[n:4][c:5]([N:6]([H:12])[H:13])[o:7]1)([H:8])([H:9])[H:10]>>[C:1]([C:2](=[C:3]=[N:4][C:5]([N:6]([H:12])[H:13])=[O:7])[H:11])([H:8])([H:9])[H:10]"
C       -2.35512231       0.27211121       0.01781315
C       -1.01288110      -0.29608686       0.32610510
C       -0.20547366      -1.08946869      -0.34564196
N        1.05916325      -0.96356442      -0.63080689
C        1.50863837       0.26738068      -0.23069664
N        2.84818549       0.43154309      -0.09657770
O        0.67105675       1.03169186       0.33589002
H       -2.28883937       0.96186117      -0.82509003
H       -3.08170583      -0.49871830      -0.24223335
H       -2.74765008       0.81170295       0.88150537
H       -0.99979830      -1.75666859       0.55704661
H        3.17797567       1.21124833       0.44130204
H        3.42645111      -0.38303243      -0.18861573
13
Frame=15 idx=006691 GeodesicLength=1.1875043787636836 rxn_smarts="[C:1]([c:2]1[c:3]([H:11])[n:4][c:5]([N:6]([H:12])[H:13])[o:7]1)([H:8])([H:9])[H:10]>>[C:1]([C:2](=[C:3]=[N:4][C:5]([N:6]([H:12])[H:13])=[O:7])[H:11])([H:8])([H:9])[H:10]"
C       -2.33777950       0.27617968       0.01649762
C       -0.99538872      -0.30147668       0.31645778
C       -0.20299275      -1.10205817      -0.36675007
N        1.05601277      -0.95128393      -0.67331817
C        1.49929912       0.26772706      -0.24051778
N        2.83578108       0.43961077      -0.08510653
O        0.64759639       1.01093420       0.34089435
H       -2.29481500       0.92614999      -0.85837960
H       -3.08089817      -0.49710765      -0.18216330
H       -2.69747304       0.85644892       0.86829646
H       -1.00105510      -1.75307307       0.56920203
H        3.15108248       1.19555372       0.49401934
H        3.42063044      -0.36760483      -0.19913212
13
Frame=16 idx=006691 GeodesicLength=1.2688720693285305 rxn_smarts="[C:1]([c:2]1[c:3]([H:11])[n:4][c:5]([N:6]([H:12])[H:13])[o:7]1)([H:8])([H:9])[H:10]>>[C:1]([C:2](=[C:3]=[N:4][C:5]([N:6]([H:12])[H:13])=[O:7])[H:11])([H:8])([H:9])[H:10]"
C       -2.32086952       0.27966428       0.01440999
C       -0.97845742      -0.30682748       0.30747387
C       -0.20001322      -1.11387401      -0.38627309
N        1.05231479      -0.93716992      -0.71446933
C        1.49010425       0.26879635      -0.24939125
N        2.82341148       0.44748173      -0.07385032
O        0.62501227       0.99068546       0.34674915
H       -2.30252458       0.88910465      -0.88949208
H       -3.07790891      -0.49337954      -0.12303860
H       -2.64848493       0.89924571       0.85159702
H       -1.00211942      -1.74887384       0.58205407
H        3.12463553       1.17639072       0.54617440
H        3.41489967      -0.35124409      -0.21194384
