10
Frame=0 idx=001351 GeodesicLength=0.0 rxn_smarts="[O:1]([C:2]([C:3]([O:4][H:10])([H:8])[H:9])([H:6])[H:7])[H:5]>>[H:5][H:8].[O:1]([C:2]([C:3](=[O:4])[H:9])([H:6])[H:7])[H:10]"
O       -0.74139911       1.12743051      -0.45744268
C       -0.74217795      -0.23072842      -0.43647435
C        0.60412870      -0.58006259       0.12876460
O        1.53126440       0.19217891      -0.31241511
H       -0.32119064       1.00231134       0.97268402
H       -1.55043647      -0.71124229       0.12943699
H       -0.73156023      -0.66927615      -1.45164955
H        0.05647180       0.42585444       1.51788816
H        0.93085827      -1.53472655       0.53584373
H        0.96404123       0.97826080      -0.62663581
10
Frame=1 idx=001351 GeodesicLength=0.104700140942961 rxn_smarts="[O:1]([C:2]([C:3]([O:4][H:10])([H:8])[H:9])([H:6])[H:7])[H:5]>>[H:5][H:8].[O:1]([C:2]([C:3](=[O:4])[H:9])([H:6])[H:7])[H:10]"
O       -0.72918579       1.12788741      -0.45953299
C       -0.73698756      -0.23458545      -0.43695655
C        0.60793685      -0.58146643       0.13828003
O        1.53587595       0.18714527      -0.31342354
H       -0.34203156       1.02391401       0.97909486
H       -1.54545414      -0.71000000       0.13279222
H       -0.73121557      -0.67567450      -1.45018961
H        0.05679975       0.42890186       1.52441375
H        0.92892705      -1.55056626       0.51559690
H        0.95533501       0.98444409      -0.63007506
10
Frame=2 idx=001351 GeodesicLength=0.20910202815209597 rxn_smarts="[O:1]([C:2]([C:3]([O:4][H:10])([H:8])[H:9])([H:6])[H:7])[H:5]>>[H:5][H:8].[O:1]([C:2]([C:3](=[O:4])[H:9])([H:6])[H:7])[H:10]"
O       -0.71709729       1.12825382      -0.46099743
C       -0.73162510      -0.23852210      -0.43735530
C        0.61190001      -0.58311361       0.14776236
O        1.54076116       0.18158026      -0.31450438
H       -0.36364522       1.04570031       0.98524813
H       -1.54024789      -0.70903852       0.13608497
H       -0.73086972      -0.68170704      -1.44881442
H        0.05750741       0.43207684       1.53087046
H        0.92656566      -1.56578090       0.49534459
H        0.94675099       0.99055093      -0.63363898
10
Frame=3 idx=001351 GeodesicLength=0.3132857019784556 rxn_smarts="[O:1]([C:2]([C:3]([O:4][H:10])([H:8])[H:9])([H:6])[H:7])[H:5]>>[H:5][H:8].[O:1]([C:2]([C:3](=[O:4])[H:9])([H:6])[H:7])[H:10]"
O       -0.70512534       1.12854728      -0.46181779
C       -0.72609503      -0.24252565      -0.43768699
C        0.61602196      -0.58502384       0.15715469
O        1.54592671       0.17546572      -0.31568903
H       -0.38608069       1.06766744       0.99112163
H       -1.53481617      -0.70834896       0.13931136
H       -0.73055335      -0.68734572      -1.44754796
H        0.05864050       0.43529337       1.53725987
H        0.92379775      -1.58033228       0.47523083
H        0.93828366       0.99660264      -0.63733660
10
Frame=4 idx=001351 GeodesicLength=0.41734844007137406 rxn_smarts="[O:1]([C:2]([C:3]([O:4][H:10])([H:8])[H:9])([H:6])[H:7])[H:5]>>[H:5][H:8].[O:1]([C:2]([C:3](=[O:4])[H:9])([H:6])[H:7])[H:10]"
O       -0.69326143       1.12878656      -0.46198044
C       -0.72040134      -0.24658201      -0.43796545
C        0.62030936      -0.58720929       0.16640451
O        1.55138070       0.16878562      -0.31701023
H       -0.40939696       1.08982551       0.99668601
H       -1.52915647      -0.70791895       0.14247171
H       -0.73029390      -0.69256467      -1.44640801
H        0.06024378       0.43845876       1.54358953
H        0.92064932      -1.59420743       0.45539094
H        0.92992693       1.00262591      -0.64117857
10
Frame=5 idx=001351 GeodesicLength=0.5212724767762462 rxn_smarts="[O:1]([C:2]([C:3]([O:4][H:10])([H:8])[H:9])([H:6])[H:7])[H:5]>>[H:5][H:8].[O:1]([C:2]([C:3](=[O:4])[H:9])([H:6])[H:7])[H:10]"
O       -0.68149640       1.12898778      -0.46146213
C       -0.71454753      -0.25067825      -0.43820358
C        0.62476625      -0.58968342       0.17546945
O        1.55712846       0.16152497      -0.31849414
H       -0.43364882       1.11217703       1.00191618
H       -1.52326656      -0.70774048       0.14556380
H       -0.73011359      -0.69733889      -1.44541187
H        0.06235526       0.44151523       1.54986702
H        0.91714642      -1.60740273       0.43593344
H        0.92167651       1.00863876      -0.64517819
10
Frame=6 idx=001351 GeodesicLength=0.6252340273156515 rxn_smarts="[O:1]([C:2]([C:3]([O:4][H:10])([H:8])[H:9])([H:6])[H:7])[H:5]>>[H:5][H:8].[O:1]([C:2]([C:3](=[O:4])[H:9])([H:6])[H:7])[H:10]"
O       -0.66981549       1.12916977      -0.46025775
C       -0.70853432      -0.25479783      -0.43840592
C        0.62940236      -0.59245068       0.18431091
O        1.56318178       0.15367330      -0.32016479
H       -0.45893440       1.13477294       1.00675012
H       -1.51714223      -0.70779059       0.14860077
H       -0.73003526      -0.70165108      -1.44455980
H        0.06502965       0.44435065       1.55612220
H        0.91332135      -1.61994860       0.41694919
H        0.91352657       1.01467211      -0.64934493
10
Frame=7 idx=001351 GeodesicLength=0.7293620331989192 rxn_smarts="[O:1]([C:2]([C:3]([O:4][H:10])([H:8])[H:9])([H:6])[H:7])[H:5]>>[H:5][H:8].[O:1]([C:2]([C:3](=[O:4])[H:9])([H:6])[H:7])[H:10]"
O       -0.65819993       1.12934791      -0.45836697
C       -0.70236129      -0.25892296      -0.43857148
C        0.63422589      -0.59551586       0.19289903
O        1.56955296       0.14522346      -0.32203617
H       -0.48536838       1.15767336       1.01111063
H       -1.51077850      -0.70804250       0.15160233
H       -0.73008147      -0.70549069      -1.44384462
H        0.06832877       0.44685678       1.56239727
H        0.90920615      -1.63188157       0.39849328
H        0.90547579       1.02075208      -0.65368330
10
Frame=8 idx=001351 GeodesicLength=0.8336671494337253 rxn_smarts="[O:1]([C:2]([C:3]([O:4][H:10])([H:8])[H:9])([H:6])[H:7])[H:5]>>[H:5][H:8].[O:1]([C:2]([C:3](=[O:4])[H:9])([H:6])[H:7])[H:10]"
O       -0.64662598       1.12954045      -0.45576330
C       -0.69602435      -0.26303671      -0.43869869
C        0.63924837      -0.59888533       0.20121192
O        1.57625949       0.13615587      -0.32412898
H       -0.51308088       1.18091087       1.01492676
H       -1.50416703      -0.70847523       0.15458181
H       -0.73026955      -0.70883628      -1.44325967
H        0.07231515       0.44897494       1.56872243
H        0.90482680      -1.64325167       0.38061277
H        0.89751799       1.02690309      -0.65820503
10
Frame=9 idx=001351 GeodesicLength=0.938874693268917 rxn_smarts="[O:1]([C:2]([C:3]([O:4][H:10])([H:8])[H:9])([H:6])[H:7])[H:5]>>[H:5][H:8].[O:1]([C:2]([C:3](=[O:4])[H:9])([H:6])[H:7])[H:10]"
O       -0.63501531       1.12976032      -0.45259792
C       -0.68951341      -0.26709411      -0.43873486
C        0.64449578      -0.60255310       0.20919620
O        1.58332484       0.12644347      -0.32648652
H       -0.54246406       1.20468926       1.01798137
H       -1.49730323      -0.70896789       0.15764773
H       -0.73064427      -0.71171484      -1.44269014
H        0.07715832       0.45034846       1.57524992
H        0.90025318      -1.65411635       0.36327539
H        0.88970815       1.03320478      -0.66284117
10
Frame=10 idx=001351 GeodesicLength=1.0443182043054149 rxn_smarts="[O:1]([C:2]([C:3]([O:4][H:10])([H:8])[H:9])([H:6])[H:7])[H:5]>>[H:5][H:8].[O:1]([C:2]([C:3](=[O:4])[H:9])([H:6])[H:7])[H:10]"
O       -0.62338292       1.13002520      -0.44867527
C       -0.68282502      -0.27110097      -0.43869820
C        0.64997842      -0.60653261       0.21687237
O        1.59075737       0.11607477      -0.32910862
H       -0.57349396       1.22896977       1.02022270
H       -1.49016534      -0.70958401       0.16076453
H       -0.73119435      -0.71405801      -1.44220027
H        0.08285718       0.45112207       1.58194665
H        0.89546678      -1.66455132       0.34652705
H        0.88200184       1.03963510      -0.66765094
10
Frame=11 idx=001351 GeodesicLength=1.1499853773642388 rxn_smarts="[O:1]([C:2]([C:3]([O:4][H:10])([H:8])[H:9])([H:6])[H:7])[H:5]>>[H:5][H:8].[O:1]([C:2]([C:3](=[O:4])[H:9])([H:6])[H:7])[H:10]"
O       -0.61168999       1.13034798      -0.44397320
C       -0.67595061      -0.27503786      -0.43856427
C        0.65571618      -0.61083126       0.22422658
O        1.59857013       0.10502870      -0.33201514
H       -0.60638011       1.25385518       1.02149412
H       -1.48273875      -0.71029079       0.16397740
H       -0.73193637      -0.71584686      -1.44175442
H        0.08950996       0.45117764       1.58888036
H        0.89049284      -1.67462647       0.33034763
H        0.87440672       1.04622374      -0.67261907
10
Frame=12 idx=001351 GeodesicLength=1.2557939020600801 rxn_smarts="[O:1]([C:2]([C:3]([O:4][H:10])([H:8])[H:9])([H:6])[H:7])[H:5]>>[H:5][H:8].[O:1]([C:2]([C:3](=[O:4])[H:9])([H:6])[H:7])[H:10]"
O       -0.59989210       1.13074231      -0.43844042
C       -0.66887776      -0.27888299      -0.43830480
C        0.66173561      -0.61546120       0.23124833
O        1.60678163       0.09327367      -0.33523301
H       -0.64136431       1.27943911       1.02161449
H       -1.47500202      -0.71106040       0.16733525
H       -0.73288727      -0.71704899      -1.44131608
H        0.09722758       0.45041988       1.59612043
H        0.88534765      -1.68441930       0.31470577
H        0.86693099       1.05299791      -0.67772997
10
Frame=13 idx=001351 GeodesicLength=1.3615513794257004 rxn_smarts="[O:1]([C:2]([C:3]([O:4][H:10])([H:8])[H:9])([H:6])[H:7])[H:5]>>[H:5][H:8].[O:1]([C:2]([C:3](=[O:4])[H:9])([H:6])[H:7])[H:10]"
O       -0.58793471       1.13122047      -0.43200573
C       -0.66159254      -0.28261326      -0.43788674
C        0.66806165      -0.62043983       0.23792991
O        1.61540981       0.08077078      -0.33879464
H       -0.67870064       1.30578834       1.02039388
H       -1.46693363      -0.71186549       0.17088517
H       -0.73406444      -0.71761900      -1.44084405
H        0.10612772       0.44877868       1.60372223
H        0.88004467      -1.69400221       0.29956600
H        0.85958210       1.05998152      -0.68296605
10
Frame=14 idx=001351 GeodesicLength=1.4672208165172909 rxn_smarts="[O:1]([C:2]([C:3]([O:4][H:10])([H:8])[H:9])([H:6])[H:7])[H:5]>>[H:5][H:8].[O:1]([C:2]([C:3](=[O:4])[H:9])([H:6])[H:7])[H:10]"
O       -0.57574612       1.13179953      -0.42458066
C       -0.65407654      -0.28619852      -0.43725687
C        0.67473372      -0.62579305       0.24425950
O        1.62447938       0.06747577      -0.34273554
H       -0.71875530       1.33303051       1.01752991
H       -1.45850019      -0.71266802       0.17470826
H       -0.73549815      -0.71750193      -1.44027710
H        0.11638862       0.44611526       1.61178305
H        0.87459562      -1.70346464       0.28485661
H        0.85237895       1.06720510      -0.68828715
10
Frame=15 idx=001351 GeodesicLength=1.5726498494645973 rxn_smarts="[O:1]([C:2]([C:3]([O:4][H:10])([H:8])[H:9])([H:6])[H:7])[H:5]>>[H:5][H:8].[O:1]([C:2]([C:3](=[O:4])[H:9])([H:6])[H:7])[H:10]"
O       -0.56324432       1.13249521      -0.41603549
C       -0.64630940      -0.28960640      -0.43635359
C        0.68179133      -0.63155619       0.25022635
O        1.63401216       0.05333652      -0.34709595
H       -0.76191008       1.36126959       1.01267632
H       -1.44966359      -0.71343474       0.17888940
H       -0.73722091      -0.71662082      -1.43955041
H        0.12820367       0.44231173       1.62039034
H        0.86900531      -1.71289122       0.27049889
H        0.84533582       1.07469632      -0.69364587
10
Frame=16 idx=001351 GeodesicLength=1.6776921572243892 rxn_smarts="[O:1]([C:2]([C:3]([O:4][H:10])([H:8])[H:9])([H:6])[H:7])[H:5]>>[H:5][H:8].[O:1]([C:2]([C:3](=[O:4])[H:9])([H:6])[H:7])[H:10]"
O       -0.55033390       1.13332619      -0.40619075
C       -0.63826964      -0.29279851      -0.43509491
C        0.68928957      -0.63777707       0.25581554
O        1.64403501       0.03829161      -0.35192830
H       -0.80860567       1.39061799       1.00536897
H       -1.44037671      -0.71413382       0.18354013
H       -0.73927760      -0.71487011      -1.43858454
H        0.14179641       0.43722536       1.62966309
H        0.86327183      -1.72236808       0.25638910
H        0.83847069       1.08248643      -0.69897833
