16
Frame=0 idx=005426 GeodesicLength=0.0 rxn_smarts="[C:1]([C:2]([C:3]([O:4][H:13])([H:11])[H:12])([C:5]([O:6][H:16])([H:14])[H:15])[H:10])([H:7])([H:8])[H:9]>>[C:1](=[C:2]([C:3]([O:4][H:13])([H:11])[H:12])[C:5]([O:6][H:16])([H:14])[H:15])([H:8])[H:9].[H:7][H:10]"
C       -1.51555510      -0.92750128       0.46650072
C       -0.41339124      -0.09831084       0.06312221
C        0.66710772      -0.82038565      -0.70885545
O        1.63419550       0.08736042      -1.20799824
C        0.04913867       0.94945944       1.06408721
O        0.70837647       2.06340458       0.53378181
H       -1.43562811       0.20736043      -0.61432696
H       -1.67914486      -1.88034054      -0.01405660
H       -2.18166599      -0.59170344       1.24555926
H       -0.74957384       0.88534848      -1.03074097
H        0.21418851      -1.40214417      -1.51734954
H        1.11104546      -1.51809175       0.01070431
H        2.36394337      -0.40465324      -1.58489653
H       -0.81777864       1.31687223       1.61340991
H        0.67652056       0.38903529       1.77256399
H        1.36822159       1.74429001      -0.09150509
16
Frame=1 idx=005426 GeodesicLength=0.1113886041900493 rxn_smarts="[C:1]([C:2]([C:3]([O:4][H:13])([H:11])[H:12])([C:5]([O:6][H:16])([H:14])[H:15])[H:10])([H:7])([H:8])[H:9]>>[C:1](=[C:2]([C:3]([O:4][H:13])([H:11])[H:12])[C:5]([O:6][H:16])([H:14])[H:15])([H:8])[H:9].[H:7][H:10]"
C       -1.51997863      -0.91901409       0.45708770
C       -0.41446338      -0.09416150       0.05657007
C        0.66951688      -0.82070430      -0.70735972
O        1.63746526       0.08650712      -1.20712281
C        0.05406479       0.94281700       1.06635122
O        0.71064515       2.06009836       0.53772682
H       -1.47118749       0.21627770      -0.63548197
H       -1.66142561      -1.89235996       0.01132463
H       -2.18693815      -0.58198212       1.23549991
H       -0.76956158       0.89833437      -1.03673443
H        0.22083804      -1.40695966      -1.51507208
H        1.11587312      -1.51608979       0.01322316
H        2.36925249      -0.40583117      -1.57962088
H       -0.80889938       1.30906778       1.62282541
H        0.68532984       0.38110470       1.77040997
H        1.36946864       1.74289557      -0.08962702
16
Frame=2 idx=005426 GeodesicLength=0.2221488207033152 rxn_smarts="[C:1]([C:2]([C:3]([O:4][H:13])([H:11])[H:12])([C:5]([O:6][H:16])([H:14])[H:15])[H:10])([H:7])([H:8])[H:9]>>[C:1](=[C:2]([C:3]([O:4][H:13])([H:11])[H:12])[C:5]([O:6][H:16])([H:14])[H:15])([H:8])[H:9].[H:7][H:10]"
C       -1.52447249      -0.91041399       0.44692491
C       -0.41501980      -0.09020821       0.05017636
C        0.67223517      -0.82120101      -0.70584556
O        1.64092272       0.08561817      -1.20621790
C        0.05908838       0.93600000       1.06868026
O        0.71280553       2.05668859       0.54165293
H       -1.50789449       0.22505138      -0.65715610
H       -1.64370434      -1.90287644       0.03761403
H       -2.19191948      -0.57224786       1.22507038
H       -0.79027364       0.91114661      -1.04216497
H        0.22767000      -1.41179937      -1.51277196
H        1.12100194      -1.51432345       0.01568981
H        2.37476253      -0.40693181      -1.57438087
H       -0.80008853       1.30088000       1.63206749
H        0.69421502       0.37313213       1.76839486
H        1.37067149       1.74148525      -0.08773366
16
Frame=3 idx=005426 GeodesicLength=0.33254450348781084 rxn_smarts="[C:1]([C:2]([C:3]([O:4][H:13])([H:11])[H:12])([C:5]([O:6][H:16])([H:14])[H:15])[H:10])([H:7])([H:8])[H:9]>>[C:1](=[C:2]([C:3]([O:4][H:13])([H:11])[H:12])[C:5]([O:6][H:16])([H:14])[H:15])([H:8])[H:9].[H:7][H:10]"
C       -1.52900527      -0.90169818       0.43598537
C       -0.41498431      -0.08649696       0.04399606
C        0.67531651      -0.82190035      -0.70429868
O        1.64459281       0.08469567      -1.20527839
C        0.06424959       0.92900593       1.07110217
O        0.71484157       2.05318628       0.54554215
H       -1.54592536       0.23366003      -0.67937466
H       -1.62611456      -1.91173974       0.06471910
H       -2.19661444      -0.56244870       1.21419960
H       -0.81182697       0.92366601      -1.04694358
H        0.23472635      -1.41668100      -1.51043688
H        1.12649774      -1.51281549       0.01811310
H        2.38050494      -0.40793540      -1.56918493
H       -0.79132281       1.29228463       1.64116216
H        0.70324815       0.36513866       1.76654150
H        1.37181607       1.74007862      -0.08584411
16
Frame=4 idx=005426 GeodesicLength=0.44285755270018945 rxn_smarts="[C:1]([C:2]([C:3]([O:4][H:13])([H:11])[H:12])([C:5]([O:6][H:16])([H:14])[H:15])[H:10])([H:7])([H:8])[H:9]>>[C:1](=[C:2]([C:3]([O:4][H:13])([H:11])[H:12])[C:5]([O:6][H:16])([H:14])[H:15])([H:8])[H:9].[H:7][H:10]"
C       -1.53354009      -0.89286046       0.42423319
C       -0.41426605      -0.08308117       0.03810035
C        0.67882577      -0.82283140      -0.70269711
O        1.64850849       0.08374001      -1.20429178
C        0.06959896       0.92183504       1.07365070
O        0.71672974       2.04960575       0.54936876
H       -1.58549296       0.24207810      -0.70215944
H       -1.60883526      -1.91877793       0.09249227
H       -2.20101334      -0.55252538       1.20281479
H       -0.83436300       0.93574023      -1.05096369
H        0.24205770      -1.42162191      -1.50804942
H        1.13243610      -1.51159519       0.02050742
H        2.38651937      -0.40882155      -1.56403483
H       -0.78256663       1.28325623       1.65014389
H        0.71252223       0.35715879       1.76487404
H        1.37287897       1.73870084      -0.08398914
16
Frame=5 idx=005426 GeodesicLength=0.5534636156848759 rxn_smarts="[C:1]([C:2]([C:3]([O:4][H:13])([H:11])[H:12])([C:5]([O:6][H:16])([H:14])[H:15])[H:10])([H:7])([H:8])[H:9]>>[C:1](=[C:2]([C:3]([O:4][H:13])([H:11])[H:12])[C:5]([O:6][H:16])([H:14])[H:15])([H:8])[H:9].[H:7][H:10]"
C       -1.53801301      -0.88387069       0.41163322
C       -0.41275636      -0.08002692       0.03260215
C        0.68283608      -0.82402489      -0.70100272
O        1.65270126       0.08275041      -1.20323990
C        0.07520748       0.91449225       1.07637265
O        0.71843373       2.04596085       0.55309797
H       -1.62687015       0.25025987      -0.72556981
H       -1.59209098      -1.92381200       0.12071112
H       -2.20511744      -0.54239166       1.19080223
H       -0.85802758       0.94716347      -1.05406448
H        0.24971602      -1.42663530      -1.50557617
H        1.13891138      -1.51069641       0.02289303
H        2.39284172      -0.40956661      -1.55893546
H       -0.77375888       1.27376646       1.65907567
H        0.72217111       0.34925333       1.76341807
H        1.37381562       1.73737784      -0.08221757
16
Frame=6 idx=005426 GeodesicLength=0.6644043723896931 rxn_smarts="[C:1]([C:2]([C:3]([O:4][H:13])([H:11])[H:12])([C:5]([O:6][H:16])([H:14])[H:15])[H:10])([H:7])([H:8])[H:9]>>[C:1](=[C:2]([C:3]([O:4][H:13])([H:11])[H:12])[C:5]([O:6][H:16])([H:14])[H:15])([H:8])[H:9].[H:7][H:10]"
C       -1.54238641      -0.87469314       0.39816417
C       -0.41037430      -0.07737532       0.02755670
C        0.68741734      -0.82551224      -0.69918120
O        1.65722707       0.08171085      -1.20208761
C        0.08113349       0.90699485       1.07928733
O        0.71992973       2.04228057       0.55668045
H       -1.67031147       0.25823542      -0.74952520
H       -1.57611050      -1.92672911       0.14902154
H       -2.20886157      -0.53201723       1.17817455
H       -0.88299934       0.95774013      -1.05614631
H        0.25776619      -1.43174012      -1.50299525
H        1.14598047      -1.51015184       0.02531172
H        2.39954191      -0.41017726      -1.55383849
H       -0.76484819       1.26380746       1.66798497
H        0.73230073       0.34147997       1.76218119
H        1.37459487       1.73614703      -0.08058856
16
Frame=7 idx=005426 GeodesicLength=0.7757337857789586 rxn_smarts="[C:1]([C:2]([C:3]([O:4][H:13])([H:11])[H:12])([C:5]([O:6][H:16])([H:14])[H:15])[H:10])([H:7])([H:8])[H:9]>>[C:1](=[C:2]([C:3]([O:4][H:13])([H:11])[H:12])[C:5]([O:6][H:16])([H:14])[H:15])([H:8])[H:9].[H:7][H:10]"
C       -1.54661033      -0.86528307       0.38381314
C       -0.40702840      -0.07517246       0.02304158
C        0.69264052      -0.82732186      -0.69719349
O        1.66214053       0.08060815      -1.20079984
C        0.08744881       0.89936216       1.08242257
O        0.72119272       2.03859344       0.56007028
H       -1.71608975       0.26599727      -0.77396246
H       -1.56113168      -1.92743265       0.17706472
H       -2.21222551      -0.52133191       1.16488160
H       -0.90945363       0.96725492      -1.05707616
H        0.26626848      -1.43694879      -1.50028045
H        1.15371008      -1.50999506       0.02780013
H        2.40668440      -0.41065593      -1.54870581
H       -0.75576601       1.25337179       1.67691854
H        0.74304051       0.33390798       1.76116945
H        1.37517926       1.73504603      -0.07916379
16
Frame=8 idx=005426 GeodesicLength=0.8874553940713218 rxn_smarts="[C:1]([C:2]([C:3]([O:4][H:13])([H:11])[H:12])([C:5]([O:6][H:16])([H:14])[H:15])[H:10])([H:7])([H:8])[H:9]>>[C:1](=[C:2]([C:3]([O:4][H:13])([H:11])[H:12])[C:5]([O:6][H:16])([H:14])[H:15])([H:8])[H:9].[H:7][H:10]"
C       -1.55063953      -0.85557776       0.36855310
C       -0.40263429      -0.07343695       0.01912733
C        0.69858004      -0.82947162      -0.69499065
O        1.66751553       0.07942207      -1.19932000
C        0.09422389       0.89162932       1.08579432
O        0.72220061       2.03492116       0.56320266
H       -1.76453520       0.27357860      -0.79874403
H       -1.54743722      -1.92587095       0.20435766
H       -2.21512826      -0.51030807       1.15094582
H       -0.93754062       0.97543875      -1.05673723
H        0.27528890      -1.44225646      -1.49740286
H        1.16215372      -1.51025333       0.03041392
H        2.41434583      -0.41101915      -1.54346830
H       -0.74643266       1.24247149       1.68591222
H        0.75450941       0.32663291       1.76038074
H        1.37552987       1.73410001      -0.07802469
16
Frame=9 idx=005426 GeodesicLength=0.9994026408132464 rxn_smarts="[C:1]([C:2]([C:3]([O:4][H:13])([H:11])[H:12])([C:5]([O:6][H:16])([H:14])[H:15])[H:10])([H:7])([H:8])[H:9]>>[C:1](=[C:2]([C:3]([O:4][H:13])([H:11])[H:12])[C:5]([O:6][H:16])([H:14])[H:15])([H:8])[H:9].[H:7][H:10]"
C       -1.55444839      -0.84538843       0.35218179
C       -0.39718277      -0.07227203       0.01578156
C        0.70529474      -0.83205838      -0.69252823
O        1.67351710       0.07801803      -1.19750187
C        0.10145044       0.88383287       1.08931551
O        0.72287200       2.03133328       0.56590467
H       -1.81616866       0.28160199      -0.82319581
H       -1.53487312      -1.92182803       0.23025442
H       -2.21729679      -0.49923808       1.13654424
H       -0.96751985       0.98196959      -1.05506489
H        0.28492004      -1.44770540      -1.49438107
H        1.17124755      -1.51105667       0.03324165
H        2.42272936      -0.41145008      -1.53786804
H       -0.73688246       1.23111694       1.69487453
H        0.76675510       0.31975068       1.75976536
H        1.37558571       1.73337369      -0.07732382
16
Frame=10 idx=005426 GeodesicLength=1.1113531880674934 rxn_smarts="[C:1]([C:2]([C:3]([O:4][H:13])([H:11])[H:12])([C:5]([O:6][H:16])([H:14])[H:15])[H:10])([H:7])([H:8])[H:9]>>[C:1](=[C:2]([C:3]([O:4][H:13])([H:11])[H:12])[C:5]([O:6][H:16])([H:14])[H:15])([H:8])[H:9].[H:7][H:10]"
C       -1.55795923      -0.83476820       0.33483641
C       -0.39059286      -0.07161321       0.01308422
C        0.71284293      -0.83503611      -0.68976343
O        1.68014948       0.07644945      -1.19535573
C        0.10923098       0.87601130       1.09304318
O        0.72324235       2.02781861       0.56819968
H       -1.87106586       0.28974342      -0.84736478
H       -1.52398796      -1.91549231       0.25440101
H       -2.21882184      -0.48788465       1.12157399
H       -0.99942690       0.98670406      -1.05201934
H        0.29520888      -1.45327021      -1.49115707
H        1.18109488      -1.51233837       0.03632167
H        2.43182245      -0.41186619      -1.53194514
H       -0.72697790       1.21934388       1.70389629
H        0.77990299       0.31334247       1.75932650
H        1.37533761       1.73285605      -0.07707746
16
Frame=11 idx=005426 GeodesicLength=1.2231368918519003 rxn_smarts="[C:1]([C:2]([C:3]([O:4][H:13])([H:11])[H:12])([C:5]([O:6][H:16])([H:14])[H:15])[H:10])([H:7])([H:8])[H:9]>>[C:1](=[C:2]([C:3]([O:4][H:13])([H:11])[H:12])[C:5]([O:6][H:16])([H:14])[H:15])([H:8])[H:9].[H:7][H:10]"
C       -1.56111119      -0.82364686       0.31649306
C       -0.38285716      -0.07148389       0.01101516
C        0.72126873      -0.83843810      -0.68665729
O        1.68750580       0.07465677      -1.19280525
C        0.11758602       0.86820326       1.09693520
O        0.72328936       2.02441537       0.57000541
H       -1.92952048       0.29831101      -0.87079360
H       -1.51487093      -1.90694955       0.27630235
H       -2.21960799      -0.47632324       1.10608484
H       -1.03339509       0.98945522      -1.04763343
H        0.30622550      -1.45897454      -1.48771602
H        1.19168668      -1.51413180       0.03972698
H        2.44173684      -0.41235034      -1.52555961
H       -0.71670306       1.20719081       1.71293582
H        0.79400247       0.30748884       1.75902940
H        1.37476449       1.73257706      -0.07736302
16
Frame=12 idx=005426 GeodesicLength=1.334598131621748 rxn_smarts="[C:1]([C:2]([C:3]([O:4][H:13])([H:11])[H:12])([C:5]([O:6][H:16])([H:14])[H:15])[H:10])([H:7])([H:8])[H:9]>>[C:1](=[C:2]([C:3]([O:4][H:13])([H:11])[H:12])[C:5]([O:6][H:16])([H:14])[H:15])([H:8])[H:9].[H:7][H:10]"
C       -1.56385174      -0.81197735       0.29714372
C       -0.37399132      -0.07186989       0.00952726
C        0.73060284      -0.84227426      -0.68317791
O        1.69568027       0.07258877      -1.18977164
C        0.12651826       0.86045740       1.10093261
O        0.72300849       2.02114783       0.57124602
H       -1.99179548       0.30760835      -0.89296138
H       -1.50761839      -1.89638263       0.29548140
H       -2.21955544      -0.46464231       1.09015975
H       -1.06947004       0.99005480      -1.04200552
H        0.31803329      -1.46482019      -1.48405284
H        1.20299500      -1.51644896       0.04352738
H        2.45257699      -0.41297959      -1.51856097
H       -0.70604916       1.19472002       1.72193129
H        0.80905751       0.30227539       1.75882937
H        1.37385894       1.73254263      -0.07824854
16
Frame=13 idx=005426 GeodesicLength=1.4456415635364688 rxn_smarts="[C:1]([C:2]([C:3]([O:4][H:13])([H:11])[H:12])([C:5]([O:6][H:16])([H:14])[H:15])[H:10])([H:7])([H:8])[H:9]>>[C:1](=[C:2]([C:3]([O:4][H:13])([H:11])[H:12])[C:5]([O:6][H:16])([H:14])[H:15])([H:8])[H:9].[H:7][H:10]"
C       -1.56613662      -0.79972008       0.27676697
C       -0.36404274      -0.07275287       0.00853502
C        0.74086053      -0.84655430      -0.67930100
O        1.70476675       0.07018446      -1.18617544
C        0.13599817       0.85282112       1.10495248
O        0.72239522       2.01803863       0.57184305
H       -2.05812580       0.31801095      -0.91321939
H       -1.50221557      -1.88400651       0.31151183
H       -2.21856733      -0.45298095       1.07388595
H       -1.10764423       0.98839400      -1.03530728
H        0.33069334      -1.47081943      -1.48016992
H        1.21496982      -1.51929739       0.04779462
H        2.46444645      -0.41385352      -1.51078909
H       -0.69504860       1.18200597       1.73078219
H        0.82502100       0.29777673       1.75867915
H        1.37262963       1.73275317      -0.07978913
16
Frame=14 idx=005426 GeodesicLength=1.5562156321208391 rxn_smarts="[C:1]([C:2]([C:3]([O:4][H:13])([H:11])[H:12])([C:5]([O:6][H:16])([H:14])[H:15])[H:10])([H:7])([H:8])[H:9]>>[C:1](=[C:2]([C:3]([O:4][H:13])([H:11])[H:12])[C:5]([O:6][H:16])([H:14])[H:15])([H:8])[H:9].[H:7][H:10]"
C       -1.56792875      -0.78686012       0.25533530
C       -0.35309051      -0.07408042       0.00789965
C        0.75204652      -0.85127490      -0.67501039
O        1.71486400       0.06738309      -1.18193758
C        0.14596573       0.84535029       1.10888283
O        0.72146980       2.01509947       0.57171791
H       -2.12870550       0.32991354      -0.93075720
H       -1.49860612      -1.87009892       0.32399012
H       -2.21654135      -0.44152710       1.05736462
H       -1.14785754       0.98442278      -1.02778887
H        0.34427292      -1.47698546      -1.47607187
H        1.22753658      -1.52266142       0.05261031
H        2.47745129      -0.41507419      -1.50206592
H       -0.68376552       1.16915442       1.73934141
H        0.84177794       0.29405939       1.75851966
H        1.37111051       1.73317956      -0.08202997
16
Frame=15 idx=005426 GeodesicLength=1.666392333015719 rxn_smarts="[C:1]([C:2]([C:3]([O:4][H:13])([H:11])[H:12])([C:5]([O:6][H:16])([H:14])[H:15])[H:10])([H:7])([H:8])[H:9]>>[C:1](=[C:2]([C:3]([O:4][H:13])([H:11])[H:12])[C:5]([O:6][H:16])([H:14])[H:15])([H:8])[H:9].[H:7][H:10]"
C       -1.56919708      -0.77340852       0.23283028
C       -0.34123728      -0.07579625       0.00745980
C        0.76414628      -0.85642580      -0.67030207
O        1.72605178       0.06413013      -1.17699373
C        0.15633518       0.83809415       1.11260222
O        0.72025325       2.01233488       0.57080319
H       -2.20363115       0.34370338      -0.94473585
H       -1.49664684      -1.85496741       0.33264119
H       -2.21342490      -0.43046928       1.04064951
H       -1.18999255       0.97816543      -1.01974419
H        0.35882695      -1.48333628      -1.47176961
H        1.24060966      -1.52651380       0.05804302
H        2.49167711      -0.41674068      -1.49223091
H       -0.67229766       1.15626952       1.74744553
H        0.85917336       0.29117075       1.75829475
H        1.36935391       1.73378979      -0.08499312
16
Frame=16 idx=005426 GeodesicLength=1.7763345475783365 rxn_smarts="[C:1]([C:2]([C:3]([O:4][H:13])([H:11])[H:12])([C:5]([O:6][H:16])([H:14])[H:15])[H:10])([H:7])([H:8])[H:9]>>[C:1](=[C:2]([C:3]([O:4][H:13])([H:11])[H:12])[C:5]([O:6][H:16])([H:14])[H:15])([H:8])[H:9].[H:7][H:10]"
C       -1.56992188      -0.75939286       0.20923458
C       -0.32860651      -0.07782862       0.00701927
C        0.77712951      -0.86198843      -0.66518525
O        1.73839996       0.06037549      -1.17128817
C        0.16699588       0.83109958       1.11597690
O        0.71878040       2.00974459       0.56904205
H       -2.28290521       0.35969448      -0.95425224
H       -1.49613771      -1.83892220       0.33726325
H       -2.20918790      -0.42000711       1.02377521
H       -1.23389719       0.96973375      -1.01150871
H        0.37440366      -1.48989135      -1.46728281
H        1.25408389      -1.53081562       0.06415346
H        2.50719973      -0.41894943      -1.48112108
H       -0.66077010       1.14346988       1.75490608
H        0.87700419       0.28913874       1.75795031
H        1.36742928       1.73453910      -0.08868286
