13
Frame=0 idx=010707 GeodesicLength=0.0 rxn_smarts="[C:1]([O:2][C@@:3]1([H:11])[C:4]([H:12])([H:13])[O:5][C:6]1=[O:7])([H:8])([H:9])[H:10]>>[C-:1]([O+:2]=[C:3]([C:4]([O:5][C:6](=[O:7])[H:8])([H:12])[H:13])[H:11])([H:9])[H:10]"
C        1.59309388       0.35615973      -0.38904043
O        1.26693665      -0.34479556       0.68947069
C       -0.00043140      -0.51770793       0.99332704
C       -1.02871198       0.52544802       0.69631641
O       -1.48091121       0.32766555      -0.63930136
C       -0.73294918      -0.71885938      -1.14137906
O       -1.17632599      -1.50179248      -1.91124519
H        0.47559379      -0.45071457      -1.12356433
H        2.64936960       0.29700471      -0.61503850
H        1.08255118       1.30051248      -0.55868013
H       -0.12808482      -1.21097092       1.81390682
H       -0.64360203       1.54588888       0.81622149
H       -1.87652849       0.39216148       1.36900660
13
Frame=1 idx=010707 GeodesicLength=0.09062233904137063 rxn_smarts="[C:1]([O:2][C@@:3]1([H:11])[C:4]([H:12])([H:13])[O:5][C:6]1=[O:7])([H:8])([H:9])[H:10]>>[C-:1]([O+:2]=[C:3]([C:4]([O:5][C:6](=[O:7])[H:8])([H:12])[H:13])[H:11])([H:9])[H:10]"
C        1.60589191       0.35555129      -0.39231757
O        1.27037275      -0.31436777       0.70450809
C       -0.00033121      -0.51031487       0.98714694
C       -1.03618474       0.52743230       0.70264874
O       -1.48181230       0.33489206      -0.63768098
C       -0.74560087      -0.72229489      -1.13013877
O       -1.19993543      -1.49616406      -1.90386819
H        0.49196362      -0.47695709      -1.13320639
H        2.66660153       0.30127303      -0.59832608
H        1.09751035       1.29734881      -0.58272647
H       -0.12677943      -1.22732683       1.78768129
H       -0.65656977       1.54933714       0.82498602
H       -1.88512642       0.38159087       1.37129336
13
Frame=2 idx=010707 GeodesicLength=0.1811833425300887 rxn_smarts="[C:1]([O:2][C@@:3]1([H:11])[C:4]([H:12])([H:13])[O:5][C:6]1=[O:7])([H:8])([H:9])[H:10]>>[C-:1]([O+:2]=[C:3]([C:4]([O:5][C:6](=[O:7])[H:8])([H:12])[H:13])[H:11])([H:9])[H:10]"
C        1.61881065       0.35425230      -0.39545699
O        1.27298942      -0.28328891       0.71903004
C       -0.00020492      -0.50264054       0.98090431
C       -1.04408301       0.52917392       0.70927554
O       -1.48295419       0.34218471      -0.63582791
C       -0.75844020      -0.72515704      -1.11904160
O       -1.22303028      -1.48927924      -1.89762084
H        0.50843781      -0.50441374      -1.14230731
H        2.68359885       0.30520470      -0.58129252
H        1.11301466       1.29310611      -0.60742097
H       -0.12384626      -1.24201071       1.76175881
H       -0.67033487       1.55262291       0.83426658
H       -1.89395768       0.37024552       1.37373286
13
Frame=3 idx=010707 GeodesicLength=0.2716924355941977 rxn_smarts="[C:1]([O:2][C@@:3]1([H:11])[C:4]([H:12])([H:13])[O:5][C:6]1=[O:7])([H:8])([H:9])[H:10]>>[C-:1]([O+:2]=[C:3]([C:4]([O:5][C:6](=[O:7])[H:8])([H:12])[H:13])[H:11])([H:9])[H:10]"
C        1.63186348       0.35226614      -0.39844373
O        1.27478407      -0.25154328       0.73293293
C       -0.00004035      -0.49463729       0.97458492
C       -1.05241283       0.53067198       0.71620869
O       -1.48436465       0.34955471      -0.63371893
C       -0.77149497      -0.72746081      -1.10806659
O       -1.24553650      -1.48111006      -1.89251143
H        0.52501644      -0.53306930      -1.15085276
H        2.70035460       0.30879604      -0.56395646
H        1.12908871       1.28772279      -0.63278452
H       -0.11932777      -1.25504562       1.73617639
H       -0.68493282       1.55574477       0.84409137
H       -1.90299740       0.35810995       1.37634012
13
Frame=4 idx=010707 GeodesicLength=0.3621518654118894 rxn_smarts="[C:1]([O:2][C@@:3]1([H:11])[C:4]([H:12])([H:13])[O:5][C:6]1=[O:7])([H:8])([H:9])[H:10]>>[C-:1]([O+:2]=[C:3]([C:4]([O:5][C:6](=[O:7])[H:8])([H:12])[H:13])[H:11])([H:9])[H:10]"
C        1.64506277       0.34959486      -0.40125966
O        1.27574896      -0.21912051       0.74609582
C        0.00016675      -0.48625946       0.96816807
C       -1.06118053       0.53193024       0.72346088
O       -1.48607380       0.35702457      -0.63133096
C       -0.78480268      -0.72921105      -1.09719611
O       -1.26735777      -1.47164131      -1.88851169
H        0.54170152      -0.56291301      -1.15882129
H        2.71685927       0.31205943      -0.54632801
H        1.14575626       1.28112344      -0.65883695
H       -0.11327098      -1.26646248       1.71093321
H       -0.70039384       1.55870138       0.85449418
H       -1.91221594       0.34517391       1.37913252
13
Frame=5 idx=010707 GeodesicLength=0.452517985813862 rxn_smarts="[C:1]([O:2][C@@:3]1([H:11])[C:4]([H:12])([H:13])[O:5][C:6]1=[O:7])([H:8])([H:9])[H:10]>>[C-:1]([O+:2]=[C:3]([C:4]([O:5][C:6](=[O:7])[H:8])([H:12])[H:13])[H:11])([H:9])[H:10]"
C        1.65841570       0.34623583      -0.40389174
O        1.27588209      -0.18600022       0.75839024
C        0.00042890      -0.47745659       0.96165344
C       -1.07039013       0.53294357       0.73105153
O       -1.48811492       0.36458881      -0.62862938
C       -0.79838938      -0.73043583      -1.08639016
O       -1.28840841      -1.46081474      -1.88568761
H        0.55848854      -0.59395069      -1.16616894
H        2.73310787       0.31500457      -0.52841804
H        1.16302900       1.27322290      -0.68559653
H       -0.10572046      -1.27625262       1.68604712
H       -0.71675193       1.56148455       0.86550071
H       -1.92157688       0.33143045       1.38213936
13
Frame=6 idx=010707 GeodesicLength=0.5428259505656502 rxn_smarts="[C:1]([O:2][C@@:3]1([H:11])[C:4]([H:12])([H:13])[O:5][C:6]1=[O:7])([H:8])([H:9])[H:10]>>[C-:1]([O+:2]=[C:3]([C:4]([O:5][C:6](=[O:7])[H:8])([H:12])[H:13])[H:11])([H:9])[H:10]"
C        1.67192830       0.34221132      -0.40632737
O        1.27519992      -0.15219700       0.76969333
C        0.00073191      -0.46819248       0.95501518
C       -1.08004277       0.53371444       0.73899613
O       -1.49051650       0.37227813      -0.62559037
C       -0.81230197      -0.73113540      -1.07562703
O       -1.30858337      -1.44861073      -1.88401500
H        0.57539489      -0.62621493      -1.17285648
H        2.74909539       0.31768897      -0.51025395
H        1.18092141       1.26393290      -0.71307532
H       -0.09675599      -1.28443959       1.66150730
H       -0.73402424       1.56408437       0.87715565
H       -1.93104698       0.31687999       1.38537792
13
Frame=7 idx=010707 GeodesicLength=0.6330951815956328 rxn_smarts="[C:1]([O:2][C@@:3]1([H:11])[C:4]([H:12])([H:13])[O:5][C:6]1=[O:7])([H:8])([H:9])[H:10]>>[C-:1]([O+:2]=[C:3]([C:4]([O:5][C:6](=[O:7])[H:8])([H:12])[H:13])[H:11])([H:9])[H:10]"
C        1.68560130       0.33752791      -0.40856090
O        1.27371869      -0.11770674       0.77989235
C        0.00107084      -0.45842770       0.94824426
C       -1.09013720       0.53423989       0.74731240
O       -1.49331381       0.38009456      -0.62218017
C       -0.82658241      -0.73133500      -1.06486343
O       -1.32778900      -1.43495771      -1.88355738
H        0.59244219      -0.65975407      -1.17882350
H        2.76481075       0.32016778      -0.49186113
H        1.19943054       1.25315878      -0.74128137
H       -0.08643688      -1.29102785       1.63731708
H       -0.75222782       1.56648918       0.88948287
H       -1.94058720       0.30153098       1.38887892
13
Frame=8 idx=010707 GeodesicLength=0.7233190251064212 rxn_smarts="[C:1]([O:2][C@@:3]1([H:11])[C:4]([H:12])([H:13])[O:5][C:6]1=[O:7])([H:8])([H:9])[H:10]>>[C-:1]([O+:2]=[C:3]([C:4]([O:5][C:6](=[O:7])[H:8])([H:12])[H:13])[H:11])([H:9])[H:10]"
C        1.69943125       0.33220570      -0.41059026
O        1.27144897      -0.08254760       0.78884661
C        0.00142861      -0.44813920       0.94131334
C       -1.10066826       0.53451908       0.75601950
O       -1.49655121       0.38805221      -0.61836092
C       -0.84127978      -0.73103658      -1.05407579
O       -1.34587958      -1.41980085      -1.88430755
H        0.60964944      -0.69462279      -1.18399935
H        2.78024408       0.32252527      -0.47326502
H        1.21855043       1.24079036      -0.77022080
H       -0.07486723      -1.29602421       1.61344587
H       -0.77136234       1.56868007       0.90251979
H       -1.95014437       0.28539853       1.39267457
13
Frame=9 idx=010707 GeodesicLength=0.8132293759449919 rxn_smarts="[C:1]([O:2][C@@:3]1([H:11])[C:4]([H:12])([H:13])[O:5][C:6]1=[O:7])([H:8])([H:9])[H:10]>>[C-:1]([O+:2]=[C:3]([C:4]([O:5][C:6](=[O:7])[H:8])([H:12])[H:13])[H:11])([H:9])[H:10]"
C        1.71341301       0.32632534      -0.41244398
O        1.26843047      -0.04675359       0.79649566
C        0.00178864      -0.43730502       0.93420871
C       -1.11160764       0.53451114       0.76512441
O       -1.50025613       0.39611896      -0.61411062
C       -0.85632509      -0.73019913      -1.04329751
O       -1.36278850      -1.40304529      -1.88620759
H        0.62697213      -0.73085552      -1.18825095
H        2.79540127       0.32480345      -0.45452442
H        1.23828883       1.22675827      -0.79996327
H       -0.06222482      -1.29938310       1.58989289
H       -0.79142952       1.57059049       0.91632330
H       -1.95966265       0.26843401       1.39675336
13
Frame=10 idx=010707 GeodesicLength=0.9030763380881044 rxn_smarts="[C:1]([O:2][C@@:3]1([H:11])[C:4]([H:12])([H:13])[O:5][C:6]1=[O:7])([H:8])([H:9])[H:10]>>[C-:1]([O+:2]=[C:3]([C:4]([O:5][C:6](=[O:7])[H:8])([H:12])[H:13])[H:11])([H:9])[H:10]"
C        1.72753300       0.31982907      -0.41407897
O        1.26462703      -0.01029051       0.80262713
C        0.00213541      -0.42589281       0.92689291
C       -1.12296268       0.53424522       0.77465786
O       -1.50451229       0.40433348      -0.60937293
C       -0.87189712      -0.72887941      -1.03244221
O       -1.37829309      -1.38461935      -1.88941679
H        0.64448089      -0.76852994      -1.19154022
H        2.81023263       0.32712636      -0.43561844
H        1.25861387       1.21086841      -0.83043411
H       -0.04846293      -1.30114602       1.56662956
H       -0.81241009       1.57224023       0.93088395
H       -1.96908462       0.25071527       1.40121226
13
Frame=11 idx=010707 GeodesicLength=0.9929090150764281 rxn_smarts="[C:1]([O:2][C@@:3]1([H:11])[C:4]([H:12])([H:13])[O:5][C:6]1=[O:7])([H:8])([H:9])[H:10]>>[C-:1]([O+:2]=[C:3]([C:4]([O:5][C:6](=[O:7])[H:8])([H:12])[H:13])[H:11])([H:9])[H:10]"
C        1.74177980       0.31274610      -0.41548393
O        1.26004741       0.02681870       0.80712998
C        0.00244558      -0.41389709       0.91933152
C       -1.13471224       0.53371471       0.78463550
O       -1.50937736       0.41270341      -0.60410882
C       -0.88805529      -0.72707593      -1.02149136
O       -1.39225748      -1.36444630      -1.89395327
H        0.66222193      -0.80772770      -1.19379161
H        2.82471357       0.32960646      -0.41656430
H        1.27949143       1.19301343      -0.86164190
H       -0.03368463      -1.30132294       1.54361913
H       -0.83426792       1.57359704       0.94622442
H       -1.97834480       0.23227011       1.40609464
13
Frame=12 idx=010707 GeodesicLength=1.082705309240901 rxn_smarts="[C:1]([O:2][C@@:3]1([H:11])[C:4]([H:12])([H:13])[O:5][C:6]1=[O:7])([H:8])([H:9])[H:10]>>[C-:1]([O+:2]=[C:3]([C:4]([O:5][C:6](=[O:7])[H:8])([H:12])[H:13])[H:11])([H:9])[H:10]"
C        1.75613820       0.30509043      -0.41665127
O        1.25468614       0.06455447       0.80986280
C        0.00269008      -0.40130775       0.91147999
C       -1.14683253       0.53291461       0.79507416
O       -1.51492569       0.42123299      -0.59827402
C       -0.90486285      -0.72477849      -1.01043353
O       -1.40449577      -1.34243398      -1.89984230
H        0.68022069      -0.84851697      -1.19489909
H        2.83880566       0.33236801      -0.39738596
H        1.30088975       1.17304366      -0.89357199
H       -0.01798253      -1.29991933       1.52082145
H       -0.85696155       1.57462948       0.96236442
H       -1.98736961       0.21312287       1.41145535
13
Frame=13 idx=010707 GeodesicLength=1.172509318380822 rxn_smarts="[C:1]([O:2][C@@:3]1([H:11])[C:4]([H:12])([H:13])[O:5][C:6]1=[O:7])([H:8])([H:9])[H:10]>>[C-:1]([O+:2]=[C:3]([C:4]([O:5][C:6](=[O:7])[H:8])([H:12])[H:13])[H:11])([H:9])[H:10]"
C        1.77058612       0.29690303      -0.41757529
O        1.24854836       0.10287098       0.81071246
C        0.00283584      -0.38813436       0.90329434
C       -1.15929118       0.53183947       0.80598765
O       -1.52123194       0.42992213      -0.59182550
C       -0.92238696      -0.72198558      -0.99925268
O       -1.41483349      -1.31849114      -1.90709554
H        0.69853685      -0.89099075      -1.19476241
H        2.85247706       0.33554481      -0.37811827
H        1.32275035       1.15085842      -0.92620644
H       -0.00148157      -1.29696450       1.49818332
H       -0.88042164       1.57530589       0.97930987
H       -1.99608780       0.19332160       1.41734850
13
Frame=14 idx=010707 GeodesicLength=1.2622877197416336 rxn_smarts="[C:1]([O:2][C@@:3]1([H:11])[C:4]([H:12])([H:13])[O:5][C:6]1=[O:7])([H:8])([H:9])[H:10]>>[C-:1]([O+:2]=[C:3]([C:4]([O:5][C:6](=[O:7])[H:8])([H:12])[H:13])[H:11])([H:9])[H:10]"
C        1.78509623       0.28821415      -0.41825089
O        1.24162231       0.14172283       0.80952234
C        0.00284091      -0.37438503       0.89471945
C       -1.17205224       0.53048373       0.81739435
O       -1.52839264       0.43876741      -0.58471287
C       -0.94070233      -0.71868617      -0.98794275
O       -1.42303032      -1.29249650      -1.91574519
H        0.71720319      -0.93523440      -1.19323500
H        2.86567318       0.33931126      -0.35881886
H        1.34503324       1.12628016      -0.95950110
H        0.01569892      -1.29248128       1.47565708
H       -0.90457077       1.57559097       0.99707186
H       -2.00441969       0.17291289       1.42384159
13
Frame=15 idx=010707 GeodesicLength=1.3520429808058154 rxn_smarts="[C:1]([O:2][C@@:3]1([H:11])[C:4]([H:12])([H:13])[O:5][C:6]1=[O:7])([H:8])([H:9])[H:10]>>[C-:1]([O+:2]=[C:3]([C:4]([O:5][C:6](=[O:7])[H:8])([H:12])[H:13])[H:11])([H:9])[H:10]"
C        1.79964139       0.27906021      -0.41866759
O        1.23390133       0.18104869       0.80615339
C        0.00266123      -0.36008302       0.88569529
C       -1.18507052       0.52884346       0.82930747
O       -1.53650499       0.44776645      -0.57688987
C       -0.95988766      -0.71486991      -0.97649967
O       -1.42885741      -1.26434131      -1.92580824
H        0.73627058      -0.98134364      -1.19017166
H        2.87833623       0.34385608      -0.33955303
H        1.36768015       1.09917247      -0.99339954
H        0.03341448      -1.28651488       1.45318167
H       -0.92930321       1.57545262       1.01565181
H       -2.01228161       0.15195278       1.43099997
13
Frame=16 idx=010707 GeodesicLength=1.4417434096538073 rxn_smarts="[C:1]([O:2][C@@:3]1([H:11])[C:4]([H:12])([H:13])[O:5][C:6]1=[O:7])([H:8])([H:9])[H:10]>>[C-:1]([O+:2]=[C:3]([C:4]([O:5][C:6](=[O:7])[H:8])([H:12])[H:13])[H:11])([H:9])[H:10]"
C        1.81418432       0.26949352      -0.41881634
O        1.22537271       0.22076839       0.80044734
C        0.00224695      -0.34526052       0.87615728
C       -1.19829208       0.52691616       0.84173675
O       -1.54567802       0.45690906      -0.56830831
C       -0.98001865      -0.71052341      -0.96492530
O       -1.43207878      -1.23392837      -1.93731353
H        0.75578750      -1.02939159      -1.18540446
H        2.89039895       0.34938035      -0.32041115
H        1.39064146       1.06938971      -1.02779403
H        0.05151475      -1.27912154       1.43069636
H       -0.95449165       1.57485900       1.03503946
H       -2.01958745       0.13050924       1.43889593
