13
Frame=0 idx=008869 GeodesicLength=0.0 rxn_smarts="[N:1]#[C:2][C@@:3]1([H:8])[C@@:4]2([H:9])[C:5]([H:10])([H:11])[C:6]([H:12])([H:13])[N:7]12>>[N:1]#[C:2][C@@:3]1([H:8])[C-:4]([H:9])[N+:7]12[C:5]([H:10])([H:11])[C:6]2([H:12])[H:13]"
N        2.43487387       0.60896367       1.54593134
C        1.84729488       0.44219162       0.57481891
C        1.06271236       0.26488266      -0.64924996
C        0.60200634      -1.12675260      -0.94806952
C       -1.18971698      -0.71734669       0.17532281
C       -1.02776181       0.63996266       0.71579452
N       -0.36259542       0.51331748      -0.55935482
H        1.47655258       0.86252030      -1.45917128
H        0.25554948      -1.08700359      -1.99038253
H       -2.06149690      -0.95320926      -0.41527560
H       -0.76234381      -1.52155136       0.74778656
H       -1.86169993       1.32964863       0.65564464
H       -0.41337470       0.74437646       1.60620494
13
Frame=1 idx=008869 GeodesicLength=0.0788000790096077 rxn_smarts="[N:1]#[C:2][C@@:3]1([H:8])[C@@:4]2([H:9])[C:5]([H:10])([H:11])[C:6]([H:12])([H:13])[N:7]12>>[N:1]#[C:2][C@@:3]1([H:8])[C-:4]([H:9])[N+:7]12[C:5]([H:10])([H:11])[C:6]2([H:12])[H:13]"
N        2.44340927       0.56138580       1.55287569
C        1.85139643       0.41682054       0.58088761
C        1.06967347       0.27032984      -0.64717441
C        0.57672241      -1.10429234      -0.96984549
C       -1.17537784      -0.72663762       0.19207856
C       -1.03657014       0.64786550       0.70141976
N       -0.35736852       0.50514909      -0.56359506
H        1.48535330       0.88101183      -1.44597548
H        0.24713907      -1.06009694      -2.01652997
H       -2.05219382      -0.98728831      -0.38111723
H       -0.73914565      -1.51121422       0.78599197
H       -1.88138836       1.32173273       0.61730278
H       -0.43164962       0.78523411       1.59368126
13
Frame=2 idx=008869 GeodesicLength=0.1576338637990387 rxn_smarts="[N:1]#[C:2][C@@:3]1([H:8])[C@@:4]2([H:9])[C:5]([H:10])([H:11])[C:6]([H:12])([H:13])[N:7]12>>[N:1]#[C:2][C@@:3]1([H:8])[C-:4]([H:9])[N+:7]12[C:5]([H:10])([H:11])[C:6]2([H:12])[H:13]"
N        2.45085269       0.51401718       1.55914794
C        1.85535723       0.39183551       0.58618436
C        1.07638575       0.27532883      -0.64500586
C        0.55172741      -1.08152998      -0.99038558
C       -1.16067113      -0.73511746       0.20832953
C       -1.04536083       0.65512144       0.68716113
N       -0.35210138       0.49822459      -0.56755171
H        1.49397350       0.89848832      -1.43272822
H        0.23855331      -1.03373001      -2.04105484
H       -2.04177846      -1.02002016      -0.34718400
H       -0.71622555      -1.49984435       0.82293332
H       -1.90078389       1.31225986       0.58010651
H       -0.44992865       0.82496624       1.58004743
13
Frame=3 idx=008869 GeodesicLength=0.23656530703883077 rxn_smarts="[N:1]#[C:2][C@@:3]1([H:8])[C@@:4]2([H:9])[C:5]([H:10])([H:11])[C:6]([H:12])([H:13])[N:7]12>>[N:1]#[C:2][C@@:3]1([H:8])[C-:4]([H:9])[N+:7]12[C:5]([H:10])([H:11])[C:6]2([H:12])[H:13]"
N        2.45735357       0.46675021       1.56472684
C        1.85922632       0.36725350       0.59076327
C        1.08289406       0.27992237      -0.64277269
C        0.52703534      -1.05846915      -1.00975712
C       -1.14562363      -0.74284724       0.22410100
C       -1.05417980       0.66177561       0.67304258
N       -0.34680360       0.49252817      -0.57127187
H        1.50249457       0.91502592      -1.41945728
H        0.22981160      -1.00787248      -2.06407524
H       -2.03029185      -1.05151170      -0.31353526
H       -0.69367918      -1.48749549       0.85880869
H       -1.91996340       1.30128978       0.54398443
H       -0.46827402       0.86365050       1.56544265
13
Frame=4 idx=008869 GeodesicLength=0.3156993319047651 rxn_smarts="[N:1]#[C:2][C@@:3]1([H:8])[C@@:4]2([H:9])[C:5]([H:10])([H:11])[C:6]([H:12])([H:13])[N:7]12>>[N:1]#[C:2][C@@:3]1([H:8])[C-:4]([H:9])[N+:7]12[C:5]([H:10])([H:11])[C:6]2([H:12])[H:13]"
N        2.46300502       0.41931285       1.56956892
C        1.86298679       0.34311961       0.59465459
C        1.08919213       0.28417786      -0.64048662
C        0.50263510      -1.03510346      -1.02800908
C       -1.13019054      -0.74988098       0.23942440
C       -1.06303071       0.66788616       0.65903797
N       -0.34146999       0.48800372      -0.57470926
H        1.51090991       0.93074024      -1.40616833
H        0.22085026      -0.98245086      -2.08564558
H       -2.01762214      -1.08196174      -0.28019395
H       -0.67154172      -1.47413525       0.89381075
H       -1.93885456       1.28892638       0.50875646
H       -0.48686953       0.90136546       1.54995973
13
Frame=5 idx=008869 GeodesicLength=0.39494568931489993 rxn_smarts="[N:1]#[C:2][C@@:3]1([H:8])[C@@:4]2([H:9])[C:5]([H:10])([H:11])[C:6]([H:12])([H:13])[N:7]12>>[N:1]#[C:2][C@@:3]1([H:8])[C-:4]([H:9])[N+:7]12[C:5]([H:10])([H:11])[C:6]2([H:12])[H:13]"
N        2.46791126       0.37194235       1.57363510
C        1.86670413       0.31941307       0.59788290
C        1.09532869       0.28807570      -0.63816168
C        0.47856841      -1.01144112      -1.04512764
C       -1.11443024      -0.75621870       0.25426008
C       -1.07195384       0.67343606       0.64519082
N       -0.33611256       0.48466535      -0.57794458
H        1.51930814       0.94554503      -1.39289740
H        0.21175315      -0.95752168      -2.10578889
H       -2.00387087      -1.11122232      -0.24728316
H       -0.64996258      -1.45983228       0.92796789
H       -1.95756564       1.27519150       0.47458120
H       -0.50567805       0.93796705       1.53368537
13
Frame=6 idx=008869 GeodesicLength=0.4743629535096604 rxn_smarts="[N:1]#[C:2][C@@:3]1([H:8])[C@@:4]2([H:9])[C:5]([H:10])([H:11])[C:6]([H:12])([H:13])[N:7]12>>[N:1]#[C:2][C@@:3]1([H:8])[C-:4]([H:9])[N+:7]12[C:5]([H:10])([H:11])[C:6]2([H:12])[H:13]"
N        2.47220493       0.32432056       1.57692860
C        1.87039237       0.29617830       0.60049891
C        1.10130554       0.29169911      -0.63581347
C        0.45482007      -0.98751283      -1.06119405
C       -1.09831167      -0.76190536       0.26867216
C       -1.08095449       0.67846577       0.63147996
N       -0.33075019       0.48241509      -0.58092765
H        1.52765379       0.95961363      -1.37966886
H        0.20243838      -0.93302732      -2.12460770
H       -1.98894915      -1.13947721      -0.21480725
H       -0.62893327      -1.44453270       0.96148641
H       -1.97596911       1.26016785       0.44120259
H       -0.52494720       0.97359511       1.51675035
13
Frame=7 idx=008869 GeodesicLength=0.5538802329210699 rxn_smarts="[N:1]#[C:2][C@@:3]1([H:8])[C@@:4]2([H:9])[C:5]([H:10])([H:11])[C:6]([H:12])([H:13])[N:7]12>>[N:1]#[C:2][C@@:3]1([H:8])[C-:4]([H:9])[N+:7]12[C:5]([H:10])([H:11])[C:6]2([H:12])[H:13]"
N        2.47600546       0.27687270       1.57934446
C        1.87406524       0.27329638       0.60256107
C        1.10715458       0.29499587      -0.63341401
C        0.43139938      -0.96331392      -1.07619085
C       -1.08189607      -0.76694928       0.28259987
C       -1.09004288       0.68296383       0.61793999
N       -0.32535323       0.48128108      -0.58371317
H        1.53605895       0.97283256      -1.36646635
H        0.19297709      -0.90901762      -2.14209941
H       -1.97294985      -1.16658038      -0.18289434
H       -0.60867458      -1.42830091       0.99432814
H       -1.99414930       1.24388101       0.40883668
H       -0.54459479       1.00803868       1.49916793
13
Frame=8 idx=008869 GeodesicLength=0.6335823531998044 rxn_smarts="[N:1]#[C:2][C@@:3]1([H:8])[C@@:4]2([H:9])[C:5]([H:10])([H:11])[C:6]([H:12])([H:13])[N:7]12>>[N:1]#[C:2][C@@:3]1([H:8])[C-:4]([H:9])[N+:7]12[C:5]([H:10])([H:11])[C:6]2([H:12])[H:13]"
N        2.47939669       0.22902708       1.58084022
C        1.87774719       0.25083624       0.60408541
C        1.11286986       0.29808510      -0.63098686
C        0.40834015      -0.93884272      -1.09018239
C       -1.06513323      -0.77141241       0.29616673
C       -1.09926840       0.68699936       0.60451614
N       -0.31991238       0.48118489      -0.58621975
H        1.54445422       0.98539520      -1.35329686
H        0.18331046      -0.88539070      -2.15834692
H       -1.95580955      -1.19278874      -0.15149715
H       -0.58906636      -1.41108187       1.02674958
H       -2.01208949       1.22641138       0.37709661
H       -0.56483915       1.04157719       1.48107524
13
Frame=9 idx=008869 GeodesicLength=0.7134417175004367 rxn_smarts="[N:1]#[C:2][C@@:3]1([H:8])[C@@:4]2([H:9])[C:5]([H:10])([H:11])[C:6]([H:12])([H:13])[N:7]12>>[N:1]#[C:2][C@@:3]1([H:8])[C-:4]([H:9])[N+:7]12[C:5]([H:10])([H:11])[C:6]2([H:12])[H:13]"
N        2.48252244       0.18124893       1.58133605
C        1.88144641       0.22868250       0.60510659
C        1.11849288       0.30089082      -0.62851556
C        0.38560263      -0.91409323      -1.10313392
C       -1.04807704      -0.77528499       0.30929076
C       -1.10862306       0.69054472       0.59127526
N       -0.31443771       0.48213237      -0.58849932
H        1.55297128       0.99717328      -1.34017183
H        0.17348221      -0.86220587      -2.17334243
H       -1.93755607      -1.21797859      -0.12078763
H       -0.57036145      -1.39290303       1.05868824
H       -2.02974810       1.20778932       0.34622486
H       -0.58571441       1.07400378       1.46252893
13
Frame=10 idx=008869 GeodesicLength=0.7934474280577212 rxn_smarts="[N:1]#[C:2][C@@:3]1([H:8])[C@@:4]2([H:9])[C:5]([H:10])([H:11])[C:6]([H:12])([H:13])[N:7]12>>[N:1]#[C:2][C@@:3]1([H:8])[C-:4]([H:9])[N+:7]12[C:5]([H:10])([H:11])[C:6]2([H:12])[H:13]"
N        2.48545434       0.13291343       1.58078473
C        1.88519598       0.20691017       0.60567116
C        1.12401138       0.30354948      -0.62599441
C        0.36323658      -0.88907241      -1.11510815
C       -1.03067702      -0.77858890       0.32213452
C       -1.11815393       0.69364063       0.57811109
N       -0.30893387       0.48405194      -0.59047486
H        1.56150062       1.00839422      -1.32705637
H        0.16344473      -0.83936257      -2.18714238
H       -1.91815629      -1.24231232      -0.09061451
H       -0.55241899      -1.37368480       1.09035424
H       -2.04714106       1.18799477       0.31580725
H       -0.60736248       1.10556635       1.44352769
13
Frame=11 idx=008869 GeodesicLength=0.8735972958481736 rxn_smarts="[N:1]#[C:2][C@@:3]1([H:8])[C@@:4]2([H:9])[C:5]([H:10])([H:11])[C:6]([H:12])([H:13])[N:7]12>>[N:1]#[C:2][C@@:3]1([H:8])[C-:4]([H:9])[N+:7]12[C:5]([H:10])([H:11])[C:6]2([H:12])[H:13]"
N        2.48834332       0.08450294       1.57908096
C        1.88897201       0.18537885       0.60581204
C        1.12945109       0.30598557      -0.62340863
C        0.34121855      -0.86376888      -1.12606749
C       -1.01299463      -0.78133697       0.33461171
C       -1.12785613       0.69628056       0.56510349
N       -0.30337962       0.48695531      -0.59218736
H        1.57017017       1.01891802      -1.31396369
H        0.15326248      -0.81694377      -2.19974621
H       -1.89765705      -1.26570164      -0.06118751
H       -0.53547802      -1.35345854       1.12169294
H       -2.06423972       1.16711624       0.28609591
H       -0.62981245       1.13607230       1.42416386
13
Frame=12 idx=008869 GeodesicLength=0.9539074032822517 rxn_smarts="[N:1]#[C:2][C@@:3]1([H:8])[C@@:4]2([H:9])[C:5]([H:10])([H:11])[C:6]([H:12])([H:13])[N:7]12>>[N:1]#[C:2][C@@:3]1([H:8])[C-:4]([H:9])[N+:7]12[C:5]([H:10])([H:11])[C:6]2([H:12])[H:13]"
N        2.49117597       0.03545275       1.57621368
C        1.89281568       0.16415051       0.60555176
C        1.13480571       0.30831372      -0.62074861
C        0.31957568      -0.83819485      -1.13606482
C       -0.99496524      -0.78353190       0.34687459
C       -1.13776622       0.69850690       0.55216699
N       -0.29776140       0.49077735      -0.59357538
H        1.57889938       1.02893767      -1.30088072
H        0.14285316      -0.79485766      -2.21120197
H       -1.87599454      -1.28830478      -0.03232984
H       -0.51937733      -1.33213822       1.15283343
H       -2.08102232       1.14514169       0.25673926
H       -0.65323853       1.16574682       1.40442162
13
Frame=13 idx=008869 GeodesicLength=1.0343197496208745 rxn_smarts="[N:1]#[C:2][C@@:3]1([H:8])[C@@:4]2([H:9])[C:5]([H:10])([H:11])[C:6]([H:12])([H:13])[N:7]12>>[N:1]#[C:2][C@@:3]1([H:8])[C-:4]([H:9])[N+:7]12[C:5]([H:10])([H:11])[C:6]2([H:12])[H:13]"
N        2.49415392      -0.01394068       1.57203874
C        1.89671359       0.14312166       0.60493944
C        1.14009888       0.31050095      -0.61798846
C        0.29830392      -0.81234521      -1.14506406
C       -0.97665726      -0.78517384       0.35889785
C       -1.14788647       0.70030517       0.53932569
N       -0.29208536       0.49551343      -0.59463296
H        1.58776386       1.03838703      -1.28777987
H        0.13228445      -0.77315288      -2.22149329
H       -1.85324278      -1.31004532      -0.00417915
H       -0.50431679      -1.30974709       1.18374591
H       -2.09746702       1.12210361       0.22783396
H       -0.67766296       1.19447318       1.38435620
13
Frame=14 idx=008869 GeodesicLength=1.1147881768569436 rxn_smarts="[N:1]#[C:2][C@@:3]1([H:8])[C@@:4]2([H:9])[C:5]([H:10])([H:11])[C:6]([H:12])([H:13])[N:7]12>>[N:1]#[C:2][C@@:3]1([H:8])[C-:4]([H:9])[N+:7]12[C:5]([H:10])([H:11])[C:6]2([H:12])[H:13]"
N        2.49745602      -0.06357648       1.56643711
C        1.90065534       0.12223823       0.60401596
C        1.14533200       0.31255871      -0.61509267
C        0.27741644      -0.78623899      -1.15303885
C       -0.95812462      -0.78626648       0.37071091
C       -1.15821224       0.70167836       0.52656794
N       -0.28634592       0.50111625      -0.59532149
H        1.59675428       1.04727680      -1.27463414
H        0.12157728      -0.75183900      -2.23058926
H       -1.82947311      -1.33090502       0.02320562
H       -0.49038688      -1.28633091       1.21440510
H       -2.11348791       1.09807076       0.19930441
H       -0.70316068       1.22221778       1.36402936
13
Frame=15 idx=008869 GeodesicLength=1.1952493233725314 rxn_smarts="[N:1]#[C:2][C@@:3]1([H:8])[C@@:4]2([H:9])[C:5]([H:10])([H:11])[C:6]([H:12])([H:13])[N:7]12>>[N:1]#[C:2][C@@:3]1([H:8])[C-:4]([H:9])[N+:7]12[C:5]([H:10])([H:11])[C:6]2([H:12])[H:13]"
N        2.50117130      -0.11313036       1.55946109
C        1.90463748       0.10136507       0.60280142
C        1.15050921       0.31446559      -0.61204698
C        0.25689502      -0.75990494      -1.15999950
C       -0.93942336      -0.78682591       0.38230982
C       -1.16870743       0.70262874       0.51391534
N       -0.28052393       0.50753819      -0.59561319
H        1.60590273       1.05557550      -1.26146335
H        0.11069422      -0.73095480      -2.23852918
H       -1.80477846      -1.35084617       0.04975166
H       -0.47764261      -1.26197529       1.24471341
H       -2.12899374       1.07317619       0.17117249
H       -0.72974043       1.24888820       1.34352696
13
Frame=16 idx=008869 GeodesicLength=1.2757279472827348 rxn_smarts="[N:1]#[C:2][C@@:3]1([H:8])[C@@:4]2([H:9])[C:5]([H:10])([H:11])[C:6]([H:12])([H:13])[N:7]12>>[N:1]#[C:2][C@@:3]1([H:8])[C-:4]([H:9])[N+:7]12[C:5]([H:10])([H:11])[C:6]2([H:12])[H:13]"
N        2.50534500      -0.16313436       1.55091598
C        1.90864413       0.08061294       0.60133827
C        1.15562687       0.31631740      -0.60881729
C        0.23678721      -0.73332495      -1.16591534
C       -0.92052550      -0.78681677       0.39380568
C       -1.17942599       0.70319394       0.50129829
N       -0.27462871       0.51476789      -0.59548801
H        1.61517710       1.06340770      -1.24821139
H        0.09968388      -0.71049031      -2.24526969
H       -1.77910801      -1.36996020       0.07558718
H       -0.46601881      -1.23656803       1.27474196
H       -2.14401791       1.04734587       0.14326126
H       -0.75753926       1.27464888       1.32275309
