16
Frame=0 idx=003019 GeodesicLength=0.0 rxn_smarts="[C:1]([C@@:2]1([H:10])[C:3]([H:11])([H:12])[C:4]([H:13])([H:14])[C@:5]1([O:6][H:16])[H:15])([H:7])([H:8])[H:9]>>[C:1]([C:2][C@@:5]([C:4]([C:3]([H:10])([H:11])[H:12])([H:13])[H:14])([O:6][H:16])[H:15])([H:7])([H:8])[H:9]"
C        1.44721683      -1.21713618       0.21243787
C        0.29543263      -0.49086403       0.82211519
C        0.23933063       1.51170250       0.09866730
C       -1.21532658       1.07433335       0.06408055
C       -0.97949966      -0.42601396       0.00407241
O       -0.88307982      -0.75717311      -1.38731643
H        1.22107061      -2.27704245       0.39351749
H        1.58553811      -1.09702981      -0.86865986
H        2.38551099      -1.01557940       0.72956075
H        0.63803077       0.77929691       1.01564167
H        0.47636381       2.47323852       0.55653975
H        0.76594451       1.38203777      -0.84205209
H       -1.71683725       1.34363153       0.99333333
H       -1.79145480       1.45303690      -0.77935699
H       -1.76475462      -1.04130428       0.45785267
H       -0.70348622      -1.69513426      -1.47043355
16
Frame=1 idx=003019 GeodesicLength=0.0609183344328502 rxn_smarts="[C:1]([C@@:2]1([H:10])[C:3]([H:11])([H:12])[C:4]([H:13])([H:14])[C@:5]1([O:6][H:16])[H:15])([H:7])([H:8])[H:9]>>[C:1]([C:2][C@@:5]([C:4]([C:3]([H:10])([H:11])[H:12])([H:13])[H:14])([O:6][H:16])[H:15])([H:7])([H:8])[H:9]"
C        1.44943077      -1.21935852       0.20380439
C        0.30154296      -0.48901565       0.81488290
C        0.24179192       1.51334850       0.10976915
C       -1.21232557       1.07405936       0.05516832
C       -0.97615136      -0.42656998       0.00333762
O       -0.89049652      -0.77333474      -1.38374132
H        1.22101414      -2.27926720       0.38200770
H        1.58437676      -1.09390739      -0.87698363
H        2.38993605      -1.02297017       0.71896019
H        0.64641449       0.78544807       1.04448187
H        0.45911973       2.47795925       0.57099350
H        0.77541360       1.40337584      -0.82986557
H       -1.73243671       1.34821151       0.97273396
H       -1.77273241       1.44936924      -0.80030183
H       -1.75949960      -1.03269204       0.47314443
H       -0.72539825      -1.71465609      -1.45839169
16
Frame=2 idx=003019 GeodesicLength=0.12181865666798809 rxn_smarts="[C:1]([C@@:2]1([H:10])[C:3]([H:11])([H:12])[C:4]([H:13])([H:14])[C@:5]1([O:6][H:16])[H:15])([H:7])([H:8])[H:9]>>[C:1]([C:2][C@@:5]([C:4]([C:3]([H:10])([H:11])[H:12])([H:13])[H:14])([O:6][H:16])[H:15])([H:7])([H:8])[H:9]"
C        1.45164951      -1.22143594       0.19482299
C        0.30776436      -0.48702315       0.80749024
C        0.24416749       1.51500934       0.12120243
C       -1.20913294       1.07378883       0.04583157
C       -0.97282926      -0.42715400       0.00262909
O       -0.89830803      -0.78998518      -1.37977718
H        1.22111197      -2.28132573       0.37040287
H        1.58294988      -1.09072297      -0.88566622
H        2.39444479      -1.02999043       0.70772389
H        0.65452832       0.79109708       1.07350966
H        0.44168873       2.48208674       0.58625085
H        0.78495411       1.42530649      -0.81687015
H       -1.74811191       1.35295582       0.95096287
H       -1.75310084       1.44547981      -0.82176570
H       -1.75404521      -1.02368585       0.48866628
H       -0.74773098      -1.73440086      -1.44541351
16
Frame=3 idx=003019 GeodesicLength=0.18270127043286857 rxn_smarts="[C:1]([C@@:2]1([H:10])[C:3]([H:11])([H:12])[C:4]([H:13])([H:14])[C@:5]1([O:6][H:16])[H:15])([H:7])([H:8])[H:9]>>[C:1]([C:2][C@@:5]([C:4]([C:3]([H:10])([H:11])[H:12])([H:13])[H:14])([O:6][H:16])[H:15])([H:7])([H:8])[H:9]"
C        1.45386950      -1.22336267       0.18547531
C        0.31409527      -0.48489359       0.79993369
C        0.24643514       1.51668801       0.13296985
C       -1.20573243       1.07351903       0.03605131
C       -0.96953375      -0.42776243       0.00195321
O       -0.90653000      -0.80713401      -1.37538844
H        1.22136816      -2.28321687       0.35868084
H        1.58123950      -1.08746676      -0.89472511
H        2.39903691      -1.03663646       0.69582567
H        0.66238284       0.79622066       1.10273354
H        0.42402473       2.48561325       0.60232444
H        0.79456445       1.44783326      -0.80300714
H       -1.76384348       1.35786916       0.92795548
H       -1.73250509       1.44133652      -0.84376114
H       -1.74838725      -1.01424495       0.50442209
H       -0.77048451      -1.75436216      -1.43144360
16
Frame=4 idx=003019 GeodesicLength=0.2435652258769903 rxn_smarts="[C:1]([C@@:2]1([H:10])[C:3]([H:11])([H:12])[C:4]([H:13])([H:14])[C@:5]1([O:6][H:16])[H:15])([H:7])([H:8])[H:9]>>[C:1]([C:2][C@@:5]([C:4]([C:3]([H:10])([H:11])[H:12])([H:13])[H:14])([O:6][H:16])[H:15])([H:7])([H:8])[H:9]"
C        1.45608500      -1.22512948       0.17573569
C        0.32053473      -0.48263461       0.79221050
C        0.24857027       1.51838555       0.14508113
C       -1.20210131       1.07324636       0.02580819
C       -0.96626680      -0.42839065       0.00132091
O       -0.91518653      -0.82479257      -1.37052788
H        1.22178957      -2.28493620       0.34681179
H        1.57921743      -1.08412388      -0.90418419
H        2.40371240      -1.04289764       0.68322779
H        0.66998661       0.80079087       1.13216643
H        0.40606182       2.48852378       0.61923595
H        0.80424308       1.47096366      -0.78820515
H       -1.77960305       1.36295661       0.90361846
H       -1.71085532       1.43689564      -0.86630869
H       -1.74252358      -1.00432282       0.52042163
H       -0.79366431      -1.77453460      -1.41641257
16
Frame=5 idx=003019 GeodesicLength=0.30440969175275284 rxn_smarts="[C:1]([C@@:2]1([H:10])[C:3]([H:11])([H:12])[C:4]([H:13])([H:14])[C@:5]1([O:6][H:16])[H:15])([H:7])([H:8])[H:9]>>[C:1]([C:2][C@@:5]([C:4]([C:3]([H:10])([H:11])[H:12])([H:13])[H:14])([O:6][H:16])[H:15])([H:7])([H:8])[H:9]"
C        1.45829103      -1.22672804       0.16558277
C        0.32707972      -0.48025142       0.78431717
C        0.25055087       1.52010109       0.15753863
C       -1.19821976       1.07296849       0.01507837
C       -0.96303066      -0.42903698       0.00073899
O       -0.92429550      -0.84296863      -1.36515227
H        1.22237991      -2.28648033       0.33477197
H        1.57686034      -1.08068210      -0.91406465
H        2.40847083      -1.04876518       0.66990009
H        0.67734698       0.80477910       1.16181784
H        0.38774680       2.49080306       0.63699487
H        0.81398297       1.49470253      -0.77239775
H       -1.79536282       1.36822410       0.87787857
H       -1.68808199       1.43211947      -0.88941377
H       -1.73645099      -0.99387724       0.53666505
H       -0.81726770      -1.79490794      -1.40025587
16
Frame=6 idx=003019 GeodesicLength=0.3652307874105765 rxn_smarts="[C:1]([C@@:2]1([H:10])[C:3]([H:11])([H:12])[C:4]([H:13])([H:14])[C@:5]1([O:6][H:16])[H:15])([H:7])([H:8])[H:9]>>[C:1]([C:2][C@@:5]([C:4]([C:3]([H:10])([H:11])[H:12])([H:13])[H:14])([O:6][H:16])[H:15])([H:7])([H:8])[H:9]"
C        1.46048010      -1.22814672       0.15498897
C        0.33372849      -0.47775022       0.77625263
C        0.25234800       1.52183340       0.17035566
C       -1.19405447       1.07267892       0.00383632
C       -0.95982774      -0.42969426       0.00021960
O       -0.93388223      -0.86167027      -1.35920576
H        1.22314492      -2.28784217       0.32252776
H        1.57413426      -1.07712387      -0.92439042
H        2.41330977      -1.05422593       0.65579578
H        0.68447844       0.80815361       1.19169745
H        0.36899491       2.49242464       0.65561887
H        0.82377156       1.51905553      -0.75550219
H       -1.81108090       1.37367311       0.85062584
H       -1.66407830       1.42695435      -0.91308492
H       -1.73016989      -0.98284920       0.55315688
H       -0.84129691      -1.81547092      -1.38289247
16
Frame=7 idx=003019 GeodesicLength=0.4260291799619515 rxn_smarts="[C:1]([C@@:2]1([H:10])[C:3]([H:11])([H:12])[C:4]([H:13])([H:14])[C@:5]1([O:6][H:16])[H:15])([H:7])([H:8])[H:9]>>[C:1]([C:2][C@@:5]([C:4]([C:3]([H:10])([H:11])[H:12])([H:13])[H:14])([O:6][H:16])[H:15])([H:7])([H:8])[H:9]"
C        1.46264399      -1.22937587       0.14393509
C        0.34047824      -0.47513463       0.76801627
C        0.25394171       1.52358024       0.18353312
C       -1.18958721       1.07237630      -0.00793195
C       -0.95666064      -0.43036142      -0.00022737
O       -0.94396060      -0.88089156      -1.35264006
H        1.22408522      -2.28901711       0.31005485
H        1.57101300      -1.07343495      -0.93517823
H        2.41822379      -1.05927084       0.64088576
H        0.69139077       0.81088753       1.22181443
H        0.34974903       2.49336191       0.67510169
H        0.83358705       1.54401899      -0.73746010
H       -1.82671473       1.37930629       0.82177797
H       -1.63877094       1.42135762      -0.93731137
H       -1.72367852      -0.97120495       0.56988706
H       -0.86574015      -1.83619757      -1.36425716
16
Frame=8 idx=003019 GeodesicLength=0.48678979560020635 rxn_smarts="[C:1]([C@@:2]1([H:10])[C:3]([H:11])([H:12])[C:4]([H:13])([H:14])[C@:5]1([O:6][H:16])[H:15])([H:7])([H:8])[H:9]>>[C:1]([C:2][C@@:5]([C:4]([C:3]([H:10])([H:11])[H:12])([H:13])[H:14])([O:6][H:16])[H:15])([H:7])([H:8])[H:9]"
C        1.46477075      -1.23039884       0.13238881
C        0.34732410      -0.47241119       0.75961020
C        0.25529383       1.52533267       0.19708529
C       -1.18477363       1.07205081      -0.02026112
C       -0.95353655      -0.43103402      -0.00058592
O       -0.95456109      -0.90063556      -1.34538756
H        1.22520591      -2.28999505       0.29731210
H        1.56745150      -1.06958835      -0.94645559
H        2.42320712      -1.06387858       0.62511385
H        0.69809623       0.81294182       1.25217334
H        0.32990364       2.49357599       0.69545418
H        0.84340645       1.56959859      -0.71816807
H       -1.84219232       1.38512302       0.79120572
H       -1.61202202       1.41525870      -0.96209215
H       -1.71697893      -0.95887447       0.58685934
H       -0.89059500      -1.85706553      -1.34425241
16
Frame=9 idx=003019 GeodesicLength=0.5475077746628987 rxn_smarts="[C:1]([C@@:2]1([H:10])[C:3]([H:11])([H:12])[C:4]([H:13])([H:14])[C@:5]1([O:6][H:16])[H:15])([H:7])([H:8])[H:9]>>[C:1]([C:2][C@@:5]([C:4]([C:3]([H:10])([H:11])[H:12])([H:13])[H:14])([O:6][H:16])[H:15])([H:7])([H:8])[H:9]"
C        1.46684470      -1.23121652       0.12036589
C        0.35425296      -0.46957790       0.75104535
C        0.25641206       1.52709009       0.21097324
C       -1.17961300       1.07170965      -0.03314700
C       -0.95046224      -0.43171180      -0.00084918
O       -0.96564835      -0.92084587      -1.33741960
H        1.22648670      -2.29077869       0.28430794
H        1.56344074      -1.06558854      -0.95820202
H        2.42823521      -1.06806113       0.60851666
H        0.70460206       0.81433419       1.28277581
H        0.30947640       2.49308510       0.71654577
H        0.85318807       1.59572551      -0.69763982
H       -1.85743095       1.39107008       0.75896388
H       -1.58390708       1.40866756      -0.98732636
H       -1.71010254      -0.94590010       0.60399946
H       -0.91577474      -1.87800162      -1.32291001
16
Frame=10 idx=003019 GeodesicLength=0.6081917205135353 rxn_smarts="[C:1]([C@@:2]1([H:10])[C:3]([H:11])([H:12])[C:4]([H:13])([H:14])[C@:5]1([O:6][H:16])[H:15])([H:7])([H:8])[H:9]>>[C:1]([C:2][C@@:5]([C:4]([C:3]([H:10])([H:11])[H:12])([H:13])[H:14])([O:6][H:16])[H:15])([H:7])([H:8])[H:9]"
C        1.46885763      -1.23180326       0.10780506
C        0.36126909      -0.46664456       0.74231865
C        0.25723345       1.52883975       0.22524410
C       -1.17404039       1.07133281      -0.04663928
C       -0.94744087      -0.43238716      -0.00099320
O       -0.97728374      -0.94155007      -1.32864326
H        1.22794446      -2.29135032       0.27096903
H        1.55891784      -1.06139132      -0.97047077
H        2.43331735      -1.07178279       0.59098097
H        0.71093858       0.81498898       1.31362730
H        0.28828444       2.49178618       0.73848126
H        0.86288789       1.62245708      -0.67571762
H       -1.87237737       1.39718996       0.72479679
H       -1.55415050       1.40145223      -1.01307138
H       -1.70302582      -0.93213335       0.62136880
H       -0.94133204      -1.89900416      -1.30005645
16
Frame=11 idx=003019 GeodesicLength=0.6688523016264123 rxn_smarts="[C:1]([C@@:2]1([H:10])[C:3]([H:11])([H:12])[C:4]([H:13])([H:14])[C@:5]1([O:6][H:16])[H:15])([H:7])([H:8])[H:9]>>[C:1]([C:2][C@@:5]([C:4]([C:3]([H:10])([H:11])[H:12])([H:13])[H:14])([O:6][H:16])[H:15])([H:7])([H:8])[H:9]"
C        1.47079240      -1.23214616       0.09468817
C        0.36836564      -0.46361327       0.73343787
C        0.25772758       1.53057053       0.23989851
C       -1.16802968       1.07091392      -0.06075284
C       -0.94447849      -0.43305755      -0.00099929
O       -0.98947148      -0.96272117      -1.31899867
H        1.22957105      -2.29170053       0.25726452
H        1.55384416      -1.05697658      -0.98327101
H        2.43844029      -1.07503232       0.57247214
H        0.71713279       0.81487947       1.34472842
H        0.26626222       2.48964400       0.76123825
H        0.87245146       1.64977997      -0.65234358
H       -1.88696071       1.40347107       0.68862266
H       -1.52265830       1.39354592      -1.03930468
H       -1.69575045      -0.91752870       0.63895552
H       -0.96723847      -1.92002863      -1.27563601
16
Frame=12 idx=003019 GeodesicLength=0.7294988611279871 rxn_smarts="[C:1]([C@@:2]1([H:10])[C:3]([H:11])([H:12])[C:4]([H:13])([H:14])[C@:5]1([O:6][H:16])[H:15])([H:7])([H:8])[H:9]>>[C:1]([C:2][C@@:5]([C:4]([C:3]([H:10])([H:11])[H:12])([H:13])[H:14])([O:6][H:16])[H:15])([H:7])([H:8])[H:9]"
C        1.47263065      -1.23222901       0.08098956
C        0.37553597      -0.46048655       0.72441237
C        0.25785637       1.53227332       0.25493851
C       -1.16152968       1.07043878      -0.07551818
C       -0.94158128      -0.43371137      -0.00084624
O       -1.00222578      -0.98433210      -1.30841344
H        1.23135502      -2.29181903       0.24315283
H        1.54817103      -1.05231528      -0.99661990
H        2.44359028      -1.07779589       0.55294128
H        0.72321667       0.81397902       1.37607328
H        0.24329227       2.48659719       0.78479958
H        0.88181271       1.67768584      -0.62743423
H       -1.90107567       1.40989561       0.65032282
H       -1.48929270       1.38485554      -1.06598451
H       -1.68828548      -0.90201895       0.65675080
H       -0.99347038      -1.94101712      -1.24956455
16
Frame=13 idx=003019 GeodesicLength=0.7901490840192811 rxn_smarts="[C:1]([C@@:2]1([H:10])[C:3]([H:11])([H:12])[C:4]([H:13])([H:14])[C@:5]1([O:6][H:16])[H:15])([H:7])([H:8])[H:9]>>[C:1]([C:2][C@@:5]([C:4]([C:3]([H:10])([H:11])[H:12])([H:13])[H:14])([O:6][H:16])[H:15])([H:7])([H:8])[H:9]"
C        1.47435208      -1.23204379       0.06670788
C        0.38276904      -0.45726284       0.71525354
C        0.25759699       1.53393630       0.27034353
C       -1.15451952       1.06990268      -0.09094097
C       -0.93875331      -0.43434489      -0.00052153
O       -1.01552847      -1.00633335      -1.29684523
H        1.23327550      -2.29169989       0.22861460
H        1.54187295      -1.04739229      -1.01050703
H        2.44874552      -1.08007404       0.53238141
H        0.72922524       0.81227331       1.40765060
H        0.21931866       2.48259774       0.80909943
H        0.89089057       1.70614385      -0.60096608
H       -1.91462497       1.41643902       0.60986479
H       -1.45401328       1.37532970      -1.09303807
H       -1.68063190      -0.88557074       0.67471733
H       -1.01997508      -1.96190077      -1.22181420
16
Frame=14 idx=003019 GeodesicLength=0.8508244510753423 rxn_smarts="[C:1]([C@@:2]1([H:10])[C:3]([H:11])([H:12])[C:4]([H:13])([H:14])[C@:5]1([O:6][H:16])[H:15])([H:7])([H:8])[H:9]>>[C:1]([C:2][C@@:5]([C:4]([C:3]([H:10])([H:11])[H:12])([H:13])[H:14])([O:6][H:16])[H:15])([H:7])([H:8])[H:9]"
C        1.47593831      -1.23157835       0.05183099
C        0.39005854      -0.45394523       0.70597965
C        0.25691152       1.53554641       0.28610214
C       -1.14695463       1.06929105      -0.10703123
C       -0.93600232      -0.43495109      -0.00000127
O       -1.02937794      -1.02867043      -1.28423289
H        1.23531428      -2.29133700       0.21361805
H        1.53490966      -1.04217925      -1.02493495
H        2.45388996      -1.08186392       0.51076212
H        0.73520019       0.80974998       1.43944745
H        0.19424090       2.47758839       0.83408085
H        0.89959020       1.73513415      -0.57288780
H       -1.92748163       1.42307662       0.56715814
H       -1.41671225       1.36488202      -1.12038375
H       -1.67280818      -0.86814187       0.69282797
H       -1.04671660      -1.98260147      -1.19233547
16
Frame=15 idx=003019 GeodesicLength=0.9115546542746047 rxn_smarts="[C:1]([C@@:2]1([H:10])[C:3]([H:11])([H:12])[C:4]([H:13])([H:14])[C@:5]1([O:6][H:16])[H:15])([H:7])([H:8])[H:9]>>[C:1]([C:2][C@@:5]([C:4]([C:3]([H:10])([H:11])[H:12])([H:13])[H:14])([O:6][H:16])[H:15])([H:7])([H:8])[H:9]"
C        1.47736943      -1.23082882       0.03636882
C        0.39739350      -0.45053357       0.69660903
C        0.25577451       1.53708899       0.30218699
C       -1.13881475       1.06859557      -0.12378226
C       -0.93333188      -0.43552660       0.00072929
O       -1.04374383      -1.05127486      -1.27054435
H        1.23744183      -2.29072947       0.19815117
H        1.52726344      -1.03666111      -1.03988316
H        2.45900159      -1.08317577       0.48809237
H        0.74118731       0.80640933       1.47144598
H        0.16801936       2.47152714       0.85964507
H        0.90780933       1.76461999      -0.54320135
H       -1.93953491       1.42977577       0.52219526
H       -1.37737616       1.35346842      -1.14791599
H       -1.66482459      -0.84972140       0.71103343
H       -1.07363419      -2.00303360      -1.16113030
16
Frame=16 idx=003019 GeodesicLength=0.9723799569908746 rxn_smarts="[C:1]([C@@:2]1([H:10])[C:3]([H:11])([H:12])[C:4]([H:13])([H:14])[C@:5]1([O:6][H:16])[H:15])([H:7])([H:8])[H:9]>>[C:1]([C:2][C@@:5]([C:4]([C:3]([H:10])([H:11])[H:12])([H:13])[H:14])([O:6][H:16])[H:15])([H:7])([H:8])[H:9]"
C        1.47862919      -1.22979241       0.02032924
C        0.40476533      -0.44702988       0.68716315
C        0.25415736       1.53855054       0.31856793
C       -1.13006568       1.06780310      -0.14119193
C       -0.93074699      -0.43606493       0.00168532
O       -1.05859909      -1.07407568      -1.25574873
H        1.23963036      -2.28987782       0.18219939
H        1.51891636      -1.03081928      -1.05533601
H        2.46406448      -1.08402274       0.46437906
H        0.74723293       0.80225474       1.50362706
H        0.14058980       2.46436141       0.88568728
H        0.91542745       1.79456728      -0.51190179
H       -1.95064885       1.43649727       0.47495809
H       -1.33597552       1.34103872      -1.17550966
H       -1.65669967      -0.83028616       0.72928648
H       -1.10067745      -2.02310416      -1.12819490
