11
Frame=0 idx=001455 GeodesicLength=0.0 rxn_smarts="[O:1]([C@@:2]1([H:8])[C:3]([H:9])([H:10])[N:4]([H:11])[C:5]1=[O:6])[H:7]>>[O+:1](=[C:2]=[C:5]([N:4]([C:3]([H:8])([H:9])[H:10])[H:11])[O-:6])[H:7]"
O        1.05015731       1.57286281      -0.81926258
C        0.71345276       0.76847186       0.17791892
C       -1.20038347      -0.19361994       0.08008032
N       -0.26657451      -1.23513353       0.22893263
C        0.96937722      -0.67992605       0.01694036
O        2.03128175      -1.22281540      -0.17891751
H        1.11389268       2.47577993      -0.49473179
H       -0.44213730       0.82735360       0.64512154
H       -2.03919767      -0.19462829       0.77637591
H       -1.48470963       0.06699415      -0.93719476
H       -0.44515910      -2.18533913       0.50473701
11
Frame=1 idx=001455 GeodesicLength=0.07183726815942594 rxn_smarts="[O:1]([C@@:2]1([H:8])[C:3]([H:9])([H:10])[N:4]([H:11])[C:5]1=[O:6])[H:7]>>[O+:1](=[C:2]=[C:5]([N:4]([C:3]([H:8])([H:9])[H:10])[H:11])[O-:6])[H:7]"
O        1.03505483       1.56802258      -0.83642016
C        0.70276329       0.77172041       0.17033382
C       -1.20082485      -0.19157416       0.08484440
N       -0.26448270      -1.23639483       0.21919283
C        0.96913621      -0.67734129       0.01125908
O        2.03818278      -1.21332866      -0.16206153
H        1.15047523       2.46466334      -0.50881987
H       -0.45783936       0.82873664       0.68112492
H       -2.05077829      -0.21897413       0.76666672
H       -1.48484324       0.09053854      -0.92683668
H       -0.43684390      -2.18606844       0.50071648
11
Frame=2 idx=001455 GeodesicLength=0.14366679536166366 rxn_smarts="[O:1]([C@@:2]1([H:8])[C:3]([H:9])([H:10])[N:4]([H:11])[C:5]1=[O:6])[H:7]>>[O+:1](=[C:2]=[C:5]([N:4]([C:3]([H:8])([H:9])[H:10])[H:11])[O-:6])[H:7]"
O        1.02018945       1.56365171      -0.85261003
C        0.69187132       0.77517839       0.16322703
C       -1.20126716      -0.18944685       0.08980954
N       -0.26234282      -1.23742915       0.20920580
C        0.96892523      -0.67444196       0.00545936
O        2.04478397      -1.20310684      -0.14521820
H        1.18704281       2.45173394      -0.52390683
H       -0.47367737       0.82934953       0.71710821
H       -2.06192049      -0.24295929       0.75622070
H       -1.48526269       0.11399118      -0.91576919
H       -0.42834225      -2.18652068       0.49647361
11
Frame=3 idx=001455 GeodesicLength=0.21550154314516373 rxn_smarts="[O:1]([C@@:2]1([H:8])[C:3]([H:9])([H:10])[N:4]([H:11])[C:5]1=[O:6])[H:7]>>[O+:1](=[C:2]=[C:5]([N:4]([C:3]([H:8])([H:9])[H:10])[H:11])[O-:6])[H:7]"
O        1.00564198       1.55969828      -0.86787699
C        0.68089300       0.77883323       0.15662331
C       -1.20165493      -0.18719916       0.09496964
N       -0.26014161      -1.23821491       0.19904411
C        0.96878754      -0.67126239      -0.00034211
O        2.05105823      -1.19227143      -0.12846652
H        1.22321253       2.43703924      -0.54002813
H       -0.48963747       0.82918801       0.75318955
H       -2.07262272      -0.26649690       0.74495921
H       -1.48583020       0.13738800      -0.90402793
H       -0.41970635      -2.18670196       0.49195586
11
Frame=4 idx=001455 GeodesicLength=0.28734180582784413 rxn_smarts="[O:1]([C@@:2]1([H:8])[C:3]([H:9])([H:10])[N:4]([H:11])[C:5]1=[O:6])[H:7]>>[O+:1](=[C:2]=[C:5]([N:4]([C:3]([H:8])([H:9])[H:10])[H:11])[O-:6])[H:7]"
O        0.99146246       1.55612459      -0.88228262
C        0.66992367       0.78267155       0.15051526
C       -1.20194905      -0.18480758       0.10031574
N       -0.25787003      -1.23873712       0.18877345
C        0.96875165      -0.66783291      -0.00607658
O        2.05699457      -1.18092527      -0.11185456
H        1.25870687       2.42065003      -0.55715547
H       -0.50572268       0.82824542       0.78944184
H       -2.08287083      -0.28950085       0.73282945
H       -1.48645004       0.16073102      -0.89165073
H       -0.41097658      -2.18661888       0.48714421
11
Frame=5 idx=001455 GeodesicLength=0.3591867856330728 rxn_smarts="[O:1]([C@@:2]1([H:8])[C:3]([H:9])([H:10])[N:4]([H:11])[C:5]1=[O:6])[H:7]>>[O+:1](=[C:2]=[C:5]([N:4]([C:3]([H:8])([H:9])[H:10])[H:11])[O-:6])[H:7]"
O        0.97771774       1.55285380      -0.89588812
C        0.65906145       0.78667368       0.14490458
C       -1.20210463      -0.18224285       0.10584694
N       -0.25551809      -1.23897335       0.17846205
C        0.96885170      -0.66418238      -0.01164365
O        2.06258996      -1.16917927      -0.09543810
H        1.29321236       2.40266854      -0.57528005
H       -0.52194218       0.82650924       0.82593062
H       -2.09265199      -0.31188430       0.71977654
H       -1.48701120       0.18403158      -0.87866219
H       -0.40220511      -2.18627467       0.48199139
11
Frame=6 idx=001455 GeodesicLength=0.43106186685874 rxn_smarts="[O:1]([C@@:2]1([H:8])[C:3]([H:9])([H:10])[N:4]([H:11])[C:5]1=[O:6])[H:7]>>[O+:1](=[C:2]=[C:5]([N:4]([C:3]([H:8])([H:9])[H:10])[H:11])[O-:6])[H:7]"
O        0.96444167       1.54980211      -0.90876720
C        0.64837574       0.79082416       0.13978371
C       -1.20208309      -0.17948120       0.11156511
N       -0.25307139      -1.23890613       0.16815192
C        0.96911504      -0.66033670      -0.01695820
O        2.06785209      -1.15713848      -0.07925700
H        1.32649831       2.38320598      -0.59438204
H       -0.53833859       0.82396110       0.86271546
H       -2.10195349      -0.33357238       0.70575296
H       -1.48741286       0.20730669      -0.86507400
H       -0.39342345      -2.18566515       0.47646926
11
Frame=7 idx=001455 GeodesicLength=0.502951892162403 rxn_smarts="[O:1]([C@@:2]1([H:8])[C:3]([H:9])([H:10])[N:4]([H:11])[C:5]1=[O:6])[H:7]>>[O+:1](=[C:2]=[C:5]([N:4]([C:3]([H:8])([H:9])[H:10])[H:11])[O-:6])[H:7]"
O        0.95143988       1.54713304      -0.92098098
C        0.63783280       0.79518701       0.13509199
C       -1.20195368      -0.17657480       0.11745500
N       -0.25053414      -1.23855942       0.15789253
C        0.96952144      -0.65625361      -0.02207011
O        2.07282319      -1.14472460      -0.06336749
H        1.35906818       2.36219693      -0.61435409
H       -0.55502844       0.82059106       0.89980394
H       -2.11080503      -0.35462428       0.69075040
H       -1.48778906       0.23046036      -0.85094559
H       -0.38457514      -2.18483169       0.47072440
11
Frame=8 idx=001455 GeodesicLength=0.5748600932152692 rxn_smarts="[O:1]([C@@:2]1([H:8])[C:3]([H:9])([H:10])[N:4]([H:11])[C:5]1=[O:6])[H:7]>>[O+:1](=[C:2]=[C:5]([N:4]([C:3]([H:8])([H:9])[H:10])[H:11])[O-:6])[H:7]"
O        0.93893429       1.54463994      -0.93261759
C        0.62754660       0.79964502       0.13078041
C       -1.20158515      -0.17347405       0.12349326
N       -0.24790335      -1.23790224       0.14764654
C        0.97006882      -0.65201733      -0.02700911
O        2.07743074      -1.13212925      -0.04774757
H        1.39015540       2.33986574      -0.63508005
H       -0.57196516       0.81627930       0.93728473
H       -2.11910227      -0.37482069       0.67471843
H       -1.48785347       0.25355967      -0.83630909
H       -0.37572643      -2.18364613       0.46484003
11
Frame=9 idx=001455 GeodesicLength=0.646757268992827 rxn_smarts="[O:1]([C@@:2]1([H:8])[C:3]([H:9])([H:10])[N:4]([H:11])[C:5]1=[O:6])[H:7]>>[O+:1](=[C:2]=[C:5]([N:4]([C:3]([H:8])([H:9])[H:10])[H:11])[O-:6])[H:7]"
O        0.92699629       1.54207268      -0.94371936
C        0.61766477       0.80417502       0.12689711
C       -1.20095097      -0.17008557       0.12973295
N       -0.24513401      -1.23688410       0.13757410
C        0.97087357      -0.64768308      -0.03147292
O        2.08181316      -1.11955113      -0.03238233
H        1.41932464       2.31645714      -0.65670472
H       -0.58920262       0.81109690       0.97512827
H       -2.12684284      -0.39402921       0.65762003
H       -1.48756992       0.27665628      -0.82109097
H       -0.36697207      -2.18222491       0.45841785
11
Frame=10 idx=001455 GeodesicLength=0.7187004418807851 rxn_smarts="[O:1]([C@@:2]1([H:8])[C:3]([H:9])([H:10])[N:4]([H:11])[C:5]1=[O:6])[H:7]>>[O+:1](=[C:2]=[C:5]([N:4]([C:3]([H:8])([H:9])[H:10])[H:11])[O-:6])[H:7]"
O        0.91563523       1.53962404      -0.95444919
C        0.60823258       0.80881602       0.12334286
C       -1.20007892      -0.16647982       0.13612759
N       -0.24228916      -1.23563566       0.12766999
C        0.97188600      -0.64331300      -0.03561556
O        2.08595197      -1.10706800      -0.01730431
H        1.44676715       2.29230273      -0.67903735
H       -0.60675925       0.80498400       1.01340664
H       -2.13402911      -0.41225836       0.63948323
H       -1.48697210       0.29969404      -0.80545986
H       -0.35834439      -2.18066599       0.45183594
11
Frame=11 idx=001455 GeodesicLength=0.7906298767126878 rxn_smarts="[O:1]([C@@:2]1([H:8])[C:3]([H:9])([H:10])[N:4]([H:11])[C:5]1=[O:6])[H:7]>>[O+:1](=[C:2]=[C:5]([N:4]([C:3]([H:8])([H:9])[H:10])[H:11])[O-:6])[H:7]"
O        0.90483747       1.53710784      -0.96482540
C        0.59923115       0.81347666       0.12003307
C       -1.19892727      -0.16262500       0.14267191
N       -0.23932699      -1.23406376       0.11794154
C        0.97310473      -0.63889585      -0.03949805
O        2.08985596      -1.09467232      -0.00256817
H        1.47233814       2.26734170      -0.70190278
H       -0.62477525       0.79783671       1.05207939
H       -2.14059917      -0.42935543       0.62029365
H       -1.48595201       0.32262872      -0.78937829
H       -0.34978675      -2.17877927       0.44515312
11
Frame=12 idx=001455 GeodesicLength=0.8625944766799111 rxn_smarts="[O:1]([C@@:2]1([H:8])[C:3]([H:9])([H:10])[N:4]([H:11])[C:5]1=[O:6])[H:7]>>[O+:1](=[C:2]=[C:5]([N:4]([C:3]([H:8])([H:9])[H:10])[H:11])[O-:6])[H:7]"
O        0.89451576       1.53458547      -0.97500436
C        0.59068187       0.81823913       0.11693591
C       -1.19752572      -0.15854220       0.14940485
N       -0.23626867      -1.23222180       0.10834612
C        0.97453944      -0.63442718      -0.04306541
O        2.09358329      -1.08235785       0.01206559
H        1.49628227       2.24170372      -0.72546623
H       -0.64330921       0.78956522       1.09126417
H       -2.14655705      -0.44538215       0.60009920
H       -1.48460613       0.34555053      -0.77281098
H       -0.34133585      -2.17671289       0.43823114
11
Frame=13 idx=001455 GeodesicLength=0.934577088654052 rxn_smarts="[O:1]([C@@:2]1([H:8])[C:3]([H:9])([H:10])[N:4]([H:11])[C:5]1=[O:6])[H:7]>>[O+:1](=[C:2]=[C:5]([N:4]([C:3]([H:8])([H:9])[H:10])[H:11])[O-:6])[H:7]"
O        0.88466634       1.53192622      -0.98504364
C        0.58261562       0.82307687       0.11402665
C       -1.19583807      -0.15420534       0.15633331
N       -0.23309579      -1.23007811       0.09892662
C        0.97619768      -0.62992076      -0.04626510
O        2.09714130      -1.07017113       0.02656226
H        1.51850284       2.21549358      -0.74969208
H       -0.66248835       0.78011812       1.13096693
H       -2.15183484      -0.46025056       0.57890145
H       -1.48286183       0.36844497      -0.75576007
H       -0.33300491      -2.17443386       0.43104366
11
Frame=14 idx=001455 GeodesicLength=1.006548560422639 rxn_smarts="[O:1]([C@@:2]1([H:8])[C:3]([H:9])([H:10])[N:4]([H:11])[C:5]1=[O:6])[H:7]>>[O+:1](=[C:2]=[C:5]([N:4]([C:3]([H:8])([H:9])[H:10])[H:11])[O-:6])[H:7]"
O        0.87540565       1.52902240      -0.99508265
C        0.57510828       0.82792948       0.11117999
C       -1.19383651      -0.14959756       0.16343478
N       -0.22981725      -1.22766676       0.08971573
C        0.97809263      -0.62546732      -0.04916834
O        2.10055117      -1.05826329       0.04092449
H        1.53873264       2.18907424      -0.77437425
H       -0.68236045       0.76939567       1.17116268
H       -2.15639528      -0.47377663       0.55674793
H       -1.48065586       0.39128968      -0.73828890
H       -0.32482504      -2.17193990       0.42374853
11
Frame=15 idx=001455 GeodesicLength=1.0785273103344624 rxn_smarts="[O:1]([C@@:2]1([H:8])[C:3]([H:9])([H:10])[N:4]([H:11])[C:5]1=[O:6])[H:7]>>[O+:1](=[C:2]=[C:5]([N:4]([C:3]([H:8])([H:9])[H:10])[H:11])[O-:6])[H:7]"
O        0.86662429       1.52589341      -1.00520092
C        0.56813726       0.83284968       0.10836521
C       -1.19153878      -0.14472558       0.17074219
N       -0.22642994      -1.22497382       0.08069659
C        0.98022391      -0.62101850      -0.05175073
O        2.10384811      -1.04654845       0.05524462
H        1.55727065       2.16238060      -0.79962167
H       -0.70309696       0.75726069       1.21191916
H       -2.16022031      -0.48598751       0.53368307
H       -1.47803486       0.41411895      -0.72035284
H       -0.31678339      -2.16924945       0.41627532
11
Frame=16 idx=001455 GeodesicLength=1.1505078785731233 rxn_smarts="[O:1]([C@@:2]1([H:8])[C:3]([H:9])([H:10])[N:4]([H:11])[C:5]1=[O:6])[H:7]>>[O+:1](=[C:2]=[C:5]([N:4]([C:3]([H:8])([H:9])[H:10])[H:11])[O-:6])[H:7]"
O        0.85830593       1.52247107      -1.01550529
C        0.56171869       0.83784509       0.10551521
C       -1.18892845      -0.13957289       0.17827464
N       -0.22292827      -1.22199008       0.07186521
C        0.98259795      -0.61657825      -0.05400696
O        2.10704785      -1.03503057       0.06960552
H        1.57415180       2.13549858      -0.82544279
H       -0.72483689       0.74357379       1.25326421
H       -2.16325875      -0.49681365       0.50976163
H       -1.47498583       0.43695922      -0.70192865
H       -0.30888402      -2.16636230       0.40859728
