16
Frame=0 idx=009639 GeodesicLength=0.0 rxn_smarts="[C:1]([C@@:2]1([H:11])[N:3]([H:12])[C@:4]1([C@@:5]1([H:14])[C:6]([H:15])([H:16])[O:7]1)[H:13])([H:8])([H:9])[H:10]>>[C:1]([C@@:2]1([H:11])[N:3]([H:12])[C@:4]1([C:5](=[O+:7][C-:6]([H:15])[H:16])[H:14])[H:13])([H:8])([H:9])[H:10]"
C       -1.95094575      -0.54911673      -0.00067134
C       -1.31498973       0.61254771       0.71178114
N       -0.22241477       0.44348703       1.65529558
C        0.04583240       1.14119076       0.38349549
C        0.91545321       0.57649371      -0.64373298
C        2.35555022      -0.97808103      -0.87756978
O        1.03095048      -0.74024580      -0.78444582
H       -2.46484612      -0.20647219      -0.90083530
H       -2.69252231      -1.02177694       0.64716231
H       -1.22123286      -1.30162012      -0.29511148
H       -2.02585096       1.36736224       1.03855828
H        0.14012788      -0.50359595       1.58787594
H        0.19307476       2.20961778       0.49942555
H        1.54926405       1.18766255      -1.26852352
H        2.66014840      -1.71772430      -1.60153445
H        3.00240117      -0.51972871      -0.15116964
16
Frame=1 idx=009639 GeodesicLength=0.038477699323158476 rxn_smarts="[C:1]([C@@:2]1([H:11])[N:3]([H:12])[C@:4]1([C@@:5]1([H:14])[C:6]([H:15])([H:16])[O:7]1)[H:13])([H:8])([H:9])[H:10]>>[C:1]([C@@:2]1([H:11])[N:3]([H:12])[C@:4]1([C:5](=[O+:7][C-:6]([H:15])[H:16])[H:14])[H:13])([H:8])([H:9])[H:10]"
C       -1.95734368      -0.54030611      -0.00334053
C       -1.31218608       0.61373880       0.71311738
N       -0.21958708       0.43129577       1.65486524
C        0.05288163       1.13062817       0.38613066
C        0.91593497       0.55894948      -0.64461472
C        2.36342055      -0.96073161      -0.86721670
O        1.03312208      -0.75990586      -0.76984093
H       -2.47162551      -0.19037278      -0.90050578
H       -2.69943395      -1.01283028       0.64399088
H       -1.23330047      -1.29604986      -0.30368339
H       -2.01699236       1.37221808       1.04441854
H        0.13417451      -0.51880755       1.58383458
H        0.21042272       2.19735436       0.50564824
H        1.50646489       1.17254748      -1.30861587
H        2.67856716      -1.70280845      -1.58442364
H        3.01548062      -0.49491965      -0.14976395
16
Frame=2 idx=009639 GeodesicLength=0.07696498381821977 rxn_smarts="[C:1]([C@@:2]1([H:11])[N:3]([H:12])[C@:4]1([C@@:5]1([H:14])[C:6]([H:15])([H:16])[O:7]1)[H:13])([H:8])([H:9])[H:10]>>[C:1]([C@@:2]1([H:11])[N:3]([H:12])[C@:4]1([C:5](=[O+:7][C-:6]([H:15])[H:16])[H:14])[H:13])([H:8])([H:9])[H:10]"
C       -1.96310951      -0.53160248      -0.00622929
C       -1.30940197       0.61503373       0.71426627
N       -0.21723706       0.41967144       1.65467734
C        0.05982631       1.12033962       0.38895098
C        0.91676208       0.54180564      -0.64496765
C        2.37060575      -0.94360296      -0.85746622
O        1.03584815      -0.77904537      -0.75435666
H       -2.47746525      -0.17465366      -0.90061117
H       -2.70585798      -1.00409331       0.64035443
H       -1.24442076      -1.29034390      -0.31209260
H       -2.00843266       1.37703736       1.04961617
H        0.12797128      -0.53329225       1.58037357
H        0.22740765       2.18531804       0.51179528
H        1.46320380       1.15560062      -1.34595424
H        2.69542503      -1.68819040      -1.56801379
H        3.02887515      -0.46998213      -0.15034241
16
Frame=3 idx=009639 GeodesicLength=0.11556984849070853 rxn_smarts="[C:1]([C@@:2]1([H:11])[N:3]([H:12])[C@:4]1([C@@:5]1([H:14])[C:6]([H:15])([H:16])[O:7]1)[H:13])([H:8])([H:9])[H:10]>>[C:1]([C@@:2]1([H:11])[N:3]([H:12])[C@:4]1([C:5](=[O+:7][C-:6]([H:15])[H:16])[H:14])[H:13])([H:8])([H:9])[H:10]"
C       -1.96832803      -0.52296332      -0.00934755
C       -1.30662812       0.61642369       0.71526292
N       -0.21531249       0.40851499       1.65472228
C        0.06669443       1.11026566       0.39195896
C        0.91783674       0.52498710      -0.64490039
C        2.37719541      -0.92668882      -0.84820100
O        1.03915129      -0.79772667      -0.73799695
H       -2.48249279      -0.15919265      -0.90111786
H       -2.71186633      -0.99552827       0.63625879
H       -1.25470714      -1.28446501      -0.32044987
H       -2.00010914       1.38184587       1.05425451
H        0.12151114      -0.54717912       1.57742835
H        0.24412751       2.17344696       0.51792088
H        1.41941915       1.13683330      -1.38074794
H        2.71096827      -1.67386953      -1.55215296
H        3.04254011      -0.44470416      -0.15289217
16
Frame=4 idx=009639 GeodesicLength=0.15425963409489604 rxn_smarts="[C:1]([C@@:2]1([H:11])[N:3]([H:12])[C@:4]1([C@@:5]1([H:14])[C:6]([H:15])([H:16])[O:7]1)[H:13])([H:8])([H:9])[H:10]>>[C:1]([C@@:2]1([H:11])[N:3]([H:12])[C@:4]1([C:5](=[O+:7][C-:6]([H:15])[H:16])[H:14])[H:13])([H:8])([H:9])[H:10]"
C       -1.97301491      -0.51446027      -0.01259365
C       -1.30381091       0.61786093       0.71611037
N       -0.21355443       0.39781840       1.65478412
C        0.07344239       1.10047661       0.39492546
C        0.91902896       0.50864053      -0.64475623
C        2.38300295      -0.91007453      -0.83921684
O        1.04274970      -0.81576855      -0.72138249
H       -2.48690739      -0.14408657      -0.90182665
H       -2.71733086      -0.98725417       0.63192946
H       -1.26419552      -1.27846067      -0.32877134
H       -1.99196689       1.38652588       1.05850930
H        0.11511722      -0.56044637       1.57466898
H        0.26046350       2.16182184       0.52380995
H        1.37583306       1.11660614      -1.41279215
H        2.72533219      -1.65963044      -1.53681433
H        3.05581094      -0.41956875      -0.15658397
16
Frame=5 idx=009639 GeodesicLength=0.19310803505456717 rxn_smarts="[C:1]([C@@:2]1([H:11])[N:3]([H:12])[C@:4]1([C@@:5]1([H:14])[C:6]([H:15])([H:16])[O:7]1)[H:13])([H:8])([H:9])[H:10]>>[C:1]([C@@:2]1([H:11])[N:3]([H:12])[C@:4]1([C:5](=[O+:7][C-:6]([H:15])[H:16])[H:14])[H:13])([H:8])([H:9])[H:10]"
C       -1.97724537      -0.50604726      -0.01598719
C       -1.30096285       0.61934420       0.71683669
N       -0.21197905       0.38749699       1.65489454
C        0.08009025       1.09090570       0.39789581
C        0.92028043       0.49266181      -0.64454191
C        2.38815542      -0.89372918      -0.83047855
O        1.04670599      -0.83326231      -0.70441525
H       -2.49078060      -0.12922285      -0.90274199
H       -2.72234683      -0.97921154       0.62733356
H       -1.27298249      -1.27230095      -0.33712258
H       -1.98397650       1.39111701       1.06243013
H        0.10871385      -0.57320890       1.57210671
H        0.27650429       2.15037107       0.52954419
H        1.33234476       1.09496427      -1.44230846
H        2.73868067      -1.64557136      -1.52183886
H        3.06879801      -0.39430670      -0.16160686
16
Frame=6 idx=009639 GeodesicLength=0.23217018525588323 rxn_smarts="[C:1]([C@@:2]1([H:11])[N:3]([H:12])[C@:4]1([C@@:5]1([H:14])[C:6]([H:15])([H:16])[O:7]1)[H:13])([H:8])([H:9])[H:10]>>[C:1]([C@@:2]1([H:11])[N:3]([H:12])[C@:4]1([C:5](=[O+:7][C-:6]([H:15])[H:16])[H:14])[H:13])([H:8])([H:9])[H:10]"
C       -1.98109578      -0.49768246      -0.01952510
C       -1.29808926       0.62087013       0.71746825
N       -0.21056976       0.37747524       1.65504760
C        0.08665254       1.08149909       0.40086967
C        0.92152823       0.47696125      -0.64430938
C        2.39275318      -0.87763560      -0.82189647
O        1.05105343      -0.85028193      -0.68707545
H       -2.49422459      -0.11449418      -0.90381720
H       -2.72697955      -0.97136671       0.62248669
H       -1.28116555      -1.26594658      -0.34557647
H       -1.97610187       1.39564668       1.06608621
H        0.10226345      -0.58556775       1.56970923
H        0.29232862       2.13903350       0.53515006
H        1.28894276       1.07188510      -1.46951523
H        2.75121775      -1.63162883      -1.50715191
H        3.08148639      -0.36876695      -0.16795049
16
Frame=7 idx=009639 GeodesicLength=0.2715141062900115 rxn_smarts="[C:1]([C@@:2]1([H:11])[N:3]([H:12])[C@:4]1([C@@:5]1([H:14])[C:6]([H:15])([H:16])[O:7]1)[H:13])([H:8])([H:9])[H:10]>>[C:1]([C@@:2]1([H:11])[N:3]([H:12])[C@:4]1([C:5](=[O+:7][C-:6]([H:15])[H:16])[H:14])[H:13])([H:8])([H:9])[H:10]"
C       -1.98462747      -0.48933068      -0.02321735
C       -1.29519047       0.62243393       0.71802893
N       -0.20932221       0.36767845       1.65525445
C        0.09315167       1.07220261       0.40386620
C        0.92272044       0.46145555      -0.64408855
C        2.39687617      -0.86176591      -0.81340572
O        1.05582693      -0.86688980      -0.66933398
H       -2.49729786      -0.09981001      -0.90504471
H       -2.73130514      -0.96367605       0.61737394
H       -1.28882902      -1.25937516      -0.35418256
H       -1.96830043       1.40014178       1.06952923
H        0.09571579      -0.59761962       1.56746127
H        0.30803097       2.12774546       0.54068194
H        1.24557400       1.04736920      -1.49457993
H        2.76309787      -1.61782693      -1.49261094
H        3.09387877      -0.34273284      -0.17573224
16
Frame=8 idx=009639 GeodesicLength=0.3112297103968513 rxn_smarts="[C:1]([C@@:2]1([H:11])[N:3]([H:12])[C@:4]1([C@@:5]1([H:14])[C:6]([H:15])([H:16])[O:7]1)[H:13])([H:8])([H:9])[H:10]>>[C:1]([C@@:2]1([H:11])[N:3]([H:12])[C@:4]1([C:5](=[O+:7][C-:6]([H:15])[H:16])[H:14])[H:13])([H:8])([H:9])[H:10]"
C       -1.98785681      -0.48093120      -0.02708217
C       -1.29227170       0.62403085       0.71851911
N       -0.20825732       0.35805668       1.65551171
C        0.09959110       1.06294812       0.40692429
C        0.92383345       0.44605294      -0.64380460
C        2.40061036      -0.84607304      -0.80498513
O        1.06110042      -0.88311861      -0.65102911
H       -2.50000429      -0.08507201      -0.90641690
H       -2.73535221      -0.95605579       0.61193333
H       -1.29599008      -1.25251595      -0.36295831
H       -1.96056085       1.40460337       1.07274849
H        0.08901717      -0.60940956       1.56536701
H        0.32364256       2.11640337       0.54618181
H        1.20208719       1.02126892      -1.51761218
H        2.77440156      -1.60409599      -1.47819441
H        3.10600945      -0.31609212      -0.18510294
16
Frame=9 idx=009639 GeodesicLength=0.35121637171272424 rxn_smarts="[C:1]([C@@:2]1([H:11])[N:3]([H:12])[C@:4]1([C@@:5]1([H:14])[C:6]([H:15])([H:16])[O:7]1)[H:13])([H:8])([H:9])[H:10]>>[C:1]([C@@:2]1([H:11])[N:3]([H:12])[C@:4]1([C:5](=[O+:7][C-:6]([H:15])[H:16])[H:14])[H:13])([H:8])([H:9])[H:10]"
C       -1.99079446      -0.47257959      -0.03106679
C       -1.28933289       0.62565234       0.71894756
N       -0.20730516       0.34866025       1.65578511
C        0.10594523       1.05382753       0.40995702
C        0.92486909       0.43085773      -0.64357806
C        2.40387057      -0.83061918      -0.79662046
O        1.06670907      -0.89888564      -0.63249598
H       -2.50239292      -0.07043072      -0.90790122
H       -2.73910502      -0.94861745       0.60628917
H       -1.30266312      -1.24548950      -0.37185291
H       -1.95290126       1.40900763       1.07580552
H        0.08228667      -0.62089229       1.56335505
H        0.33908804       2.10514595       0.55156876
H        1.15901659       0.99400528      -1.53852365
H        2.78510329      -1.59047754      -1.46393064
H        3.11760630      -0.28916481      -0.19573849
16
Frame=10 idx=009639 GeodesicLength=0.391429806384333 rxn_smarts="[C:1]([C@@:2]1([H:11])[N:3]([H:12])[C@:4]1([C@@:5]1([H:14])[C:6]([H:15])([H:16])[O:7]1)[H:13])([H:8])([H:9])[H:10]>>[C:1]([C@@:2]1([H:11])[N:3]([H:12])[C@:4]1([C:5](=[O+:7][C-:6]([H:15])[H:16])[H:14])[H:13])([H:8])([H:9])[H:10]"
C       -1.99342432      -0.46431529      -0.03512439
C       -1.28636577       0.62727847       0.71929896
N       -0.20639675       0.33950641       1.65600240
C        0.11218011       1.04487031       0.41289485
C        0.92580877       0.41591910      -0.64345114
C        2.40659265      -0.81543742      -0.78828002
O        1.07252279      -0.91412038      -0.61393981
H       -2.50447612      -0.05597293      -0.90945019
H       -2.74251554      -0.94138031       0.60051240
H       -1.30883679      -1.23834691      -0.38078505
H       -1.94533108       1.41330377       1.07870401
H        0.07564507      -0.63202713       1.56133705
H        0.35427611       2.09400179       0.55676953
H        1.11669104       0.96588670      -1.55727083
H        2.79515947      -1.57693546      -1.44984100
H        3.12847036      -0.26223074      -0.20737677
16
Frame=11 idx=009639 GeodesicLength=0.43191795874662087 rxn_smarts="[C:1]([C@@:2]1([H:11])[N:3]([H:12])[C@:4]1([C@@:5]1([H:14])[C:6]([H:15])([H:16])[O:7]1)[H:13])([H:8])([H:9])[H:10]>>[C:1]([C@@:2]1([H:11])[N:3]([H:12])[C@:4]1([C:5](=[O+:7][C-:6]([H:15])[H:16])[H:14])[H:13])([H:8])([H:9])[H:10]"
C       -1.99578284      -0.45610029      -0.03928646
C       -1.28339017       0.62891827       0.71959281
N       -0.20558902       0.33055869       1.65622096
C        0.11831356       1.03603759       0.41580656
C        0.92666671       0.40116264      -0.64334668
C        2.40888949      -0.80048410      -0.77997375
O        1.07863215      -0.92888256      -0.59519709
H       -2.50625555      -0.04162009      -0.91109995
H       -2.74565854      -0.93429902       0.59453897
H       -1.31454955      -1.23106199      -0.38978779
H       -1.93785393       1.41753012       1.08145053
H        0.06899231      -0.64287090       1.55937583
H        0.36927365       2.08292593       0.56187261
H        1.07494537       0.93681161      -1.57403429
H        2.80465497      -1.56348334      -1.43590284
H        3.13871140      -0.23514256      -0.22022941
16
Frame=12 idx=009639 GeodesicLength=0.4727528813121302 rxn_smarts="[C:1]([C@@:2]1([H:11])[N:3]([H:12])[C@:4]1([C@@:5]1([H:14])[C:6]([H:15])([H:16])[O:7]1)[H:13])([H:8])([H:9])[H:10]>>[C:1]([C@@:2]1([H:11])[N:3]([H:12])[C@:4]1([C:5](=[O+:7][C-:6]([H:15])[H:16])[H:14])[H:13])([H:8])([H:9])[H:10]"
C       -1.99789819      -0.44789352      -0.04358011
C       -1.28041199       0.63057261       0.71984111
N       -0.20492334       0.32176436       1.65647474
C        0.12436507       1.02727711       0.41874403
C        0.92743686       0.38650991      -0.64320998
C        2.41084377      -0.78571973      -0.77167344
O        1.08511215      -0.94322011      -0.57613074
H       -2.50771769      -0.02729131      -0.91288078
H       -2.74859944      -0.92731325       0.58830952
H       -1.31983981      -1.22360458      -0.39888322
H       -1.93044859       1.42171251       1.08404645
H        0.06224089      -0.65348891       1.55750393
H        0.38415393       2.07185070       0.56694925
H        1.03363059       0.90668779      -1.58892424
H        2.81367170      -1.55012647      -1.42204148
H        3.14838410      -0.20771712      -0.23454507
16
Frame=13 idx=009639 GeodesicLength=0.5138666119814137 rxn_smarts="[C:1]([C@@:2]1([H:11])[N:3]([H:12])[C@:4]1([C@@:5]1([H:14])[C:6]([H:15])([H:16])[O:7]1)[H:13])([H:8])([H:9])[H:10]>>[C:1]([C@@:2]1([H:11])[N:3]([H:12])[C@:4]1([C:5](=[O+:7][C-:6]([H:15])[H:16])[H:14])[H:13])([H:8])([H:9])[H:10]"
C       -1.99976419      -0.43974306      -0.04796947
C       -1.27743444       0.63223534       0.72003633
N       -0.20435667       0.31316033       1.65673028
C        0.13030856       1.01863780       0.42165822
C        0.92813323       0.37201860      -0.64306971
C        2.41241868      -0.77117603      -0.76337032
O        1.09186162      -0.95707904      -0.55690836
H       -2.50888524      -0.01308007      -0.91476661
H       -2.75130618      -0.92046915       0.58189207
H       -1.32469947      -1.21603601      -0.40801707
H       -1.92314274       1.42582371       1.08650275
H        0.05548162      -0.66383501       1.55567814
H        0.39883975       2.06084104       0.57194810
H        0.99303525       0.87578635      -1.60193755
H        2.82216673      -1.53684215      -1.40832744
H        3.15734349      -0.18024264      -0.25007935
16
Frame=14 idx=009639 GeodesicLength=0.5551986764302568 rxn_smarts="[C:1]([C@@:2]1([H:11])[N:3]([H:12])[C@:4]1([C@@:5]1([H:14])[C:6]([H:15])([H:16])[O:7]1)[H:13])([H:8])([H:9])[H:10]>>[C:1]([C@@:2]1([H:11])[N:3]([H:12])[C@:4]1([C:5](=[O+:7][C-:6]([H:15])[H:16])[H:14])[H:13])([H:8])([H:9])[H:10]"
C       -2.00136809      -0.43169213      -0.05242537
C       -1.27446169       0.63390114       0.72016785
N       -0.20386801       0.30478094       1.65696222
C        0.13612127       1.01016036       0.42451926
C        0.92877480       0.35773761      -0.64292570
C        2.41358518      -0.75688318      -0.75506152
O        1.09879183      -0.97041689      -0.53764588
H       -2.50975684       0.00092554      -0.91674129
H       -2.75374923      -0.91380322       0.57533537
H       -1.32911565      -1.20841392      -0.41713152
H       -1.91596329       1.42984088       1.08881207
H        0.04877798      -0.67386592       1.55387078
H        0.41326042       2.04995189       0.57683651
H        0.95339645       0.84436989      -1.61308477
H        2.83007632      -1.52362404      -1.39483284
H        3.16549855      -0.15296896      -0.26665517
16
Frame=15 idx=009639 GeodesicLength=0.5966936155190661 rxn_smarts="[C:1]([C@@:2]1([H:11])[N:3]([H:12])[C@:4]1([C@@:5]1([H:14])[C:6]([H:15])([H:16])[O:7]1)[H:13])([H:8])([H:9])[H:10]>>[C:1]([C@@:2]1([H:11])[N:3]([H:12])[C@:4]1([C:5](=[O+:7][C-:6]([H:15])[H:16])[H:14])[H:13])([H:8])([H:9])[H:10]"
C       -2.00270740      -0.42377554      -0.05692833
C       -1.27150300       0.63556519       0.72022974
N       -0.20344841       0.29665231       1.65716334
C        0.14178915       1.00187798       0.42731616
C        0.92938814       0.34371079      -0.64276546
C        2.41433894      -0.74285583      -0.74676306
O        1.10583680      -0.98319937      -0.51841769
H       -2.51033609       0.01465480      -0.91880190
H       -2.75591907      -0.90734678       0.56867164
H       -1.33308441      -1.20078472      -0.42618201
H       -1.90894138       1.43374413       1.09096741
H        0.04217318      -0.68354871       1.55207479
H        0.42736484       2.03922920       0.58160471
H        0.91487695       0.81267367      -1.62241495
H        2.83735010      -1.51049803      -1.38160239
H        3.17282165      -0.12609911      -0.28415200
16
Frame=16 idx=009639 GeodesicLength=0.6382997024456076 rxn_smarts="[C:1]([C@@:2]1([H:11])[N:3]([H:12])[C@:4]1([C@@:5]1([H:14])[C:6]([H:15])([H:16])[O:7]1)[H:13])([H:8])([H:9])[H:10]>>[C:1]([C@@:2]1([H:11])[N:3]([H:12])[C@:4]1([C:5](=[O+:7][C-:6]([H:15])[H:16])[H:14])[H:13])([H:8])([H:9])[H:10]"
C       -2.00378262      -0.41602343      -0.06145912
C       -1.26856192       0.63722406       0.72021971
N       -0.20307812       0.28879176       1.65732274
C        0.14730059       0.99382241       0.43003305
C        0.92998898       0.32997872      -0.64259372
C        2.41467637      -0.72910241      -0.73848482
O        1.11293055      -0.99540598      -0.49931026
H       -2.51064343       0.02805416      -0.92093455
H       -2.75779761      -0.90113589       0.56193865
H       -1.33660970      -1.19318768      -0.43514520
H       -1.90209613       1.43751779       1.09297823
H        0.03571512      -0.69286510       1.55027395
H        0.44111104       2.02871986       0.58624277
H        0.87760345       0.78092029      -1.63001704
H        2.84395975      -1.49749598      -1.36865137
H        3.17928367      -0.09981257      -0.30241302
