17
Frame=0 idx=011424 GeodesicLength=0.0 rxn_smarts="[C:1]1([H:8])([H:9])[C:2]([H:10])([H:11])[C:3]1([C@@:4]1([H:13])[C:5]([H:14])([H:15])[C:6]([H:16])([H:17])[O:7]1)[H:12]>>[C:1]1([H:8])([H:9])[C:2]([H:10])([H:11])[C:3]1([C:4](=[O:7])[H:13])[H:12].[C:5](=[C:6]([H:16])[H:17])([H:14])[H:15]"
C       -1.86136386      -0.06880616       1.22443972
C       -1.79087973       0.58998301      -0.10880419
C       -0.93003886      -0.60789663       0.16200897
C        0.52281669      -0.41074442       0.41449319
C        1.39958546      -0.20593451      -1.31017407
C        2.22230182       0.49451099      -0.43078878
O        0.91025053       0.63645326       1.08749388
H       -1.39070457       0.44316463       2.05216652
H       -2.72602556      -0.67082186       1.46932494
H       -2.61604831       0.46480782      -0.79731319
H       -1.27896000       1.54311353      -0.15312941
H       -1.20097428      -1.54401541      -0.31191687
H        1.03732717      -1.36583075       0.60359202
H        1.65229158      -1.21723235      -1.59728231
H        0.76861601       0.35289276      -1.98929820
H        3.02179729      -0.00737146       0.10029197
H        2.26000863       1.57372753      -0.41510423
17
Frame=1 idx=011424 GeodesicLength=0.08047162812235585 rxn_smarts="[C:1]1([H:8])([H:9])[C:2]([H:10])([H:11])[C:3]1([C@@:4]1([H:13])[C:5]([H:14])([H:15])[C:6]([H:16])([H:17])[O:7]1)[H:12]>>[C:1]1([H:8])([H:9])[C:2]([H:10])([H:11])[C:3]1([C:4](=[O:7])[H:13])[H:12].[C:5](=[C:6]([H:16])[H:17])([H:14])[H:15]"
C       -1.86912296      -0.07270148       1.23353961
C       -1.80319399       0.59808424      -0.09404155
C       -0.94518500      -0.60540914       0.16185090
C        0.51044371      -0.41796440       0.40684579
C        1.42634768      -0.21632401      -1.31717186
C        2.22965938       0.50520685      -0.43431015
O        0.90714499       0.62763337       1.07832615
H       -1.39293788       0.43036590       2.06364649
H       -2.73511356      -0.67302923       1.47786196
H       -2.63341408       0.48232877      -0.77810055
H       -1.28812273       1.54968514      -0.13346427
H       -1.22305916      -1.53611075      -0.31871922
H        1.01734765      -1.37726419       0.59455728
H        1.70052093      -1.22592835      -1.59178505
H        0.80794352       0.32624457      -2.02100999
H        3.02643808       0.02008295       0.11656778
H        2.26430342       1.58509975      -0.44459331
17
Frame=2 idx=011424 GeodesicLength=0.16076459848893257 rxn_smarts="[C:1]1([H:8])([H:9])[C:2]([H:10])([H:11])[C:3]1([C@@:4]1([H:13])[C:5]([H:14])([H:15])[C:6]([H:16])([H:17])[O:7]1)[H:12]>>[C:1]1([H:8])([H:9])[C:2]([H:10])([H:11])[C:3]1([C:4](=[O:7])[H:13])[H:12].[C:5](=[C:6]([H:16])[H:17])([H:14])[H:15]"
C       -1.87698135      -0.07689385       1.24282575
C       -1.81590931       0.60650108      -0.07864045
C       -0.96086567      -0.60266385       0.16140847
C        0.49755450      -0.42517124       0.39838375
C        1.45409375      -0.22711809      -1.32389423
C        2.23686838       0.51637248      -0.43819202
O        0.90379116       0.61853737       1.06851750
H       -1.39494459       0.41676266       2.07528554
H       -2.74426565      -0.67556656       1.48660513
H       -2.65132872       0.50054447      -0.75792865
H       -1.29765300       1.55652698      -0.11281187
H       -1.24594005      -1.52759326      -0.32607616
H        0.99663626      -1.38875489       0.58454643
H        1.75000357      -1.23473190      -1.58450049
H        0.84951868       0.29812303      -2.05285583
H        3.03045440       0.04886123       0.13266718
H        2.26896764       1.59626436      -0.47534004
17
Frame=3 idx=011424 GeodesicLength=0.24087101619428672 rxn_smarts="[C:1]1([H:8])([H:9])[C:2]([H:10])([H:11])[C:3]1([C@@:4]1([H:13])[C:5]([H:14])([H:15])[C:6]([H:16])([H:17])[O:7]1)[H:12]>>[C:1]1([H:8])([H:9])[C:2]([H:10])([H:11])[C:3]1([C:4](=[O:7])[H:13])[H:12].[C:5](=[C:6]([H:16])[H:17])([H:14])[H:15]"
C       -1.88493275      -0.08140728       1.25229681
C       -1.82902038       0.61524787      -0.06255775
C       -0.97711012      -0.59964594       0.16066366
C        0.48411650      -0.43236376       0.38903928
C        1.48286647      -0.23833037      -1.33029560
C        2.24388275       0.52804420      -0.44248653
O        0.90018072       0.60913278       1.05803199
H       -1.39669430       0.40228746       2.08707188
H       -2.75348089      -0.67845448       1.49554982
H       -2.66979282       0.51950031      -0.73672615
H       -1.30752190       1.56363702      -0.09110997
H       -1.26967412      -1.51841376      -0.33402222
H        0.97515354      -1.40030715       0.57345644
H        1.80074939      -1.24361841      -1.57525399
H        0.89348098       0.26842370      -2.08474524
H        3.03377938       0.07907425       0.14852257
H        2.27401756       1.60719357      -0.50743500
17
Frame=4 idx=011424 GeodesicLength=0.32076857992907065 rxn_smarts="[C:1]1([H:8])([H:9])[C:2]([H:10])([H:11])[C:3]1([C@@:4]1([H:13])[C:5]([H:14])([H:15])[C:6]([H:16])([H:17])[O:7]1)[H:12]>>[C:1]1([H:8])([H:9])[C:2]([H:10])([H:11])[C:3]1([C:4](=[O:7])[H:13])[H:12].[C:5](=[C:6]([H:16])[H:17])([H:14])[H:15]"
C       -1.89296780      -0.08626539       1.26194865
C       -1.84251781       0.62433671      -0.04574560
C       -0.99394894      -0.59633860       0.15959866
C        0.47009417      -0.43954245       0.37873723
C        1.51270756      -0.24997293      -1.33631919
C        2.25064594       0.54025595      -0.44725206
O        0.89630430       0.59937605       1.04682876
H       -1.39815308       0.38686969       2.09898493
H       -2.76275571      -0.68170790       1.50469057
H       -2.68880159       0.53924239      -0.71441199
H       -1.31769361       1.57100431      -0.06829297
H       -1.29432273      -1.50851575      -0.34258683
H        0.95285820      -1.41192478       0.56116586
H        1.85277275      -1.25254281      -1.56385648
H        0.93998602       0.23704093      -2.11656410
H        3.03633071       0.11084105       0.16405720
H        2.27946161       1.61784353      -0.54098266
17
Frame=5 idx=011424 GeodesicLength=0.4004327083620569 rxn_smarts="[C:1]1([H:8])([H:9])[C:2]([H:10])([H:11])[C:3]1([C@@:4]1([H:13])[C:5]([H:14])([H:15])[C:6]([H:16])([H:17])[O:7]1)[H:12]>>[C:1]1([H:8])([H:9])[C:2]([H:10])([H:11])[C:3]1([C:4](=[O:7])[H:13])[H:12].[C:5](=[C:6]([H:16])[H:17])([H:14])[H:15]"
C       -1.90107316      -0.09149033       1.27177412
C       -1.85638299       0.63377562      -0.02816018
C       -1.01141220      -0.59272960       0.15819802
C        0.45545139      -0.44671184       0.36739834
C        1.54365554      -0.26204947      -1.34190215
C        2.25709514       0.55304678      -0.45255413
O        0.89215877       0.58921355       1.03487072
H       -1.39928110       0.37044210       2.11099645
H       -2.77208628      -0.68533592       1.51402110
H       -2.70834062       0.55981142      -0.69090693
H       -1.32811758       1.57861166      -0.04430260
H       -1.31995276      -1.49784723      -0.35179095
H        0.92970743      -1.42361991       0.54753494
H        1.90606341      -1.26144720      -1.55010486
H        0.98918321       0.20387053      -2.14817323
H        3.03801964       0.14428905       0.17917965
H        2.28531216       1.62817082      -0.57607831
17
Frame=6 idx=011424 GeodesicLength=0.47983303047482406 rxn_smarts="[C:1]1([H:8])([H:9])[C:2]([H:10])([H:11])[C:3]1([C@@:4]1([H:13])[C:5]([H:14])([H:15])[C:6]([H:16])([H:17])[O:7]1)[H:12]>>[C:1]1([H:8])([H:9])[C:2]([H:10])([H:11])[C:3]1([C:4](=[O:7])[H:13])[H:12].[C:5](=[C:6]([H:16])[H:17])([H:14])[H:15]"
C       -1.90923280      -0.09710329       1.28176556
C       -1.87059576       0.64356371      -0.00975739
C       -1.02953111      -0.58880808       0.15644873
C        0.44014799      -0.45387328       0.35493517
C        1.57574739      -0.27455252      -1.34697473
C        2.26316337       0.56644800      -0.45846606
O        0.88773721       0.57858984       1.02211065
H       -1.40003661       0.35294272       2.12306899
H       -2.78146440      -0.68934411       1.52354232
H       -2.72839222       0.58123436      -0.66612558
H       -1.33874119       1.58642896      -0.01908893
H       -1.34663311      -1.48635819      -0.36164104
H        0.90565732      -1.43539899       0.53240448
H        1.96059346      -1.27024763      -1.53378717
H        1.04123939       0.16883243      -2.17940262
H        3.03873720       0.17953587       0.19378868
H        2.29160384       1.63811021      -0.61282105
17
Frame=7 idx=011424 GeodesicLength=0.5589296921404115 rxn_smarts="[C:1]1([H:8])([H:9])[C:2]([H:10])([H:11])[C:3]1([C@@:4]1([H:13])[C:5]([H:14])([H:15])[C:6]([H:16])([H:17])[O:7]1)[H:12]>>[C:1]1([H:8])([H:9])[C:2]([H:10])([H:11])[C:3]1([C:4](=[O:7])[H:13])[H:12].[C:5](=[C:6]([H:16])[H:17])([H:14])[H:15]"
C       -1.91742515      -0.10312062       1.29191083
C       -1.88512067       0.65369398       0.00949973
C       -1.04833523      -0.58457161       0.15434352
C        0.42414432      -0.46103670       0.34125792
C        1.60900998      -0.28746345      -1.35145669
C        2.26877421       0.58049589      -0.46506743
O        0.88304345       0.56743050       1.00850923
H       -1.40037021       0.33431758       2.13515456
H       -2.79088327      -0.69372407       1.53325379
H       -2.74892215       0.60353154      -0.63998860
H       -1.34948725       1.59441574       0.00738441
H       -1.37443959      -1.47400769      -0.37212844
H        0.88066420      -1.44728086       0.51558853
H        2.01630632      -1.27883826      -1.51468176
H        1.09630605       0.13185198      -2.21004806
H        3.03836683       0.21670917       0.20776612
H        2.29836815       1.64759687      -0.65129766
17
Frame=8 idx=011424 GeodesicLength=0.6376929030424416 rxn_smarts="[C:1]1([H:8])([H:9])[C:2]([H:10])([H:11])[C:3]1([C@@:4]1([H:13])[C:5]([H:14])([H:15])[C:6]([H:16])([H:17])[O:7]1)[H:12]>>[C:1]1([H:8])([H:9])[C:2]([H:10])([H:11])[C:3]1([C:4](=[O:7])[H:13])[H:12].[C:5](=[C:6]([H:16])[H:17])([H:14])[H:15]"
C       -1.92562238      -0.10955791       1.30220280
C       -1.89992499       0.66414557       0.02964382
C       -1.06785227      -0.58002045       0.15187872
C        0.40739443      -0.46819963       0.32626773
C        1.64347032      -0.30074450      -1.35527314
C        2.27385272       0.59521105      -0.47244612
O        0.87806778       0.55567679       0.99401016
H       -1.40023021       0.31452572       2.14720110
H       -2.80032030      -0.69846952       1.54317462
H       -2.76989498       0.62669523      -0.61241601
H       -1.36028893       1.60251805       0.03513254
H       -1.40344058      -1.46076505      -0.38322310
H        0.85468456      -1.45927104       0.49688693
H        2.07309925      -1.28709367      -1.49256885
H        1.15455475       0.09290857      -2.23988336
H        3.03675642       0.25589994       0.22099649
H        2.30569441       1.65654086      -0.69158434
17
Frame=9 idx=011424 GeodesicLength=0.716096053104668 rxn_smarts="[C:1]1([H:8])([H:9])[C:2]([H:10])([H:11])[C:3]1([C@@:4]1([H:13])[C:5]([H:14])([H:15])[C:6]([H:16])([H:17])[O:7]1)[H:12]>>[C:1]1([H:8])([H:9])[C:2]([H:10])([H:11])[C:3]1([C:4](=[O:7])[H:13])[H:12].[C:5](=[C:6]([H:16])[H:17])([H:14])[H:15]"
C       -1.93379181      -0.11645004       1.31262577
C       -1.91496451       0.67492524       0.05073412
C       -1.08811773      -0.57513883       0.14903069
C        0.38984736      -0.47536424       0.30984816
C        1.67916850      -0.31439418      -1.35831534
C        2.27830276       0.61063494      -0.48071578
O        0.87282040       0.54324444       0.97855535
H       -1.39954582       0.29346954       2.15915549
H       -2.80975889      -0.70359478       1.55329631
H       -2.79127321       0.65077946      -0.58329105
H       -1.37104922       1.61070404       0.06422594
H       -1.43373178      -1.44655703      -0.39494690
H        0.82765319      -1.47138501       0.47606292
H        2.13090868      -1.29489414      -1.46714356
H        1.21617116       0.05187337      -2.26865002
H        3.03375262       0.29728739       0.23333454
H        2.31360831       1.66485985      -0.73380663
17
Frame=10 idx=011424 GeodesicLength=0.7941033283168308 rxn_smarts="[C:1]1([H:8])([H:9])[C:2]([H:10])([H:11])[C:3]1([C@@:4]1([H:13])[C:5]([H:14])([H:15])[C:6]([H:16])([H:17])[O:7]1)[H:12]>>[C:1]1([H:8])([H:9])[C:2]([H:10])([H:11])[C:3]1([C:4](=[O:7])[H:13])[H:12].[C:5](=[C:6]([H:16])[H:17])([H:14])[H:15]"
C       -1.94189521      -0.12383061       1.32316774
C       -1.93020592       0.68601661       0.07283285
C       -1.10916362      -0.56990619       0.14577995
C        0.37144393      -0.48250602       0.29186349
C        1.71615039      -0.32838557      -1.36047391
C        2.28203326       0.62677528      -0.49000545
O        0.86728527       0.53007354       0.96204858
H       -1.39825013       0.27106742       2.17094853
H       -2.81916021      -0.70911486       1.56363463
H       -2.81302406       0.67579455      -0.55247822
H       -1.38169938       1.61891368       0.09471586
H       -1.46539108      -1.43130927      -0.40729071
H        0.79951032      -1.48359875       0.45285137
H        2.18961727      -1.30208028      -1.43810054
H        1.28137957       0.00868767      -2.29604150
H        3.02914958       0.34099155       0.24462439
H        2.32222003       1.67241125      -0.77807706
17
Frame=11 idx=011424 GeodesicLength=0.8716837379575868 rxn_smarts="[C:1]1([H:8])([H:9])[C:2]([H:10])([H:11])[C:3]1([C@@:4]1([H:13])[C:5]([H:14])([H:15])[C:6]([H:16])([H:17])[O:7]1)[H:12]>>[C:1]1([H:8])([H:9])[C:2]([H:10])([H:11])[C:3]1([C:4](=[O:7])[H:13])[H:12].[C:5](=[C:6]([H:16])[H:17])([H:14])[H:15]"
C       -1.94987814      -0.13173714       1.33380650
C       -1.94559221       0.69740293       0.09599000
C       -1.13102516      -0.56431552       0.14210883
C        0.35212540      -0.48961112       0.27217701
C        1.75443671      -0.34268479      -1.36161366
C        2.28494882       0.64365483      -0.50045587
O        0.86148179       0.51608486       0.94440609
H       -1.39624188       0.24723375       2.18249781
H       -2.82848429      -0.71504544       1.57419492
H       -2.83510004       0.70175447      -0.51985468
H       -1.39212382       1.62709028       0.12663827
H       -1.49852654      -1.41496342      -0.42023947
H        0.77018629      -1.49591142       0.42694858
H        2.24904844      -1.30847152      -1.40510079
H        1.35036326      -0.03671925      -2.32170032
H        3.02274284       0.38716547       0.25469075
H        2.33163853       1.67907303      -0.82449398
17
Frame=12 idx=011424 GeodesicLength=0.9487804201513164 rxn_smarts="[C:1]1([H:8])([H:9])[C:2]([H:10])([H:11])[C:3]1([C@@:4]1([H:13])[C:5]([H:14])([H:15])[C:6]([H:16])([H:17])[O:7]1)[H:12]>>[C:1]1([H:8])([H:9])[C:2]([H:10])([H:11])[C:3]1([C:4](=[O:7])[H:13])[H:12].[C:5](=[C:6]([H:16])[H:17])([H:14])[H:15]"
C       -1.95769101      -0.14018472       1.34454324
C       -1.96109522       0.70900396       0.12025073
C       -1.15371608      -0.55835615       0.13802634
C        0.33181918      -0.49660260       0.25062553
C        1.79405789      -0.35719225      -1.36162923
C        2.28698311       0.66120654      -0.51221867
O        0.85533783       0.50126712       0.92546662
H       -1.39347438       0.22196162       2.19370203
H       -2.83765065      -0.72138061       1.58506155
H       -2.85745130       0.72854634      -0.48527494
H       -1.40229578       1.63510591       0.15995866
H       -1.53316204      -1.39748088      -0.43368342
H        0.73963988      -1.50821541       0.39802030
H        2.30891857      -1.31381585      -1.36790224
H        1.42337466      -0.08422447      -2.34521356
H        3.01422257       0.43577037       0.26335133
H        2.34218277       1.68459110      -0.87308425
17
Frame=13 idx=011424 GeodesicLength=1.0254175366609377 rxn_smarts="[C:1]1([H:8])([H:9])[C:2]([H:10])([H:11])[C:3]1([C@@:4]1([H:13])[C:5]([H:14])([H:15])[C:6]([H:16])([H:17])[O:7]1)[H:12]>>[C:1]1([H:8])([H:9])[C:2]([H:10])([H:11])[C:3]1([C:4](=[O:7])[H:13])[H:12].[C:5](=[C:6]([H:16])[H:17])([H:14])[H:15]"
C       -1.96523380      -0.14926533       1.35533293
C       -1.97662328       0.72082774       0.14567008
C       -1.17729702      -0.55202111       0.13348556
C        0.31044857      -0.50345164       0.22704949
C        1.83499703      -0.37189894      -1.36031088
C        2.28805244       0.67948874      -0.52548506
O        0.84894768       0.48555649       0.90512866
H       -1.38973859       0.19508192       2.20446040
H       -2.84659712      -0.72822361       1.59620276
H       -2.88003101       0.75623167      -0.44859961
H       -1.41201240       1.64295405       0.19474225
H       -1.56950370      -1.37879270      -0.44766408
H        0.70773683      -1.52052176       0.36569718
H        2.36893350      -1.31792132      -1.32601191
H        1.50054809      -0.13400433      -2.36611626
H        3.00338848       0.48707423       0.27038895
H        2.35398430       1.68888589      -0.92397047
17
Frame=14 idx=011424 GeodesicLength=1.1014435584341438 rxn_smarts="[C:1]1([H:8])([H:9])[C:2]([H:10])([H:11])[C:3]1([C@@:4]1([H:13])[C:5]([H:14])([H:15])[C:6]([H:16])([H:17])[O:7]1)[H:12]>>[C:1]1([H:8])([H:9])[C:2]([H:10])([H:11])[C:3]1([C:4](=[O:7])[H:13])[H:12].[C:5](=[C:6]([H:16])[H:17])([H:14])[H:15]"
C       -1.97247760      -0.15916396       1.36610087
C       -1.99213319       0.73289451       0.17265812
C       -1.20179182      -0.54502940       0.12835337
C        0.28787065      -0.50993777       0.20109772
C        1.87753570      -0.38694627      -1.35735302
C        2.28787294       0.69840391      -0.54069510
O        0.84211531       0.46887929       0.88300475
H       -1.38503365       0.16604630       2.21455699
H       -2.85523450      -0.73571976       1.60748600
H       -2.90273547       0.78503284      -0.40913666
H       -1.42125582       1.65044677       0.23155290
H       -1.60755153      -1.35826207      -0.46239927
H        0.67429492      -1.53245637       0.32943951
H        2.42915531      -1.32046801      -1.27850101
H        1.58268576      -0.18658512      -2.38373853
H        2.98959889       0.54150092       0.27528006
H        2.36708411       1.69136419      -0.97770670
17
Frame=15 idx=011424 GeodesicLength=1.177203926352257 rxn_smarts="[C:1]1([H:8])([H:9])[C:2]([H:10])([H:11])[C:3]1([C@@:4]1([H:13])[C:5]([H:14])([H:15])[C:6]([H:16])([H:17])[O:7]1)[H:12]>>[C:1]1([H:8])([H:9])[C:2]([H:10])([H:11])[C:3]1([C:4](=[O:7])[H:13])[H:12].[C:5](=[C:6]([H:16])[H:17])([H:14])[H:15]"
C       -1.97923615      -0.16988223       1.37693490
C       -2.00780863       0.74506007       0.20099611
C       -1.22726456      -0.53753602       0.12265319
C        0.26401911      -0.51583134       0.17256250
C        1.92149382      -0.40209592      -1.35274586
C        2.28684692       0.71782927      -0.55786128
O        0.83485686       0.45172434       0.85886852
H       -1.37903491       0.13525601       2.22399101
H       -2.86326165      -0.74408653       1.61926249
H       -2.92589510       0.81446509      -0.36705587
H       -1.43027660       1.65768949       0.26990425
H       -1.64744053      -1.33637622      -0.47762979
H        0.63938234      -1.54392281       0.28892450
H        2.48858421      -1.32139229      -1.22556712
H        1.66957596      -0.24140386      -2.39769760
H        2.97283158       0.59847162       0.27820279
H        2.38262730       1.69203132      -1.03374276
17
Frame=16 idx=011424 GeodesicLength=1.252652819583654 rxn_smarts="[C:1]1([H:8])([H:9])[C:2]([H:10])([H:11])[C:3]1([C@@:4]1([H:13])[C:5]([H:14])([H:15])[C:6]([H:16])([H:17])[O:7]1)[H:12]>>[C:1]1([H:8])([H:9])[C:2]([H:10])([H:11])[C:3]1([C:4](=[O:7])[H:13])[H:12].[C:5](=[C:6]([H:16])[H:17])([H:14])[H:15]"
C       -1.98539000      -0.18166612       1.38774764
C       -2.02364909       0.75729029       0.23103523
C       -1.25378111      -0.52930410       0.11625234
C        0.23871969      -0.52078061       0.14103415
C        1.96700664      -0.41743402      -1.34611673
C        2.28487415       0.73763262      -0.57746234
O        0.82701082       0.43427289       0.83221822
H       -1.37155078       0.10220323       2.23249622
H       -2.87047872      -0.75364211       1.63144340
H       -2.94951673       0.84458664      -0.32170086
H       -1.43909670       1.66455383       0.31024322
H       -1.68928148      -1.31264785      -0.49351058
H        0.60280322      -1.55443582       0.24357479
H        2.54682338      -1.32033272      -1.16628492
H        1.76186755      -0.29884945      -2.40710503
H        2.95249905       0.65827843       0.27858763
H        2.40114011       1.69027487      -1.09245237
