15
Frame=0 idx=011384 GeodesicLength=0.0 rxn_smarts="[C:1]([C@@:2]12[C:3]([H:11])([H:12])[C@@:4]3([H:13])[O:5][C@:6]1([H:14])[C@@:7]23[H:15])([H:8])([H:9])[H:10]>>[C:1]([C:2]1=[C:7]([H:15])[C@@:4]([O+:5]=[C-:6][H:14])([H:13])[C:3]1([H:11])[H:12])([H:8])([H:9])[H:10]"
C        1.97205954       0.21881793       0.50056408
C        0.52257413      -0.07209784       0.37695281
C       -0.69006353       0.68986487       0.84149938
C       -1.52727581      -0.36496149       0.07851827
O       -1.83040145       0.19696549      -1.20005302
C       -0.83445580      -0.35299145      -1.91074661
C       -0.19619527      -1.08053832      -0.21385189
H        2.26580817       0.30811586       1.55093401
H        2.56840975      -0.57379656       0.04674755
H        2.23854091       1.16295584       0.01575196
H       -0.83561536       1.72020434       0.50020614
H       -0.86283337       0.64220676       1.91968107
H       -2.39632073      -0.82125311       0.54938630
H       -0.45208048       0.43075870      -2.60750891
H        0.05784932      -2.10425099      -0.44808121
15
Frame=1 idx=011384 GeodesicLength=0.039209237386063696 rxn_smarts="[C:1]([C@@:2]12[C:3]([H:11])([H:12])[C@@:4]3([H:13])[O:5][C@:6]1([H:14])[C@@:7]23[H:15])([H:8])([H:9])[H:10]>>[C:1]([C:2]1=[C:7]([H:15])[C@@:4]([O+:5]=[C-:6][H:14])([H:13])[C:3]1([H:11])[H:12])([H:8])([H:9])[H:10]"
C        1.97041020       0.22052498       0.49492463
C        0.52042623      -0.06141784       0.35580091
C       -0.69141643       0.69094057       0.84034995
C       -1.52899875      -0.36474683       0.07994551
O       -1.82950472       0.19019592      -1.20384129
C       -0.81616104      -0.34548457      -1.90213754
C       -0.20132852      -1.08805733      -0.20558150
H        2.25826641       0.29227618       1.54818218
H        2.56716281      -0.56685465       0.03256923
H        2.24235173       1.17151246       0.02704645
H       -0.84372641       1.72178620       0.50419085
H       -0.85244602       0.63866101       1.92000614
H       -2.40021003      -0.81772643       0.54950439
H       -0.44815144       0.43211043      -2.61111245
H        0.05332597      -2.11372011      -0.42984745
15
Frame=2 idx=011384 GeodesicLength=0.07825428546881633 rxn_smarts="[C:1]([C@@:2]12[C:3]([H:11])([H:12])[C@@:4]3([H:13])[O:5][C@:6]1([H:14])[C@@:7]23[H:15])([H:8])([H:9])[H:10]>>[C:1]([C:2]1=[C:7]([H:15])[C@@:4]([O+:5]=[C-:6][H:14])([H:13])[C:3]1([H:11])[H:12])([H:8])([H:9])[H:10]"
C        1.96861548       0.22209227       0.48979656
C        0.51827795      -0.05112506       0.33516807
C       -0.69242912       0.69203462       0.83926723
C       -1.53041320      -0.36441115       0.08133447
O       -1.82854960       0.18376735      -1.20746854
C       -0.79865430      -0.33775971      -1.89361108
C       -0.20593948      -1.09476898      -0.19790882
H        2.25047287       0.27624857       1.54563952
H        2.56607814      -0.55976685       0.01902941
H        2.24590461       1.17969626       0.03909906
H       -0.85121935       1.72336725       0.50827018
H       -0.84200626       0.63526115       1.92021722
H       -2.40359038      -0.81438942       0.54961767
H       -0.44576881       0.43209254      -2.61632596
H        0.04922145      -2.12233883      -0.41212498
15
Frame=3 idx=011384 GeodesicLength=0.11720638901129016 rxn_smarts="[C:1]([C@@:2]12[C:3]([H:11])([H:12])[C@@:4]3([H:13])[O:5][C@:6]1([H:14])[C@@:7]23[H:15])([H:8])([H:9])[H:10]>>[C:1]([C:2]1=[C:7]([H:15])[C@@:4]([O+:5]=[C-:6][H:14])([H:13])[C:3]1([H:11])[H:12])([H:8])([H:9])[H:10]"
C        1.96665769       0.22357188       0.48503926
C        0.51610140      -0.04131515       0.31528348
C       -0.69317222       0.69308059       0.83838440
C       -1.53157722      -0.36392083       0.08266008
O       -1.82737498       0.17780346      -1.21097823
C       -0.78167478      -0.32972642      -1.88511905
C       -0.21013040      -1.10080374      -0.19071531
H        2.24261090       0.26019993       1.54310829
H        2.56510006      -0.55246774       0.00591690
H        2.24898687       1.18755012       0.05163028
H       -0.85809102       1.72491524       0.51262785
H       -0.83165254       0.63187126       1.92044768
H       -2.40663215      -0.81114005       0.54957262
H       -0.44455802       0.43062310      -2.62305683
H        0.04540640      -2.13024165      -0.39480143
15
Frame=4 idx=011384 GeodesicLength=0.15609640415337228 rxn_smarts="[C:1]([C@@:2]12[C:3]([H:11])([H:12])[C@@:4]3([H:13])[O:5][C@:6]1([H:14])[C@@:7]23[H:15])([H:8])([H:9])[H:10]>>[C:1]([C:2]1=[C:7]([H:15])[C@@:4]([O+:5]=[C-:6][H:14])([H:13])[C:3]1([H:11])[H:12])([H:8])([H:9])[H:10]"
C        1.96453117       0.22499567       0.48054550
C        0.51387614      -0.03206291       0.29631829
C       -0.69370683       0.69400508       0.83780620
C       -1.53253606      -0.36327629       0.08390735
O       -1.82590090       0.17239443      -1.21438329
C       -0.76504822      -0.32124251      -1.87662523
C       -0.21398788      -1.10626338      -0.18395403
H        2.23479216       0.24455894       1.54045264
H        2.56417924      -0.54509253      -0.00665052
H        2.25149875       1.19496618       0.06413652
H       -0.86434432       1.72638130       0.51740622
H       -0.82150209       0.62835190       1.92080525
H       -2.40944106      -0.80795721       0.54926231
H       -0.44420693       0.42774763      -2.63110455
H        0.04179684      -2.13750630      -0.37792266
15
Frame=5 idx=011384 GeodesicLength=0.19494027570624786 rxn_smarts="[C:1]([C@@:2]12[C:3]([H:11])([H:12])[C@@:4]3([H:13])[O:5][C@:6]1([H:14])[C@@:7]23[H:15])([H:8])([H:9])[H:10]>>[C:1]([C:2]1=[C:7]([H:15])[C@@:4]([O+:5]=[C-:6][H:14])([H:13])[C:3]1([H:11])[H:12])([H:8])([H:9])[H:10]"
C        1.96225800       0.22638411       0.47625808
C        0.51160050      -0.02339444       0.27836172
C       -0.69408121       0.69475111       0.83760075
C       -1.53332384      -0.36248576       0.08506129
O       -1.82410093       0.16761138      -1.21768512
C       -0.74867235      -0.31217415      -1.86810393
C       -0.21757242      -1.11122229      -0.17762229
H        2.22708895       0.22972107       1.53762834
H        2.56330118      -0.53782092      -0.01846918
H        2.25343711       1.20184674       0.07618777
H       -0.87000163       1.72772899       0.52270770
H       -0.81162371       0.62458263       1.92136145
H       -2.41208680      -0.80484164       0.54861030
H       -0.44456637       0.42350062      -2.64032171
H        0.03834353      -2.14418745      -0.36157516
15
Frame=6 idx=011384 GeodesicLength=0.23377578595274515 rxn_smarts="[C:1]([C@@:2]12[C:3]([H:11])([H:12])[C@@:4]3([H:13])[O:5][C@:6]1([H:14])[C@@:7]23[H:15])([H:8])([H:9])[H:10]>>[C:1]([C:2]1=[C:7]([H:15])[C@@:4]([O+:5]=[C-:6][H:14])([H:13])[C:3]1([H:11])[H:12])([H:8])([H:9])[H:10]"
C        1.95987831       0.22776280       0.47218139
C        0.50929058      -0.01522888       0.26138796
C       -0.69432024       0.69534260       0.83778036
C       -1.53396027      -0.36152439       0.08611779
O       -1.82197530       0.16348641      -1.22089556
C       -0.73251146      -0.30249571      -1.85955412
C       -0.22092100      -1.11570528      -0.17171423
H        2.21956502       0.21547080       1.53467602
H        2.56246251      -0.53054166      -0.02974854
H        2.25485201       1.20833972       0.08798109
H       -0.87510989       1.72898861       0.52856021
H       -0.80202091       0.62054989       1.92214155
H       -2.41460450      -0.80175261       0.54760653
H       -0.44564216       0.41762252      -2.65077842
H        0.03501729      -2.15031480      -0.34574204
15
Frame=7 idx=011384 GeodesicLength=0.27263277282499604 rxn_smarts="[C:1]([C@@:2]12[C:3]([H:11])([H:12])[C@@:4]3([H:13])[O:5][C@:6]1([H:14])[C@@:7]23[H:15])([H:8])([H:9])[H:10]>>[C:1]([C:2]1=[C:7]([H:15])[C@@:4]([O+:5]=[C-:6][H:14])([H:13])[C:3]1([H:11])[H:12])([H:8])([H:9])[H:10]"
C        1.95742399       0.22915679       0.46832224
C        0.50696137      -0.00748571       0.24536411
C       -0.69444035       0.69579087       0.83836151
C       -1.53445691      -0.36036125       0.08706509
O       -1.81951866       0.16007867      -1.22402384
C       -0.71653941      -0.29216052      -1.85097508
C       -0.22406318      -1.11971961      -0.16623467
H        2.21226201       0.20163916       1.53162612
H        2.56165945      -0.52315499      -0.04064054
H        2.25578520       1.21455744       0.09968226
H       -0.87970768       1.73017805       0.53501401
H       -0.79268000       0.61621302       1.92316946
H       -2.41701405      -0.79865162       0.54622450
H       -0.44746219       0.40981630      -2.66253991
H        0.03179040      -2.15589660      -0.33041525
15
Frame=8 idx=011384 GeodesicLength=0.31154283555955575 rxn_smarts="[C:1]([C@@:2]12[C:3]([H:11])([H:12])[C@@:4]3([H:13])[O:5][C@:6]1([H:14])[C@@:7]23[H:15])([H:8])([H:9])[H:10]>>[C:1]([C:2]1=[C:7]([H:15])[C@@:4]([O+:5]=[C-:6][H:14])([H:13])[C:3]1([H:11])[H:12])([H:8])([H:9])[H:10]"
C        1.95493484       0.23058377       0.46472884
C        0.50464073      -0.00005548       0.23022809
C       -0.69444375       0.69613026       0.83934844
C       -1.53481031      -0.35895885       0.08789698
O       -1.81674371       0.15744787      -1.22707020
C       -0.70074721      -0.28109779      -1.84237951
C       -0.22700460      -1.12324612      -0.16121308
H        2.20519639       0.18794780       1.52854313
H        2.56090991      -0.51552226      -0.05130371
H        2.25631009       1.22062579       0.11160279
H       -0.88383069       1.73133778       0.54210458
H       -0.78357020       0.61156416       1.92445800
H       -2.41930810      -0.79550567       0.54446192
H       -0.45020234       0.39966327      -2.67578342
H        0.02866896      -2.16091452      -0.31562286
15
Frame=9 idx=011384 GeodesicLength=0.3505076320811502 rxn_smarts="[C:1]([C@@:2]12[C:3]([H:11])([H:12])[C@@:4]3([H:13])[O:5][C@:6]1([H:14])[C@@:7]23[H:15])([H:8])([H:9])[H:10]>>[C:1]([C:2]1=[C:7]([H:15])[C@@:4]([O+:5]=[C-:6][H:14])([H:13])[C:3]1([H:11])[H:12])([H:8])([H:9])[H:10]"
C        1.95243185       0.23205621       0.46139704
C        0.50233775       0.00712013       0.21593946
C       -0.69434611       0.69634938       0.84075416
C       -1.53503345      -0.35731297       0.08860475
O       -1.81368956       0.15564577      -1.23002310
C       -0.68513812      -0.26918372      -1.83377673
C       -0.22976793      -1.12628695      -0.15670513
H        2.19835645       0.17453174       1.52544480
H        2.56021651      -0.50772302      -0.06162118
H        2.25649744       1.22650777       0.12361616
H       -0.88751459       1.73246138       0.54987923
H       -0.77468977       0.60654488       1.92602257
H       -2.42148936      -0.79232924       0.54230881
H       -0.45382011       0.38697457      -2.69034317
H        0.02564900      -2.16535593      -0.30149768
15
Frame=10 idx=011384 GeodesicLength=0.3895514999103803 rxn_smarts="[C:1]([C@@:2]12[C:3]([H:11])([H:12])[C@@:4]3([H:13])[O:5][C@:6]1([H:14])[C@@:7]23[H:15])([H:8])([H:9])[H:10]>>[C:1]([C:2]1=[C:7]([H:15])[C@@:4]([O+:5]=[C-:6][H:14])([H:13])[C:3]1([H:11])[H:12])([H:8])([H:9])[H:10]"
C        1.94994338       0.23359795       0.45836392
C        0.50007404       0.01414344       0.20244465
C       -0.69414625       0.69646660       0.84259839
C       -1.53512299      -0.35537835       0.08917195
O       -1.81036344       0.15476977      -1.23288130
C       -0.66970111      -0.25629369      -1.82518074
C       -0.23235803      -1.12880582      -0.15276187
H        2.19174752       0.16120171       1.52237195
H        2.55959249      -0.49964440      -0.07169389
H        2.25640862       1.23229390       0.13595539
H       -0.89078686       1.73357531       0.55841276
H       -0.76600635       0.60110814       1.92788356
H       -2.42355368      -0.78908752       0.53973685
H       -0.45845545       0.37123638      -2.70629809
H        0.02272809      -2.16918342      -0.28812354
15
Frame=11 idx=011384 GeodesicLength=0.4286994946220075 rxn_smarts="[C:1]([C@@:2]12[C:3]([H:11])([H:12])[C@@:4]3([H:13])[O:5][C@:6]1([H:14])[C@@:7]23[H:15])([H:8])([H:9])[H:10]>>[C:1]([C:2]1=[C:7]([H:15])[C@@:4]([O+:5]=[C-:6][H:14])([H:13])[C:3]1([H:11])[H:12])([H:8])([H:9])[H:10]"
C        1.94749055       0.23523649       0.45565243
C        0.49786543       0.02111759       0.18968788
C       -0.69384518       0.69649810       0.84490653
C       -1.53507984      -0.35309955       0.08957718
O       -1.80677177       0.15494489      -1.23564344
C       -0.65442699      -0.24227771      -1.81661102
C       -0.23478269      -1.13075680      -0.14944701
H        2.18537149       0.14776621       1.51933714
H        2.55904871      -0.49115461      -0.08164423
H        2.25608564       1.23807353       0.14885399
H       -0.89367284       1.73470763       0.56780060
H       -0.75749319       0.59519454       1.93006370
H       -2.42550227      -0.78573922       0.53670793
H       -0.46419065       0.35183935      -2.72362994
H        0.01990359      -2.17235041      -0.27561174
15
Frame=12 idx=011384 GeodesicLength=0.4679289581130483 rxn_smarts="[C:1]([C@@:2]12[C:3]([H:11])([H:12])[C@@:4]3([H:13])[O:5][C@:6]1([H:14])[C@@:7]23[H:15])([H:8])([H:9])[H:10]>>[C:1]([C:2]1=[C:7]([H:15])[C@@:4]([O+:5]=[C-:6][H:14])([H:13])[C:3]1([H:11])[H:12])([H:8])([H:9])[H:10]"
C        1.94508598       0.23699219       0.45326918
C        0.49572125       0.02811775       0.17762205
C       -0.69344497       0.69643117       0.84769999
C       -1.53490719      -0.35045502       0.08979526
O       -1.80295212       0.15627633      -1.23830088
C       -0.63932560      -0.22692632      -1.80809582
C       -0.23705388      -1.13210501      -0.14686660
H        2.17919748       0.13436542       1.51636340
H        2.55858759      -0.48232499      -0.09133332
H        2.25560102       1.24380873       0.16220379
H       -0.89619146       1.73585275       0.57812671
H       -0.74913758       0.58872118       1.93257935
H       -2.42732511      -0.78229601       0.53318563
H       -0.47102776       0.32835312      -2.74205476
H        0.01717235      -2.17481128      -0.26419395
15
Frame=13 idx=011384 GeodesicLength=0.5072162098876863 rxn_smarts="[C:1]([C@@:2]12[C:3]([H:11])([H:12])[C@@:4]3([H:13])[O:5][C@:6]1([H:14])[C@@:7]23[H:15])([H:8])([H:9])[H:10]>>[C:1]([C:2]1=[C:7]([H:15])[C@@:4]([O+:5]=[C-:6][H:14])([H:13])[C:3]1([H:11])[H:12])([H:8])([H:9])[H:10]"
C        1.94274027       0.23889190       0.45122207
C        0.49364865       0.03523422       0.16621358
C       -0.69295461       0.69624661       0.85102635
C       -1.53460939      -0.34738558       0.08979647
O       -1.79892212       0.15895305      -1.24082617
C       -0.62439401      -0.20997568      -1.79963784
C       -0.23917772      -1.13278068      -0.14513091
H        2.17320786       0.12105719       1.51345833
H        2.55821583      -0.47316406      -0.10069622
H        2.25500468       1.24949513       0.17597833
H       -0.89837361       1.73700136       0.58954198
H       -0.74093449       0.58156008       1.93545713
H       -2.42902095      -0.77873187       0.52910359
H       -0.47897561       0.30008003      -2.76136957
H        0.01454521      -2.17648170      -0.25413711
15
Frame=14 idx=011384 GeodesicLength=0.5464576246104424 rxn_smarts="[C:1]([C@@:2]12[C:3]([H:11])([H:12])[C@@:4]3([H:13])[O:5][C@:6]1([H:14])[C@@:7]23[H:15])([H:8])([H:9])[H:10]>>[C:1]([C:2]1=[C:7]([H:15])[C@@:4]([O+:5]=[C-:6][H:14])([H:13])[C:3]1([H:11])[H:12])([H:8])([H:9])[H:10]"
C        1.94042518       0.24094849       0.44934588
C        0.49159872       0.04250146       0.15530665
C       -0.69242041       0.69596403       0.85477065
C       -1.53426021      -0.34393305       0.08957347
O       -1.79481055       0.16285042      -1.24327182
C       -0.60975247      -0.19154492      -1.79132167
C       -0.24122553      -1.13284448      -0.14425290
H        2.16739683       0.10779007       1.51045718
H        2.55788917      -0.46363062      -0.10995915
H        2.25426937       1.25516750       0.19005542
H       -0.90030350       1.73815143       0.60187722
H       -0.73287032       0.57378536       1.93859986
H       -2.43065489      -0.77505770       0.52452324
H       -0.48724003       0.26729487      -2.78027755
H        0.01195864      -2.17744286      -0.24542647
15
Frame=15 idx=011384 GeodesicLength=0.5855932113788315 rxn_smarts="[C:1]([C@@:2]12[C:3]([H:11])([H:12])[C@@:4]3([H:13])[O:5][C@:6]1([H:14])[C@@:7]23[H:15])([H:8])([H:9])[H:10]>>[C:1]([C:2]1=[C:7]([H:15])[C@@:4]([O+:5]=[C-:6][H:14])([H:13])[C:3]1([H:11])[H:12])([H:8])([H:9])[H:10]"
C        1.93803004       0.24316501       0.44737446
C        0.48946711       0.04990028       0.14472338
C       -0.69188461       0.69559854       0.85875867
C       -1.53393276      -0.34017475       0.08913977
O       -1.79071925       0.16769098      -1.24566190
C       -0.59557004      -0.17206104      -1.78316066
C       -0.24331479      -1.13241744      -0.14413124
H        2.16173178       0.09447595       1.50703783
H        2.55744663      -0.45362712      -0.11952085
H        2.25324167       1.26084980       0.20427338
H       -0.90205811       1.73926417       0.61488011
H       -0.72489129       0.56553764       1.94182165
H       -2.43227690      -0.77126123       0.51953256
H       -0.49456371       0.23088775      -2.79724445
H        0.00929423      -2.17782853      -0.23782272
15
Frame=16 idx=011384 GeodesicLength=0.6245040384516868 rxn_smarts="[C:1]([C@@:2]12[C:3]([H:11])([H:12])[C@@:4]3([H:13])[O:5][C@:6]1([H:14])[C@@:7]23[H:15])([H:8])([H:9])[H:10]>>[C:1]([C:2]1=[C:7]([H:15])[C@@:4]([O+:5]=[C-:6][H:14])([H:13])[C:3]1([H:11])[H:12])([H:8])([H:9])[H:10]"
C        1.93553056       0.24547270       0.44513445
C        0.48720589       0.05735997       0.13425783
C       -0.69139758       0.69518547       0.86273234
C       -1.53370411      -0.33629576       0.08857307
O       -1.78687998       0.17297788      -1.24803292
C       -0.58206197      -0.15205563      -1.77523113
C       -0.24548747      -1.13168984      -0.14463507
H        2.15615669       0.08126518       1.50307503
H        2.55687650      -0.44338065      -0.12934898
H        2.25195025       1.26640768       0.21823982
H       -0.90374900       1.74030692       0.62803466
H       -0.71699022       0.55711848       1.94490861
H       -2.43391940      -0.76747137       0.51439603
H       -0.50007802       0.19264846      -2.81108201
H        0.00654785      -2.17784948      -0.23102173
