18
Frame=0 idx=011575 GeodesicLength=0.0 rxn_smarts="[C:1]([C:2]([C@@:3]([C:4]([H:14])([H:15])[H:16])([N:5]([C:6](=[O:7])[H:18])[H:17])[H:13])([H:11])[H:12])([H:8])([H:9])[H:10]>>[C:1]([C:2](=[C:3]([N:5]([C+:6]([O-:7])[H:18])[H:17])[H:13])[H:12])([H:8])([H:9])[H:10].[C:4]([H:11])([H:14])([H:15])[H:16]"
C       -2.20737084      -0.22182070      -1.22555905
C       -1.31015869      -0.37838286      -0.02929931
C        0.10544807      -0.23917320      -0.16751144
C        0.61575326       1.65080287       0.70667128
N        0.96931385      -1.05357568       0.55389030
C        2.32397198      -1.08335882       0.35698145
O        2.90855252      -0.41539324      -0.45348748
H       -1.89346008       0.61685669      -1.85428834
H       -2.23471040      -1.11075324      -1.86803910
H       -3.23310187      -0.01167992      -0.91868376
H       -0.57976242       0.77376543       0.42417817
H       -1.65304775      -0.95113740       0.82535327
H        0.50760000       0.08638013      -1.11826358
H        0.02161899       2.51843851       0.40158584
H        0.64153096       1.55030954       1.79449538
H        1.62178956       1.72952128       0.29881839
H        0.56742717      -1.65578668       1.25201021
H        2.82860569      -1.80501271       1.02114776
18
Frame=1 idx=011575 GeodesicLength=0.09419285163666842 rxn_smarts="[C:1]([C:2]([C@@:3]([C:4]([H:14])([H:15])[H:16])([N:5]([C:6](=[O:7])[H:18])[H:17])[H:13])([H:11])[H:12])([H:8])([H:9])[H:10]>>[C:1]([C:2](=[C:3]([N:5]([C+:6]([O-:7])[H:18])[H:17])[H:13])[H:12])([H:8])([H:9])[H:10].[C:4]([H:11])([H:14])([H:15])[H:16]"
C       -2.20027534      -0.23235626      -1.22622098
C       -1.30938081      -0.37151103      -0.02315558
C        0.10576645      -0.22715845      -0.15804737
C        0.61219981       1.66591136       0.71483424
N        0.96738373      -1.06030037       0.54838515
C        2.31966512      -1.09965922       0.34230166
O        2.90619663      -0.42476513      -0.46158791
H       -1.88658219       0.60074887      -1.86214652
H       -2.21795328      -1.12926880      -1.85737143
H       -3.22870154      -0.02422578      -0.92684333
H       -0.60366602       0.80413082       0.44871124
H       -1.65273643      -0.95410680       0.82525658
H        0.50800119       0.09948816      -1.10877671
H        0.03485304       2.53481964       0.38319273
H        0.63137897       1.58824229       1.80458726
H        1.62550056       1.73431721       0.32254197
H        0.56597740      -1.67143586       1.23899490
H        2.82237270      -1.83287064       0.99534410
18
Frame=2 idx=011575 GeodesicLength=0.1880169487831312 rxn_smarts="[C:1]([C:2]([C@@:3]([C:4]([H:14])([H:15])[H:16])([N:5]([C:6](=[O:7])[H:18])[H:17])[H:13])([H:11])[H:12])([H:8])([H:9])[H:10]>>[C:1]([C:2](=[C:3]([N:5]([C+:6]([O-:7])[H:18])[H:17])[H:13])[H:12])([H:8])([H:9])[H:10].[C:4]([H:11])([H:14])([H:15])[H:16]"
C       -2.19281681      -0.24269608      -1.22658515
C       -1.30835361      -0.36433880      -0.01690070
C        0.10642377      -0.21583073      -0.14879677
C        0.60802394       1.68059423       0.72305330
N        0.96550565      -1.06774663       0.54216764
C        2.31540897      -1.11584851       0.32737064
O        2.90400776      -0.43375493      -0.46950314
H       -1.87893098       0.58444788      -1.86989401
H       -2.20126629      -1.14757857      -1.84597805
H       -3.22379312      -0.03613615      -0.93470826
H       -0.62831062       0.83498403       0.47289897
H       -1.65216750      -0.95629171       0.82547123
H        0.50872292       0.11218019      -1.09942678
H        0.04817236       2.54997471       0.36451568
H        0.62027673       1.62670849       1.81427849
H        1.62847266       1.73874196       0.34703970
H        0.56457218      -1.68680248       1.22599784
H        2.81605198      -1.86060690       0.96899936
18
Frame=3 idx=011575 GeodesicLength=0.28152774791336116 rxn_smarts="[C:1]([C:2]([C@@:3]([C:4]([H:14])([H:15])[H:16])([N:5]([C:6](=[O:7])[H:18])[H:17])[H:13])([H:11])[H:12])([H:8])([H:9])[H:10]>>[C:1]([C:2](=[C:3]([N:5]([C+:6]([O-:7])[H:18])[H:17])[H:13])[H:12])([H:8])([H:9])[H:10].[C:4]([H:11])([H:14])([H:15])[H:16]"
C       -2.18504104      -0.25280878      -1.22663056
C       -1.30705573      -0.35683532      -0.01056254
C        0.10745367      -0.20523999      -0.13986603
C        0.60321351       1.69477404       0.73133958
N        0.96367153      -1.07599008       0.53509780
C        2.31122968      -1.13197132       0.31214877
O        2.90204549      -0.44239552      -0.47721814
H       -1.87056457       0.56797078      -1.87751722
H       -2.18475481      -1.16565173      -1.83383111
H       -3.21840964      -0.04735997      -0.94221993
H       -0.65375524       0.86640328       0.49664544
H       -1.65132090      -0.95765915       0.82599222
H        0.50979911       0.12445521      -1.09029563
H        0.06161456       2.56382897       0.34566639
H        0.60825199       1.66558432       1.82351181
H        1.63066562       1.74273348       0.37232972
H        0.56323774      -1.70188988       1.21300249
H        2.80971901      -1.88794834       0.94240693
18
Frame=4 idx=011575 GeodesicLength=0.37480138624724657 rxn_smarts="[C:1]([C:2]([C@@:3]([C:4]([H:14])([H:15])[H:16])([N:5]([C:6](=[O:7])[H:18])[H:17])[H:13])([H:11])[H:12])([H:8])([H:9])[H:10]>>[C:1]([C:2](=[C:3]([N:5]([C+:6]([O-:7])[H:18])[H:17])[H:13])[H:12])([H:8])([H:9])[H:10].[C:4]([H:11])([H:14])([H:15])[H:16]"
C       -2.17694613      -0.26271990      -1.22633707
C       -1.30544415      -0.34894964      -0.00414599
C        0.10891035      -0.19538887      -0.13130125
C        0.59770161       1.70846827       0.73970281
N        0.96189072      -1.08501254       0.52715438
C        2.30718332      -1.14796921       0.29675943
O        2.90040283      -0.45063294      -0.48456387
H       -1.86149655       0.55124392      -1.88502971
H       -2.16844607      -1.18353867      -1.82085094
H       -3.21255067      -0.05791330      -0.94935855
H       -0.68009509       0.89854443       0.51982738
H       -1.65016249      -0.95812571       0.82685680
H        0.51130553       0.13633144      -1.08140343
H        0.07517698       2.57637960       0.32668193
H        0.59523587       1.70487737       1.83223137
H        1.63199586       1.74632287       0.39846795
H        0.56200818      -1.71662931       1.20009288
H        2.80332991      -1.91528782       0.91521589
18
Frame=5 idx=011575 GeodesicLength=0.46786038866534213 rxn_smarts="[C:1]([C:2]([C@@:3]([C:4]([H:14])([H:15])[H:16])([N:5]([C:6](=[O:7])[H:18])[H:17])[H:13])([H:11])[H:12])([H:8])([H:9])[H:10]>>[C:1]([C:2](=[C:3]([N:5]([C+:6]([O-:7])[H:18])[H:17])[H:13])[H:12])([H:8])([H:9])[H:10].[C:4]([H:11])([H:14])([H:15])[H:16]"
C       -2.16859490      -0.27237656      -1.22567640
C       -1.30349416      -0.34064288       0.00231828
C        0.11082751      -0.18634825      -0.12323638
C        0.59148148       1.72156862       0.74814895
N        0.96015486      -1.09491978       0.51816034
C        2.30329269      -1.16391947       0.28109862
O        2.89914042      -0.45853108      -0.49157736
H       -1.85180340       0.53430296      -1.89241608
H       -2.15248184      -1.20118268      -1.80701287
H       -3.20625490      -0.06770805      -0.95604467
H       -0.70737957       0.93147522       0.54234475
H       -1.64866666      -0.95766251       0.82805201
H        0.51326905       0.14779631      -1.07286077
H        0.08888796       2.58754042       0.30773340
H        0.58129914       1.74441220       1.84037814
H        1.63241490       1.74941978       0.42544138
H        0.56090991      -1.73108873       1.18717238
H        2.79699753      -1.94213554       0.88797628
18
Frame=6 idx=011575 GeodesicLength=0.5608122882136468 rxn_smarts="[C:1]([C:2]([C@@:3]([C:4]([H:14])([H:15])[H:16])([N:5]([C:6](=[O:7])[H:18])[H:17])[H:13])([H:11])[H:12])([H:8])([H:9])[H:10]>>[C:1]([C:2](=[C:3]([N:5]([C+:6]([O-:7])[H:18])[H:17])[H:13])[H:12])([H:8])([H:9])[H:10].[C:4]([H:11])([H:14])([H:15])[H:16]"
C       -2.15997485      -0.28181088      -1.22462128
C       -1.30114947      -0.33186174       0.00882791
C        0.11326438      -0.17811218      -0.11570037
C        0.58446927       1.73411298       0.75667727
N        0.95847921      -1.10567679       0.50812135
C        2.29961925      -1.17976139       0.26532663
O        2.89835193      -0.46604317      -0.49805875
H       -1.84149616       0.51705887      -1.89968056
H       -2.13686787      -1.21863007      -1.79222866
H       -3.19951297      -0.07677704      -0.96226075
H       -0.73574300       0.96538919       0.56406956
H       -1.64678000      -0.95619177       0.82961390
H        0.51577527       0.15887449      -1.06466799
H        0.10274848       2.59733732       0.28886138
H        0.56634939       1.78423275       1.84788073
H        1.63182214       1.75206031       0.45330310
H        0.55997592      -1.74521656       1.17432334
H        2.79066908      -1.96898432       0.86021320
18
Frame=7 idx=011575 GeodesicLength=0.6537108110993164 rxn_smarts="[C:1]([C:2]([C@@:3]([C:4]([H:14])([H:15])[H:16])([N:5]([C:6](=[O:7])[H:18])[H:17])[H:13])([H:11])[H:12])([H:8])([H:9])[H:10]>>[C:1]([C:2](=[C:3]([N:5]([C+:6]([O-:7])[H:18])[H:17])[H:13])[H:12])([H:8])([H:9])[H:10].[C:4]([H:11])([H:14])([H:15])[H:16]"
C       -2.15112285      -0.29099012      -1.22313243
C       -1.29836112      -0.32256556       0.01536321
C        0.11626799      -0.17073102      -0.10879197
C        0.57661921       1.74604660       0.76527556
N        0.95686956      -1.11733811       0.49692593
C        2.29620413      -1.19552919       0.24944457
O        2.89811097      -0.47320780      -0.50394992
H       -1.83062846       0.49951995      -1.90679909
H       -2.12170608      -1.23584653      -1.77644920
H       -3.19234708      -0.08505659      -0.96792419
H       -0.76527541       1.00040146       0.58490146
H       -1.64444795      -0.95368039       0.83154116
H        0.51887792       0.16955972      -1.05689194
H        0.11676547       2.60574202       0.27018264
H        0.55039948       1.82424888       1.85465757
H        1.63013339       1.75419552       0.48204641
H        0.55922618      -1.75910456       1.16144082
H        2.78441465      -1.99566429       0.83215943
18
Frame=8 idx=011575 GeodesicLength=0.7465804687230699 rxn_smarts="[C:1]([C:2]([C@@:3]([C:4]([H:14])([H:15])[H:16])([N:5]([C:6](=[O:7])[H:18])[H:17])[H:13])([H:11])[H:12])([H:8])([H:9])[H:10]>>[C:1]([C:2](=[C:3]([N:5]([C+:6]([O-:7])[H:18])[H:17])[H:13])[H:12])([H:8])([H:9])[H:10].[C:4]([H:11])([H:14])([H:15])[H:16]"
C       -2.14203693      -0.29991347      -1.22116909
C       -1.29506805      -0.31270386       0.02192537
C        0.11990125      -0.16421980      -0.10254511
C        0.56784965       1.75739094       0.77392207
N        0.95534675      -1.12989203       0.48457221
C        2.29311429      -1.21119559       0.23358723
O        2.89851302      -0.48001381      -0.50907040
H       -1.81921896       0.48163174      -1.91375185
H       -2.10703436      -1.25283454      -1.75958813
H       -3.18475321      -0.09253626      -0.97298772
H       -0.79608075       1.03666698       0.60470670
H       -1.64161838      -0.95004979       0.83387543
H        0.52266211       0.17984856      -1.04954759
H        0.13089926       2.61277264       0.25178012
H        0.53339988       1.86449281       1.86061892
H        1.62723109       1.75585088       0.51166570
H        0.55866952      -1.77284924       1.14844021
H        2.77822380      -2.02244616       0.80356593
18
Frame=9 idx=011575 GeodesicLength=0.8397229756642537 rxn_smarts="[C:1]([C:2]([C@@:3]([C:4]([H:14])([H:15])[H:16])([N:5]([C:6](=[O:7])[H:18])[H:17])[H:13])([H:11])[H:12])([H:8])([H:9])[H:10]>>[C:1]([C:2](=[C:3]([N:5]([C+:6]([O-:7])[H:18])[H:17])[H:13])[H:12])([H:8])([H:9])[H:10].[C:4]([H:11])([H:14])([H:15])[H:16]"
C       -2.13270839      -0.30857439      -1.21862531
C       -1.29116198      -0.30212168       0.02855393
C        0.12418161      -0.15858967      -0.09708377
C        0.55813493       1.76807121       0.78260806
N        0.95391315      -1.14339109       0.47083617
C        2.29028098      -1.22699341       0.21748144
O        2.89950018      -0.48662530      -0.51350916
H       -1.80737330       0.46334341      -1.92052243
H       -2.09282116      -1.26960182      -1.74148121
H       -3.17669683      -0.09924741      -0.97730016
H       -0.82835980       1.07444610       0.62346646
H       -1.63807712      -0.94521143       0.83664830
H        0.52714776       0.18986384      -1.04268088
H        0.14532731       2.61852754       0.23377597
H        0.51522883       1.90501723       1.86570292
H        1.62308552       1.75672684       0.54224223
H        0.55818826      -1.78693796       1.13462097
H        2.77221005      -2.04870201       0.77526645
18
Frame=10 idx=011575 GeodesicLength=0.9327833658977931 rxn_smarts="[C:1]([C:2]([C@@:3]([C:4]([H:14])([H:15])[H:16])([N:5]([C:6](=[O:7])[H:18])[H:17])[H:13])([H:11])[H:12])([H:8])([H:9])[H:10]>>[C:1]([C:2](=[C:3]([N:5]([C+:6]([O-:7])[H:18])[H:17])[H:13])[H:12])([H:8])([H:9])[H:10].[C:4]([H:11])([H:14])([H:15])[H:16]"
C       -2.12316150      -0.31693182      -1.21547134
C       -1.28659838      -0.29086323       0.03521953
C        0.12921643      -0.15387549      -0.09239042
C        0.54732111       1.77818063       0.79128835
N        0.95261493      -1.15778627       0.45585968
C        2.28789228      -1.24268873       0.20161139
O        2.90131326      -0.49289422      -0.51681883
H       -1.79504705       0.44463846      -1.92704408
H       -2.07923314      -1.28609479      -1.72207665
H       -3.16820319      -0.10504373      -0.98081368
H       -0.86204800       1.11375049       0.64090850
H       -1.63386273      -0.93911310       0.83990657
H        0.53248609       0.19947145      -1.03629521
H        0.15975163       2.62291958       0.21618548
H        0.49597666       1.94574517       1.86976928
H        1.61745507       1.75715352       0.57362537
H        0.55780964      -1.80135812       1.12011222
H        2.76631689      -2.07520981       0.74642385
18
Frame=11 idx=011575 GeodesicLength=1.025729202870774 rxn_smarts="[C:1]([C:2]([C@@:3]([C:4]([H:14])([H:15])[H:16])([N:5]([C:6](=[O:7])[H:18])[H:17])[H:13])([H:11])[H:12])([H:8])([H:9])[H:10]>>[C:1]([C:2](=[C:3]([N:5]([C+:6]([O-:7])[H:18])[H:17])[H:13])[H:12])([H:8])([H:9])[H:10].[C:4]([H:11])([H:14])([H:15])[H:16]"
C       -2.11343917      -0.32492113      -1.21163296
C       -1.28130978      -0.27889710       0.04191916
C        0.13504668      -0.15011010      -0.08855259
C        0.53535297       1.78768441       0.79993496
N        0.95146374      -1.17311794       0.43951367
C        2.28599028      -1.25835060       0.18594340
O        2.90402152      -0.49890171      -0.51895655
H       -1.78231640       0.42555253      -1.93325446
H       -2.06638479      -1.30224128      -1.70130521
H       -3.15929219      -0.10982264      -0.98338862
H       -0.89716845       1.15464907       0.65694628
H       -1.62887977      -0.93174127       0.84366269
H        0.53872200       0.20867494      -1.03045053
H        0.17412378       2.62594476       0.19908221
H        0.47571637       1.98654348       1.87273703
H        1.61023705       1.75709074       0.60573908
H        0.55745278      -1.81644402       1.10445785
H        2.76066337      -2.10159214       0.71760458
18
Frame=12 idx=011575 GeodesicLength=1.1185377078332406 rxn_smarts="[C:1]([C:2]([C@@:3]([C:4]([H:14])([H:15])[H:16])([N:5]([C:6](=[O:7])[H:18])[H:17])[H:13])([H:11])[H:12])([H:8])([H:9])[H:10]>>[C:1]([C:2](=[C:3]([N:5]([C+:6]([O-:7])[H:18])[H:17])[H:13])[H:12])([H:8])([H:9])[H:10].[C:4]([H:11])([H:14])([H:15])[H:16]"
C       -2.10349857      -0.33255307      -1.20703356
C       -1.27520144      -0.26619256       0.04868733
C        0.14174536      -0.14726584      -0.08551832
C        0.52210072       1.79670404       0.80848878
N        0.95051180      -1.18929424       0.42192467
C        2.28466464      -1.27391541       0.17078602
O        2.90773362      -0.50463436      -0.51958168
H       -1.76915962       0.40602134      -1.93908553
H       -2.05425026      -1.31803576      -1.67904632
H       -3.14991759      -0.11357927      -0.98495785
H       -0.93377138       1.19726804       0.67144365
H       -1.62303676      -0.92303450       0.84799124
H        0.54597134       0.21746745      -1.02507795
H        0.18827725       2.62768642       0.18246484
H        0.45440148       2.02753443       1.87448702
H        1.60126143       1.75668402       0.63848335
H        0.55701012      -1.83246567       1.08733179
H        2.75515786      -2.12839506       0.68821252
18
Frame=13 idx=011575 GeodesicLength=1.2111791903736826 rxn_smarts="[C:1]([C:2]([C@@:3]([C:4]([H:14])([H:15])[H:16])([N:5]([C:6](=[O:7])[H:18])[H:17])[H:13])([H:11])[H:12])([H:8])([H:9])[H:10]>>[C:1]([C:2](=[C:3]([N:5]([C+:6]([O-:7])[H:18])[H:17])[H:13])[H:12])([H:8])([H:9])[H:10].[C:4]([H:11])([H:14])([H:15])[H:16]"
C       -2.09342527      -0.33969360      -1.20159181
C       -1.26820990      -0.25277175       0.05551427
C        0.14933729      -0.14540608      -0.08339502
C        0.50755460       1.80516523       0.81688208
N        0.94977371      -1.20639908       0.40287599
C        2.28392916      -1.28952687       0.15597662
O        2.91247865      -0.51026230      -0.51878813
H       -1.75572043       0.38621545      -1.94440656
H       -2.04299695      -1.33329008      -1.65531869
H       -3.14013447      -0.11615513      -0.98532663
H       -0.97179152       1.24155347       0.68441640
H       -1.61622662      -0.91308397       0.85285921
H        0.55423790       0.22582808      -1.02026804
H        0.20208931       2.62811869       0.16644820
H        0.43225642       2.06850161       1.87493593
H        1.59045303       1.75587235       0.67162184
H        0.55631991      -1.84993248       1.06799265
H        2.75007519      -2.15473354       0.65957169
18
Frame=14 idx=011575 GeodesicLength=1.3036763427881057 rxn_smarts="[C:1]([C:2]([C@@:3]([C:4]([H:14])([H:15])[H:16])([N:5]([C:6](=[O:7])[H:18])[H:17])[H:13])([H:11])[H:12])([H:8])([H:9])[H:10]>>[C:1]([C:2](=[C:3]([N:5]([C+:6]([O-:7])[H:18])[H:17])[H:13])[H:12])([H:8])([H:9])[H:10].[C:4]([H:11])([H:14])([H:15])[H:16]"
C       -2.08313870      -0.34635028      -1.19523918
C       -1.26024659      -0.23864147       0.06246325
C        0.15789541      -0.14447106      -0.08204372
C        0.49156672       1.81326299       0.82501912
N        0.94931333      -1.22429533       0.38258215
C        2.28389178      -1.30509478       0.14196685
O        2.91835471      -0.51578816      -0.51615150
H       -1.74194287       0.36611389      -1.94911401
H       -2.03250995      -1.34797976      -1.63005762
H       -3.12987483      -0.11758286      -0.98445491
H       -1.01126647       1.28756490       0.69581753
H       -1.60836120      -0.90189979       0.85833576
H        0.56364553       0.23374534      -1.01587838
H        0.21528665       2.62736074       0.15096795
H        0.40925299       2.10962152       1.87393392
H        1.57763747       1.75490664       0.70495216
H        0.55523365      -1.86904800       1.04617646
H        2.74526237      -2.18142451       0.63072417
18
Frame=15 idx=011575 GeodesicLength=1.3960331067555114 rxn_smarts="[C:1]([C:2]([C@@:3]([C:4]([H:14])([H:15])[H:16])([N:5]([C:6](=[O:7])[H:18])[H:17])[H:13])([H:11])[H:12])([H:8])([H:9])[H:10]>>[C:1]([C:2](=[C:3]([N:5]([C+:6]([O-:7])[H:18])[H:17])[H:13])[H:12])([H:8])([H:9])[H:10].[C:4]([H:11])([H:14])([H:15])[H:16]"
C       -2.07271918      -0.35236803      -1.18792519
C       -1.25126431      -0.22390533       0.06952532
C        0.16742210      -0.14450720      -0.08151175
C        0.47415168       1.82095422       0.83280028
N        0.94913577      -1.24304980       0.36084938
C        2.28456390      -1.32077272       0.12862446
O        2.92534650      -0.52142940      -0.51180781
H       -1.72797849       0.34599584      -1.95303664
H       -2.02290450      -1.36185223      -1.60340644
H       -3.11919990      -0.11772471      -0.98217118
H       -1.05208794       1.33512278       0.70580976
H       -1.59934919      -0.88970556       0.86433873
H        0.57417222       0.24119286      -1.01194967
H        0.22763997       2.62541279       0.13611773
H        0.38568622       2.15069735       1.87138345
H        1.56278229       1.75378617       0.73810039
H        0.55357882      -1.89019297       1.02124624
H        2.74102406      -2.20765406       0.60301292
18
Frame=16 idx=011575 GeodesicLength=1.4883561215133934 rxn_smarts="[C:1]([C:2]([C@@:3]([C:4]([H:14])([H:15])[H:16])([N:5]([C:6](=[O:7])[H:18])[H:17])[H:13])([H:11])[H:12])([H:8])([H:9])[H:10]>>[C:1]([C:2](=[C:3]([N:5]([C+:6]([O-:7])[H:18])[H:17])[H:13])[H:12])([H:8])([H:9])[H:10].[C:4]([H:11])([H:14])([H:15])[H:16]"
C       -2.06197609      -0.35780769      -1.17960395
C       -1.24116113      -0.20861703       0.07680860
C        0.17799890      -0.14539676      -0.08150146
C        0.45511784       1.82857024       0.84008428
N        0.94934500      -1.26241382       0.33813763
C        2.28608273      -1.33637475       0.11672226
O        2.93358037      -0.52715537      -0.50509604
H       -1.71364430       0.32583526      -1.95606399
H       -2.01386619      -1.37493926      -1.57534875
H       -3.10795490      -0.11672018      -0.97852026
H       -1.09431750       1.38422509       0.71446576
H       -1.58911829      -0.87656609       0.87095806
H        0.58598744       0.24814943      -1.00819449
H        0.23869714       2.62248644       0.12173074
H        0.36145400       2.19212498       1.86708382
H        1.54570157       1.75297587       0.77077330
H        0.55122216      -1.91334629       0.99326623
H        2.73685125      -2.23503007       0.57429825
