15
Frame=0 idx=010971 GeodesicLength=0.0 rxn_smarts="[C:1]([C:2]1=[C:3]([H:11])[C:4]([H:12])([H:13])[C@@:5]2([H:14])[O:6][C@@:7]12[H:15])([H:8])([H:9])[H:10]>>[C:1]([C@@:3]1([H:11])[C:2][C@@:7]2([H:15])[C@@:5]([H:14])([C:4]1([H:12])[H:13])[O:6]2)([H:8])([H:9])[H:10]"
C        1.60136947      -0.40503640      -0.50762896
C        0.86551540       0.86286618       0.47833644
C        0.44664322      -0.40451658       0.86790435
C       -0.99006027      -0.77851721       0.52765403
C       -1.45641289       0.44491874      -0.22099319
O       -1.42663903       1.60453212       0.59292618
C       -0.32802984       1.39559955      -0.28334025
H        1.65188328       0.30243288      -1.33376445
H        1.12554988      -1.30062673      -0.92746629
H        2.59393149      -0.62328202      -0.13516308
H        1.01302730      -1.01131972       1.56884588
H       -1.06820787      -1.69716705      -0.05804736
H       -1.55410872      -0.92542060       1.45189830
H       -2.25615297       0.39897860      -0.95198139
H       -0.21830845       2.13655824      -1.06918019
15
Frame=1 idx=010971 GeodesicLength=0.06890021038445487 rxn_smarts="[C:1]([C:2]1=[C:3]([H:11])[C:4]([H:12])([H:13])[C@@:5]2([H:14])[O:6][C@@:7]12[H:15])([H:8])([H:9])[H:10]>>[C:1]([C@@:3]1([H:11])[C:2][C@@:7]2([H:15])[C@@:5]([H:14])([C:4]1([H:12])[H:13])[O:6]2)([H:8])([H:9])[H:10]"
C        1.61759870      -0.41597997      -0.51020136
C        0.85951117       0.85727638       0.46128906
C        0.44279499      -0.40910257       0.85694228
C       -0.99567283      -0.77694526       0.52140912
C       -1.46613431       0.45471874      -0.21129971
O       -1.42665573       1.60780267       0.60959224
C       -0.33570172       1.40329662      -0.27955954
H        1.65292102       0.26803102      -1.35696533
H        1.17622319      -1.33773087      -0.90965184
H        2.61642902      -0.59705975      -0.13267031
H        0.99910494      -0.99718216       1.58122543
H       -1.07906778      -1.68699374      -0.07689115
H       -1.55748649      -0.93644820       1.44495303
H       -2.27143086       0.41714004      -0.93681491
H       -0.23243330       2.14917704      -1.06135703
15
Frame=2 idx=010971 GeodesicLength=0.13753366117874083 rxn_smarts="[C:1]([C:2]1=[C:3]([H:11])[C:4]([H:12])([H:13])[C@@:5]2([H:14])[O:6][C@@:7]12[H:15])([H:8])([H:9])[H:10]>>[C:1]([C@@:3]1([H:11])[C:2][C@@:7]2([H:15])[C@@:5]([H:14])([C:4]1([H:12])[H:13])[O:6]2)([H:8])([H:9])[H:10]"
C        1.63411577      -0.42737234      -0.51266448
C        0.85338784       0.85134989       0.44329595
C        0.43885474      -0.41388990       0.84550913
C       -1.00141058      -0.77541427       0.51459059
C       -1.47598480       0.46477832      -0.20123821
O       -1.42622304       1.61091138       0.62702111
C       -0.34349675       1.41120962      -0.27552965
H        1.65356925       0.23095682      -1.38041522
H        1.22903047      -1.37479689      -0.88892857
H        2.63855429      -0.56944003      -0.13138090
H        0.98442857      -0.98209987       1.59322990
H       -1.08990642      -1.67628901      -0.09679444
H       -1.56095811      -0.94806198       1.43717917
H       -2.28711483       0.43596484      -0.92084024
H       -0.24684640       2.16219341      -1.05303414
15
Frame=3 idx=010971 GeodesicLength=0.205876695566599 rxn_smarts="[C:1]([C:2]1=[C:3]([H:11])[C:4]([H:12])([H:13])[C@@:5]2([H:14])[O:6][C@@:7]12[H:15])([H:8])([H:9])[H:10]>>[C:1]([C@@:3]1([H:11])[C:2][C@@:7]2([H:15])[C@@:5]([H:14])([C:4]1([H:12])[H:13])[O:6]2)([H:8])([H:9])[H:10]"
C        1.65093091      -0.43922315      -0.51499778
C        0.84711082       0.84505829       0.42429517
C        0.43482805      -0.41887998       0.83358269
C       -1.00727807      -0.77391517       0.50718785
C       -1.48595238       0.47507205      -0.19078513
O       -1.42532007       1.61378760       0.64521387
C       -0.35141126       1.41931088      -0.27123832
H        1.65398079       0.19104278      -1.40394721
H        1.28396741      -1.41145102      -0.86519475
H        2.66017681      -0.54050092      -0.13147994
H        0.96896610      -0.96604175       1.60473828
H       -1.10074343      -1.66501455      -0.11773546
H       -1.56452771      -0.96024067       1.42853693
H       -2.30317840       0.45541936      -0.90400050
H       -0.26154958       2.17557625      -1.04417570
15
Frame=4 idx=010971 GeodesicLength=0.2739117061391844 rxn_smarts="[C:1]([C:2]1=[C:3]([H:11])[C:4]([H:12])([H:13])[C@@:5]2([H:14])[O:6][C@@:7]12[H:15])([H:8])([H:9])[H:10]>>[C:1]([C@@:3]1([H:11])[C:2][C@@:7]2([H:15])[C@@:5]([H:14])([C:4]1([H:12])[H:13])[O:6]2)([H:8])([H:9])[H:10]"
C        1.66804973      -0.45154782      -0.51716728
C        0.84064997       0.83837700       0.40421940
C        0.43071955      -0.42408585       0.82113924
C       -1.01328758      -0.77244269       0.49918998
C       -1.49603275       0.48557238      -0.17991936
O       -1.42391910       1.61636755       0.66417208
C       -0.35944182       1.42757870      -0.26667270
H        1.65433448       0.14810588      -1.42737344
H        1.34101892      -1.44730977      -0.83834100
H        2.68118018      -0.51029635      -0.13316745
H        0.95270381      -0.94900643       1.61561264
H       -1.11162084      -1.65313133      -0.13969165
H       -1.56820208      -0.97295721       1.41898587
H       -2.31960653       0.47547161      -0.88623811
H       -0.27654595       2.18930434      -1.03474822
15
Frame=5 idx=010971 GeodesicLength=0.34173732171531457 rxn_smarts="[C:1]([C:2]1=[C:3]([H:11])[C:4]([H:12])([H:13])[C@@:5]2([H:14])[O:6][C@@:7]12[H:15])([H:8])([H:9])[H:10]>>[C:1]([C@@:3]1([H:11])[C:2][C@@:7]2([H:15])[C@@:5]([H:14])([C:4]1([H:12])[H:13])[O:6]2)([H:8])([H:9])[H:10]"
C        1.68550316      -0.46430087      -0.51918736
C        0.83392549       0.83131725       0.38293278
C        0.42647294      -0.42952322       0.80816590
C       -1.01947387      -0.77102455       0.49056017
C       -1.50620946       0.49627003      -0.16863090
O       -1.42190705       1.61862436       0.68389444
C       -0.36758190       1.43603874      -0.26182167
H        1.65470598       0.10199317      -1.45053403
H        1.40012024      -1.48224730      -0.80812037
H        2.70158542      -0.47880472      -0.13664588
H        0.93568946      -0.93100592       1.62577750
H       -1.12260757      -1.64065330      -0.16269082
H       -1.57201668      -0.98629988       1.40849422
H       -2.33636040       0.49612959      -0.86750774
H       -0.29184575       2.20348662      -1.02468625
15
Frame=6 idx=010971 GeodesicLength=0.40926836139912126 rxn_smarts="[C:1]([C:2]1=[C:3]([H:11])[C:4]([H:12])([H:13])[C@@:5]2([H:14])[O:6][C@@:7]12[H:15])([H:8])([H:9])[H:10]>>[C:1]([C@@:3]1([H:11])[C:2][C@@:7]2([H:15])[C@@:5]([H:14])([C:4]1([H:12])[H:13])[O:6]2)([H:8])([H:9])[H:10]"
C        1.70329430      -0.47751797      -0.52098606
C        0.82691874       0.82381044       0.36037712
C        0.42213117      -0.43520310       0.79463435
C       -1.02583303      -0.76964088       0.48130620
C       -1.51648122       0.50713166      -0.15688342
O       -1.41928633       1.62048249       0.70437992
C       -0.37582478       1.44463122      -0.25668077
H        1.65540703       0.05251002      -1.47316237
H        1.46124887      -1.51561634      -0.77458695
H        2.72115228      -0.44620187      -0.14210101
H        0.91785733      -0.91203536       1.63503892
H       -1.13374175      -1.62752421      -0.18666465
H       -1.57595034      -1.00017783       1.39703050
H       -2.35344523       0.51734058      -0.84772353
H       -0.30744706       2.21801115      -1.01397825
15
Frame=7 idx=010971 GeodesicLength=0.47649621600846537 rxn_smarts="[C:1]([C:2]1=[C:3]([H:11])[C:4]([H:12])([H:13])[C@@:5]2([H:14])[O:6][C@@:7]12[H:15])([H:8])([H:9])[H:10]>>[C:1]([C@@:3]1([H:11])[C:2][C@@:7]2([H:15])[C@@:5]([H:14])([C:4]1([H:12])[H:13])[O:6]2)([H:8])([H:9])[H:10]"
C        1.72144622      -0.49118920      -0.52251202
C        0.81957284       0.81581635       0.33644229
C        0.41768977      -0.44112985       0.78052076
C       -1.03237745      -0.76828627       0.47142370
C       -1.52683196       0.51812523      -0.14464350
O       -1.41600224       1.62188685       0.72562868
C       -0.38415884       1.45332361      -0.25124562
H        1.65668405      -0.00050663      -1.49499835
H        1.52432131      -1.54696801      -0.73772675
H        2.73973598      -0.41261074      -0.14969865
H        0.89921506      -0.89211469       1.64323564
H       -1.14508149      -1.61371211      -0.21158634
H       -1.58000440      -1.01456649       1.38456916
H       -2.37085385       0.53907923      -0.82681506
H       -0.32335501       2.23285272      -1.00259394
15
Frame=8 idx=010971 GeodesicLength=0.5434237208476415 rxn_smarts="[C:1]([C:2]1=[C:3]([H:11])[C:4]([H:12])([H:13])[C@@:5]2([H:14])[O:6][C@@:7]12[H:15])([H:8])([H:9])[H:10]>>[C:1]([C@@:3]1([H:11])[C:2][C@@:7]2([H:15])[C@@:5]([H:14])([C:4]1([H:12])[H:13])[O:6]2)([H:8])([H:9])[H:10]"
C        1.73996563      -0.50530466      -0.52371192
C        0.81181988       0.80728855       0.31100678
C        0.41313680      -0.44731940       0.76578942
C       -1.03913357      -0.76695292       0.46089600
C       -1.53725399       0.52922666      -0.13187732
O       -1.41198890       1.62275981       0.74763787
C       -0.39257169       1.46208116      -0.24550538
H        1.65881125      -0.05723343      -1.51575497
H        1.58925712      -1.57582883      -0.69749960
H        2.75720608      -0.37815616      -0.15965538
H        0.87978019      -0.87126500       1.65021310
H       -1.15670180      -1.59917345      -0.23742671
H       -1.58419388      -1.02942844       1.37106086
H       -2.38856746       0.56131570      -0.80468998
H       -0.33956567       2.24799043      -0.99048277
15
Frame=9 idx=010971 GeodesicLength=0.6102166457694657 rxn_smarts="[C:1]([C:2]1=[C:3]([H:11])[C:4]([H:12])([H:13])[C@@:5]2([H:14])[O:6][C@@:7]12[H:15])([H:8])([H:9])[H:10]>>[C:1]([C@@:3]1([H:11])[C:2][C@@:7]2([H:15])[C@@:5]([H:14])([C:4]1([H:12])[H:13])[O:6]2)([H:8])([H:9])[H:10]"
C        1.75888293      -0.51978651      -0.52468449
C        0.80353260       0.79820666       0.28381115
C        0.40838341      -0.45379570       0.75034383
C       -1.04616117      -0.76567570       0.44962767
C       -1.54772565       0.54043786      -0.11856261
O       -1.40710061       1.62302928       0.77045196
C       -0.40104358       1.47092519      -0.23942888
H        1.66174762      -0.11781928      -1.53521492
H        1.65608292      -1.60213884      -0.65337987
H        2.77365525      -0.34283822      -0.17222886
H        0.85964113      -0.84945979       1.65586799
H       -1.16870977      -1.58388394      -0.26429939
H       -1.58857292      -1.04489955       1.35644244
H       -2.40654018       0.58412488      -0.78125433
H       -0.35607197       2.26357366      -0.97749169
15
Frame=10 idx=010971 GeodesicLength=0.6767413149667221 rxn_smarts="[C:1]([C:2]1=[C:3]([H:11])[C:4]([H:12])([H:13])[C@@:5]2([H:14])[O:6][C@@:7]12[H:15])([H:8])([H:9])[H:10]>>[C:1]([C@@:3]1([H:11])[C:2][C@@:7]2([H:15])[C@@:5]([H:14])([C:4]1([H:12])[H:13])[O:6]2)([H:8])([H:9])[H:10]"
C        1.77819263      -0.53464738      -0.52524541
C        0.79466972       0.78846132       0.25480928
C        0.40347463      -0.46058870       0.73420853
C       -1.05347249      -0.76443426       0.43767140
C       -1.55823724       0.55171350      -0.10465772
O       -1.40128698       1.62265331       0.79403179
C       -0.40953110       1.47976437      -0.23303093
H        1.66604771      -0.18247461      -1.55295511
H        1.72461387      -1.62494875      -0.60575301
H        2.78870805      -0.30690628      -0.18761924
H        0.83875597      -0.82681358       1.65997027
H       -1.18119480      -1.56781271      -0.29207339
H       -1.59313143      -1.06083005       1.34070823
H       -2.42478171       0.60741915      -0.75640868
H       -0.37282682       2.27944466      -0.96365602
15
Frame=11 idx=010971 GeodesicLength=0.7429820510610994 rxn_smarts="[C:1]([C:2]1=[C:3]([H:11])[C:4]([H:12])([H:13])[C@@:5]2([H:14])[O:6][C@@:7]12[H:15])([H:8])([H:9])[H:10]>>[C:1]([C@@:3]1([H:11])[C:2][C@@:7]2([H:15])[C@@:5]([H:14])([C:4]1([H:12])[H:13])[O:6]2)([H:8])([H:9])[H:10]"
C        1.79791907      -0.54982466      -0.52532662
C        0.78511886       0.77796849       0.22383103
C        0.39839284      -0.46771237       0.71731965
C       -1.06109389      -0.76321036       0.42500580
C       -1.56875269       0.56301589      -0.09012518
O       -1.39446275       1.62153673       0.81835861
C       -0.41798900       1.48853550      -0.22629826
H        1.67196741      -0.25129199      -1.56858718
H        1.79467360      -1.64373586      -0.55469366
H        2.80218142      -0.27057362      -0.20597845
H        0.81718153      -0.80336053       1.66234006
H       -1.19422833      -1.55090783      -0.32070706
H       -1.59788019      -1.07716022       1.32381664
H       -2.44324653       0.63118392      -0.73005169
H       -0.38978133       2.29553691      -0.94890369
15
Frame=12 idx=010971 GeodesicLength=0.8089487233422392 rxn_smarts="[C:1]([C:2]1=[C:3]([H:11])[C:4]([H:12])([H:13])[C@@:5]2([H:14])[O:6][C@@:7]12[H:15])([H:8])([H:9])[H:10]>>[C:1]([C@@:3]1([H:11])[C:2][C@@:7]2([H:15])[C@@:5]([H:14])([C:4]1([H:12])[H:13])[O:6]2)([H:8])([H:9])[H:10]"
C        1.81805170      -0.56524712      -0.52487533
C        0.77475588       0.76662338       0.19070633
C        0.39310189      -0.47521131       0.69959781
C       -1.06908239      -0.76199866       0.41160876
C       -1.57924197       0.57431786      -0.07493077
O       -1.38651331       1.61957505       0.84339509
C       -0.42635821       1.49716509      -0.21921952
H        1.67981040      -0.32437865      -1.58164509
H        1.86611836      -1.65788761      -0.50021252
H        2.81392568      -0.23403576      -0.22757787
H        0.79497799      -0.77917873       1.66279710
H       -1.20795030      -1.53312066      -0.35016133
H       -1.60285866      -1.09382775       1.30572793
H       -2.46188203       0.65540781      -0.70207074
H       -0.40685503       2.31179708      -0.93313986
15
Frame=13 idx=010971 GeodesicLength=0.8749134000691676 rxn_smarts="[C:1]([C:2]1=[C:3]([H:11])[C:4]([H:12])([H:13])[C@@:5]2([H:14])[O:6][C@@:7]12[H:15])([H:8])([H:9])[H:10]>>[C:1]([C@@:3]1([H:11])[C:2][C@@:7]2([H:15])[C@@:5]([H:14])([C:4]1([H:12])[H:13])[O:6]2)([H:8])([H:9])[H:10]"
C        1.83856125      -0.58078117      -0.52399123
C        0.76337689       0.75432292       0.15521726
C        0.38743873      -0.48320987       0.68094460
C       -1.07759039      -0.76086387       0.39741036
C       -1.58963139       0.58559889      -0.05905929
O       -1.37722463       1.61664882       0.86917993
C       -0.43450437       1.50558226      -0.21174312
H        1.68943107      -0.40194758      -1.59175647
H        1.93909085      -1.66685758      -0.44178284
H        2.82403772      -0.19723515      -0.25296458
H        0.77219341      -0.75433723       1.66124384
H       -1.22259225      -1.51444725      -0.38052692
H       -1.60825811      -1.11094976       1.28642409
H       -2.48051859       0.68018395      -0.67242876
H       -0.42381019       2.32829261      -0.91616688
15
Frame=14 idx=010971 GeodesicLength=0.9406614522026878 rxn_smarts="[C:1]([C:2]1=[C:3]([H:11])[C:4]([H:12])([H:13])[C@@:5]2([H:14])[O:6][C@@:7]12[H:15])([H:8])([H:9])[H:10]>>[C:1]([C@@:3]1([H:11])[C:2][C@@:7]2([H:15])[C@@:5]([H:14])([C:4]1([H:12])[H:13])[O:6]2)([H:8])([H:9])[H:10]"
C        1.85943418      -0.59631738      -0.52246336
C        0.75089745       0.74088405       0.11732773
C        0.38146206      -0.49177676       0.66134293
C       -1.08662907      -0.75977785       0.38248060
C       -1.59988330       0.59681626      -0.04249284
O       -1.36650988       1.61274982       0.89559069
C       -0.44232016       1.51364847      -0.20390652
H        1.70151028      -0.48393830      -1.59819643
H        2.01315572      -1.66960528      -0.38011202
H        2.83199604      -0.16062119      -0.28224617
H        0.74888092      -0.72911128       1.65740991
H       -1.23827957      -1.49490067      -0.41158903
H       -1.61404095      -1.12830194       1.26593606
H       -2.49915615       0.70545124      -0.64104760
H       -0.44051757       2.34480080      -0.89803395
15
Frame=15 idx=010971 GeodesicLength=1.0062161631588418 rxn_smarts="[C:1]([C:2]1=[C:3]([H:11])[C:4]([H:12])([H:13])[C@@:5]2([H:14])[O:6][C@@:7]12[H:15])([H:8])([H:9])[H:10]>>[C:1]([C@@:3]1([H:11])[C:2][C@@:7]2([H:15])[C@@:5]([H:14])([C:4]1([H:12])[H:13])[O:6]2)([H:8])([H:9])[H:10]"
C        1.88063946      -0.61164196      -0.52028930
C        0.73712436       0.72612845       0.07697951
C        0.37510635      -0.50103566       0.64069944
C       -1.09627298      -0.75876005       0.36685095
C       -1.60989398       0.60793537      -0.02524177
O       -1.35422604       1.60780770       0.92251793
C       -0.44964521       1.52120688      -0.19571422
H        1.71626007      -0.57015859      -1.60031753
H        2.08803437      -1.66536809      -0.31543589
H        2.83751609      -0.12447439      -0.31565496
H        0.72514321      -0.70374458       1.65109731
H       -1.25518459      -1.47452592      -0.44320825
H       -1.62027751      -1.14578705       1.24432786
H       -2.51761229       0.73123564      -0.60793364
H       -0.45671131       2.36118225      -0.87867746
15
Frame=16 idx=010971 GeodesicLength=1.071740494534077 rxn_smarts="[C:1]([C:2]1=[C:3]([H:11])[C:4]([H:12])([H:13])[C@@:5]2([H:14])[O:6][C@@:7]12[H:15])([H:8])([H:9])[H:10]>>[C:1]([C@@:3]1([H:11])[C:2][C@@:7]2([H:15])[C@@:5]([H:14])([C:4]1([H:12])[H:13])[O:6]2)([H:8])([H:9])[H:10]"
C        1.90209537      -0.62650441      -0.51748054
C        0.72188951       0.70988033       0.03425278
C        0.36824953      -0.51121369       0.61900468
C       -1.10669183      -0.75790422       0.35058168
C       -1.61954962       0.61891664      -0.00736246
O       -1.34015703       1.60179020       0.94984207
C       -0.45622842       1.52811578      -0.18717167
H        1.73381921      -0.66045255      -1.59743577
H        2.16355204      -1.65308057      -0.24798912
H        2.84044901      -0.08896799      -0.35369843
H        0.70100170      -0.67865170       1.64222145
H       -1.27363111      -1.45346205      -0.47524124
H       -1.62718693      -1.16339215       1.22173475
H       -2.53567057       0.75758120      -0.57319537
H       -0.47194086       2.37734520      -0.85806282
