14
Frame=0 idx=008374 GeodesicLength=0.0 rxn_smarts="[O:1]([C@@:2]1([H:9])[C:3]([H:10])([H:11])[N:4]([H:12])[C@:5]1([C:6](=[O:7])[H:14])[H:13])[H:8]>>[O:1]=[C:2]1[C:3]([H:10])([H:11])[N:4]([H:12])[C@:5]1([C:6]([O:7][H:8])([H:9])[H:14])[H:13]"
O       -0.83943968      -0.42982374       1.44314578
C       -0.74885480      -0.23722214       0.16353602
C       -1.36323442       1.02265460      -0.41177438
N        0.09281416       1.48241428      -0.47979305
C        0.46678170       0.00482038      -0.57455244
C        1.50542707      -0.92274890       0.07073690
O        1.68138834      -0.90042563       1.29171121
H        0.04801446      -0.78322969       1.73670852
H       -0.00152527      -1.92816712      -0.28307296
H       -2.01614981       1.60008380       0.23954324
H       -1.76582420       0.92925072      -1.41651529
H        0.34755320       1.83678746       0.43906644
H        0.36686851      -0.25760729      -1.62450644
H        2.22618068      -1.41678669      -0.59423361
14
Frame=1 idx=008374 GeodesicLength=0.1003525924554449 rxn_smarts="[O:1]([C@@:2]1([H:9])[C:3]([H:10])([H:11])[N:4]([H:12])[C@:5]1([C:6](=[O:7])[H:14])[H:13])[H:8]>>[O:1]=[C:2]1[C:3]([H:10])([H:11])[N:4]([H:12])[C@:5]1([C:6]([O:7][H:8])([H:9])[H:14])[H:13]"
O       -0.86499009      -0.46963126       1.42194299
C       -0.76052175      -0.25480774       0.14718336
C       -1.35991644       1.02398969      -0.40591790
N        0.09569992       1.47171006      -0.48606978
C        0.46263757      -0.00197728      -0.58757347
C        1.50150283      -0.91590165       0.07227365
O        1.67547219      -0.86694653       1.29722272
H        0.04982181      -0.76365007       1.75913121
H       -0.00016986      -1.92622050      -0.28668260
H       -1.99255278       1.60505364       0.26273827
H       -1.78638322       0.94912183      -1.40261408
H        0.36891064       1.82593722       0.42721777
H        0.37741069      -0.26704172      -1.63861324
H        2.23307848      -1.40963569      -0.58023889
14
Frame=2 idx=008374 GeodesicLength=0.20082589225768216 rxn_smarts="[O:1]([C@@:2]1([H:9])[C:3]([H:10])([H:11])[N:4]([H:12])[C@:5]1([C:6](=[O:7])[H:14])[H:13])[H:8]>>[O:1]=[C:2]1[C:3]([H:10])([H:11])[N:4]([H:12])[C@:5]1([C:6]([O:7][H:8])([H:9])[H:14])[H:13]"
O       -0.88811801      -0.50958046       1.40008504
C       -0.77205585      -0.27243848       0.13035501
C       -1.35642443       1.02487784      -0.39941258
N        0.09837257       1.46102201      -0.49317686
C        0.45882036      -0.00870041      -0.60079342
C        1.49732834      -0.90895390       0.07421178
O        1.66756998      -0.83435771       1.30293894
H        0.04920951      -0.74215885       1.78129610
H        0.00131365      -1.92431313      -0.29163682
H       -1.96797898       1.60835796       0.28730702
H       -1.80738888       0.96913941      -1.38684322
H        0.39059382       1.81581383       0.41372293
H        0.38874260      -0.27662291      -1.65270222
H        2.24001531      -1.40208519      -0.56535170
14
Frame=3 idx=008374 GeodesicLength=0.30158487664288697 rxn_smarts="[O:1]([C@@:2]1([H:9])[C:3]([H:10])([H:11])[N:4]([H:12])[C@:5]1([C:6](=[O:7])[H:14])[H:13])[H:8]>>[O:1]=[C:2]1[C:3]([H:10])([H:11])[N:4]([H:12])[C@:5]1([C:6]([O:7][H:8])([H:9])[H:14])[H:13]"
O       -0.90888046      -0.54927881       1.37776968
C       -0.78344244      -0.29003834       0.11315977
C       -1.35272795       1.02533333      -0.39228044
N        0.10081815       1.45038048      -0.50120347
C        0.45530535      -0.01532014      -0.61417809
C        1.49290839      -0.90181055       0.07653200
O        1.65774501      -0.80243746       1.30886489
H        0.04610631      -0.71984134       1.80297989
H        0.00292569      -1.92237329      -0.29774678
H       -1.94233749       1.61011685       0.31308545
H       -1.82879493       0.98921547      -1.36909687
H        0.41261060       1.80652249       0.39837942
H        0.40083840      -0.28638932      -1.66669376
H        2.24692538      -1.39407938      -0.54957167
14
Frame=4 idx=008374 GeodesicLength=0.4026589670419707 rxn_smarts="[O:1]([C@@:2]1([H:9])[C:3]([H:10])([H:11])[N:4]([H:12])[C@:5]1([C:6](=[O:7])[H:14])[H:13])[H:8]>>[O:1]=[C:2]1[C:3]([H:10])([H:11])[N:4]([H:12])[C@:5]1([C:6]([O:7][H:8])([H:9])[H:14])[H:13]"
O       -0.92744962      -0.58843327       1.35515153
C       -0.79467884      -0.30753544       0.09568203
C       -1.34879266       1.02537914      -0.38456734
N        0.10301817       1.43981557      -0.51019340
C        0.45206254      -0.02181534      -0.62770275
C        1.48823382      -0.89440830       0.07920113
O        1.64610408      -0.77095955       1.31498026
H        0.04059939      -0.69761715       1.82409972
H        0.00464028      -1.92033883      -0.30480906
H       -1.91554163       1.61044581       0.33987038
H       -1.85051187       1.00929431      -1.34931537
H        0.43491111       1.79812056       0.38105907
H        0.41366638      -0.29636126      -1.68053164
H        2.25373884      -1.38558625      -0.53292456
14
Frame=5 idx=008374 GeodesicLength=0.5033054289467374 rxn_smarts="[O:1]([C@@:2]1([H:9])[C:3]([H:10])([H:11])[N:4]([H:12])[C@:5]1([C:6](=[O:7])[H:14])[H:13])[H:8]>>[O:1]=[C:2]1[C:3]([H:10])([H:11])[N:4]([H:12])[C@:5]1([C:6]([O:7][H:8])([H:9])[H:14])[H:13]"
O       -0.94404395      -0.62679774       1.33241200
C       -0.80577834      -0.32491843       0.07796388
C       -1.34459687       1.02503073      -0.37630506
N        0.10495800       1.42934334      -0.52015755
C        0.44906512      -0.02818175      -0.64132692
C        1.48330436      -0.88667718       0.08220196
O        1.63278874      -0.73970548       1.32114537
H        0.03277206      -0.67624833       1.84448439
H        0.00653064      -1.91821032      -0.31256419
H       -1.88752070       1.60950125       0.36741242
H       -1.87251153       1.02941353      -1.32745151
H        0.45746696       1.79057403       0.36170112
H        0.42720224      -0.30655065      -1.69412311
H        2.26036327      -1.37657299      -0.51539280
14
Frame=6 idx=008374 GeodesicLength=0.6041978417966987 rxn_smarts="[O:1]([C@@:2]1([H:9])[C:3]([H:10])([H:11])[N:4]([H:12])[C@:5]1([C:6](=[O:7])[H:14])[H:13])[H:8]>>[O:1]=[C:2]1[C:3]([H:10])([H:11])[N:4]([H:12])[C@:5]1([C:6]([O:7][H:8])([H:9])[H:14])[H:13]"
O       -0.95901551      -0.66440639       1.30949159
C       -0.81675554      -0.34212898       0.06002955
C       -1.34010158       1.02431435      -0.36755655
N        0.10662412       1.41897647      -0.53105516
C        0.44629542      -0.03441334      -0.65506269
C        1.47808813      -0.87863359       0.08548094
O        1.61786043      -0.70851716       1.32735487
H        0.02296432      -0.65594668       1.86438250
H        0.00848654      -1.91594346      -0.32093145
H       -1.85820991       1.60729781       0.39558394
H       -1.89460985       1.04952193      -1.30346288
H        0.48017691       1.78388825       0.34028233
H        0.44144481      -0.31695232      -1.70747795
H        2.26675171      -1.36705690      -0.49705905
14
Frame=7 idx=008374 GeodesicLength=0.70536818501497 rxn_smarts="[O:1]([C@@:2]1([H:9])[C:3]([H:10])([H:11])[N:4]([H:12])[C@:5]1([C:6](=[O:7])[H:14])[H:13])[H:8]>>[O:1]=[C:2]1[C:3]([H:10])([H:11])[N:4]([H:12])[C@:5]1([C:6]([O:7][H:8])([H:9])[H:14])[H:13]"
O       -0.97265181      -0.70125904       1.28635685
C       -0.82763514      -0.35915807       0.04186776
C       -1.33528597       1.02323809      -0.35835396
N        0.10801397       1.40873238      -0.54285054
C        0.44373994      -0.04051304      -0.66890959
C        1.47255858      -0.87027154       0.08901010
O        1.60138197      -0.67723283       1.33352749
H        0.01139833      -0.63688862       1.88390095
H        0.01048817      -1.91354830      -0.32979502
H       -1.82755341       1.60383790       0.42426053
H       -1.91671477       1.06964699      -1.27730229
H        0.50301947       1.77802471       0.31679171
H        0.45639131      -0.32756662      -1.72056924
H        2.27284937      -1.35704201      -0.47793477
14
Frame=8 idx=008374 GeodesicLength=0.8068063506729051 rxn_smarts="[O:1]([C@@:2]1([H:9])[C:3]([H:10])([H:11])[N:4]([H:12])[C@:5]1([C:6](=[O:7])[H:14])[H:13])[H:8]>>[O:1]=[C:2]1[C:3]([H:10])([H:11])[N:4]([H:12])[C@:5]1([C:6]([O:7][H:8])([H:9])[H:14])[H:13]"
O       -0.98518942      -0.73738025       1.26297984
C       -0.83843805      -0.37599070       0.02347345
C       -1.33012329       1.02180897      -0.34873611
N        0.10911453       1.39861838      -0.55549717
C        0.44138344      -0.04648405      -0.68287248
C        1.46669075      -0.86159514       0.09276235
O        1.58340445      -0.64575256       1.33959048
H       -0.00171547      -0.61911723       1.90317442
H        0.01250887      -1.91102367      -0.33908460
H       -1.79549614       1.59912425       0.45331266
H       -1.93870032       1.08978791      -1.24892735
H        0.52591461       1.77291620       0.29125012
H        0.47203757      -0.33837558      -1.73338053
H        2.27860846      -1.34653652      -0.45804509
14
Frame=9 idx=008374 GeodesicLength=0.9076218431807647 rxn_smarts="[O:1]([C@@:2]1([H:9])[C:3]([H:10])([H:11])[N:4]([H:12])[C@:5]1([C:6](=[O:7])[H:14])[H:13])[H:8]>>[O:1]=[C:2]1[C:3]([H:10])([H:11])[N:4]([H:12])[C@:5]1([C:6]([O:7][H:8])([H:9])[H:14])[H:13]"
O       -0.99673455      -0.77269668       1.23953438
C       -0.84919216      -0.39261870       0.00486486
C       -1.32458125       1.02002395      -0.33873562
N        0.10988243       1.38862558      -0.56894388
C        0.43920346      -0.05234072      -0.69693495
C        1.46047904      -0.85257448       0.09670930
O        1.56402918      -0.61399374       1.34540692
H       -0.01623350      -0.60288721       1.92215184
H        0.01457980      -1.90836310      -0.34866476
H       -1.76205361       1.59328407       0.48240360
H       -1.96039973       1.10999918      -1.21827441
H        0.54870617       1.76842375       0.26374420
H        0.48836407      -0.34936013      -1.74585481
H        2.28395065      -1.33552178      -0.43740669
14
Frame=10 idx=008374 GeodesicLength=1.0087691529203633 rxn_smarts="[O:1]([C@@:2]1([H:9])[C:3]([H:10])([H:11])[N:4]([H:12])[C@:5]1([C:6](=[O:7])[H:14])[H:13])[H:8]>>[O:1]=[C:2]1[C:3]([H:10])([H:11])[N:4]([H:12])[C@:5]1([C:6]([O:7][H:8])([H:9])[H:14])[H:13]"
O       -1.00752287      -0.80740294       1.21577631
C       -0.85991200      -0.40903500      -0.01401906
C       -1.31863080       1.01787777      -0.32837338
N        0.11033151       1.37875894      -0.58313695
C        0.43720166      -0.05807851      -0.71113999
C        1.45385321      -0.84324932       0.10082825
O        1.54315898      -0.58190807       1.35097569
H       -0.03193369      -0.58778216       1.94117749
H        0.01661160      -1.90556066      -0.35860759
H       -1.72709647       1.58613437       0.51161709
H       -1.98168457       1.13021001      -1.18527764
H        0.57138083       1.76453079       0.23424476
H        0.50540334      -0.36049160      -1.75803022
H        2.28883927      -1.32400362      -0.41603476
14
Frame=11 idx=008374 GeodesicLength=1.1104277463167045 rxn_smarts="[O:1]([C@@:2]1([H:9])[C:3]([H:10])([H:11])[N:4]([H:12])[C@:5]1([C:6](=[O:7])[H:14])[H:13])[H:8]>>[O:1]=[C:2]1[C:3]([H:10])([H:11])[N:4]([H:12])[C@:5]1([C:6]([O:7][H:8])([H:9])[H:14])[H:13]"
O       -1.01770956      -0.84156301       1.19162507
C       -0.87061659      -0.42523452      -0.03319909
C       -1.31224432       1.01536119      -0.31766873
N        0.11044676       1.36901577      -0.59803185
C        0.43537049      -0.06370322      -0.72550074
C        1.44677067      -0.83362499       0.10509925
O        1.52077575      -0.54943015       1.35622846
H       -0.04865222      -0.57365972       1.96038398
H        0.01858194      -1.90261433      -0.36889547
H       -1.69056029       1.57762026       0.54086441
H       -2.00239981       1.15039926      -1.14987191
H        0.59386371       1.76115026       0.20278951
H        0.52315922      -0.37174484      -1.76989112
H        2.29321424      -1.31197196      -0.39393178
14
Frame=12 idx=008374 GeodesicLength=1.2126485459575629 rxn_smarts="[O:1]([C@@:2]1([H:9])[C:3]([H:10])([H:11])[N:4]([H:12])[C@:5]1([C:6](=[O:7])[H:14])[H:13])[H:8]>>[O:1]=[C:2]1[C:3]([H:10])([H:11])[N:4]([H:12])[C@:5]1([C:6]([O:7][H:8])([H:9])[H:14])[H:13]"
O       -1.02740479      -0.87520161       1.16704895
C       -0.88132219      -0.44120034      -0.05268739
C       -1.30540072       1.01246676      -0.30664591
N        0.11022558       1.35940241      -0.61355613
C        0.43370306      -0.06921113      -0.74002399
C        1.43920175      -0.82371453       0.10949747
O        1.49687982      -0.51653419       1.36108207
H       -0.06623214      -0.56037574       1.97989585
H        0.02045770      -1.89951445      -0.37951916
H       -1.65244131       1.56770783       0.57004212
H       -2.02238948       1.17049112      -1.11206582
H        0.61608264       1.75819665       0.16946953
H        0.54162644      -0.38307690      -1.78141718
H        2.29701363      -1.29943588      -0.37112041
14
Frame=13 idx=008374 GeodesicLength=1.3155192178887416 rxn_smarts="[O:1]([C@@:2]1([H:9])[C:3]([H:10])([H:11])[N:4]([H:12])[C@:5]1([C:6](=[O:7])[H:14])[H:13])[H:8]>>[O:1]=[C:2]1[C:3]([H:10])([H:11])[N:4]([H:12])[C@:5]1([C:6]([O:7][H:8])([H:9])[H:14])[H:13]"
O       -1.03670228      -0.90834999       1.14202376
C       -0.89204512      -0.45691927      -0.07248684
C       -1.29808598       1.00918510      -0.29534344
N        0.10965962       1.34991645      -0.62963342
C        0.43219328      -0.07460397      -0.75471678
C        1.43111115      -0.81352749       0.11399471
O        1.47146520      -0.48321459       1.36545900
H       -0.08450398      -0.54776738       1.99984161
H        0.02220547      -1.89625216      -0.39047334
H       -1.61275179       1.55636920       0.59900518
H       -2.04146573       1.19042837      -1.07184214
H        0.63794188       1.75556176       0.13438782
H        0.56080199      -0.39443963      -1.79258627
H        2.30017628      -1.28638639      -0.34762986
14
Frame=14 idx=008374 GeodesicLength=1.4189445357163444 rxn_smarts="[O:1]([C@@:2]1([H:9])[C:3]([H:10])([H:11])[N:4]([H:12])[C@:5]1([C:6](=[O:7])[H:14])[H:13])[H:8]>>[O:1]=[C:2]1[C:3]([H:10])([H:11])[N:4]([H:12])[C@:5]1([C:6]([O:7][H:8])([H:9])[H:14])[H:13]"
O       -1.04563968      -0.94101109       1.11657598
C       -0.90279836      -0.47236724      -0.09259500
C       -1.29029054       1.00551117      -0.28380097
N        0.10874928       1.34056856      -0.64618056
C        0.43083520      -0.07987405      -0.76958016
C        1.42247466      -0.80308384       0.11855958
O        1.44454434      -0.44949428       1.36928308
H       -0.10332109      -0.53569023       2.02032925
H        0.02378733      -1.89281244      -0.40176717
H       -1.57154134       1.54360245       0.62759196
H       -2.05945331       1.21011835      -1.02923511
H        0.65933602       1.75315176       0.09769075
H        0.58067144      -0.40577998      -1.80337432
H        2.30264603      -1.27283915      -0.32349731
14
Frame=15 idx=008374 GeodesicLength=1.5229578947877815 rxn_smarts="[O:1]([C@@:2]1([H:9])[C:3]([H:10])([H:11])[N:4]([H:12])[C@:5]1([C:6](=[O:7])[H:14])[H:13])[H:8]>>[O:1]=[C:2]1[C:3]([H:10])([H:11])[N:4]([H:12])[C@:5]1([C:6]([O:7][H:8])([H:9])[H:14])[H:13]"
O       -1.05426129      -0.97319288       1.09071386
C       -0.91359407      -0.48752325      -0.11300541
C       -1.28200786       1.00143372      -0.27206822
N        0.10749499       1.33136260      -0.66310410
C        0.42962757      -0.08501615      -0.78461399
C        1.41326669      -0.79240576       0.12315728
O        1.41612693      -0.41541644       1.37247823
H       -0.12251254      -0.52394627       2.04147959
H        0.02516221      -1.88918362      -0.41341480
H       -1.52889265       1.52939860       0.65563398
H       -2.07616319       1.22947161      -0.98427956
H        0.68016497       1.75085978       0.05954944
H        0.60122211      -0.41703819      -1.81375684
H        2.30436614      -1.25880375      -0.29876945
14
Frame=16 idx=008374 GeodesicLength=1.6274921940734777 rxn_smarts="[O:1]([C@@:2]1([H:9])[C:3]([H:10])([H:11])[N:4]([H:12])[C@:5]1([C:6](=[O:7])[H:14])[H:13])[H:8]>>[O:1]=[C:2]1[C:3]([H:10])([H:11])[N:4]([H:12])[C@:5]1([C:6]([O:7][H:8])([H:9])[H:14])[H:13]"
O       -1.06258551      -1.00488707       1.06448946
C       -0.92444146      -0.50236517      -0.13370174
C       -1.27324808       0.99694366      -0.26020879
N        0.10591084       1.32231152      -0.68029893
C        0.42856912      -0.09002133      -0.79981090
C        1.40347929      -0.78152772       0.12774715
O        1.38625317      -0.38105838       1.37497839
H       -0.14191214      -0.51233508       2.06339238
H        0.02628761      -1.88535445      -0.42543745
H       -1.48495442       1.51377740       0.68293322
H       -2.09141034       1.24838391      -0.93704244
H        0.70033193       1.74859054       0.02018099
H        0.62243107      -0.42814739      -1.82370596
H        2.30528891      -1.24431043      -0.27351538
