14
Frame=0 idx=011719 GeodesicLength=0.0 rxn_smarts="[C:1]([c:2]1[c:3]([H:11])[o:4][c:5]([H:12])[c:6]1[N:7]([H:13])[H:14])([H:8])([H:9])[H:10]>>[C:1]([C@@:2]1([H:11])[C-:3]=[O+:4][C:5]([H:12])=[C:6]1[N:7]([H:13])[H:14])([H:8])([H:9])[H:10]"
C       -1.75922784       0.18389976       0.46665862
C       -0.48425030      -0.46443016       0.02478796
C       -0.39823436      -1.76864428      -0.57100893
O        0.91201650      -1.85984682      -0.95932117
C        1.57516631      -0.68664058      -0.75692006
C        0.79340615       0.21451563      -0.13957816
N        1.08152294       1.48673985       0.35126316
H       -2.54013549      -0.56733037       0.58014472
H       -2.08946632       0.89446747      -0.29396837
H       -1.63874845       0.72312548       1.40765794
H       -0.36154695      -1.51881255       0.74090202
H        2.60246971      -0.65078190      -1.08504157
H        0.34330014       2.15590288       0.19738829
H        1.96372792       1.85783564       0.03703559
14
Frame=1 idx=011719 GeodesicLength=0.041605737103065664 rxn_smarts="[C:1]([c:2]1[c:3]([H:11])[o:4][c:5]([H:12])[c:6]1[N:7]([H:13])[H:14])([H:8])([H:9])[H:10]>>[C:1]([C@@:2]1([H:11])[C-:3]=[O+:4][C:5]([H:12])=[C:6]1[N:7]([H:13])[H:14])([H:8])([H:9])[H:10]"
C       -1.75890201       0.18547908       0.46425684
C       -0.48050331      -0.46781226       0.03904541
C       -0.39466121      -1.76549314      -0.56862985
O        0.90942102      -1.85625706      -0.96719195
C        1.57429309      -0.68219612      -0.76313172
C        0.79546156       0.21336424      -0.13419851
N        1.08388695       1.48633250       0.35340124
H       -2.54100278      -0.56383106       0.58211653
H       -2.08536694       0.88831746      -0.30515402
H       -1.64358651       0.73400869       1.40060395
H       -0.36726309      -1.53838018       0.75237163
H        2.60120825      -0.64733763      -1.09209460
H        0.34360125       2.15418150       0.20421456
H        1.96341373       1.85962398       0.03439051
14
Frame=2 idx=011719 GeodesicLength=0.08321767782002122 rxn_smarts="[C:1]([c:2]1[c:3]([H:11])[o:4][c:5]([H:12])[c:6]1[N:7]([H:13])[H:14])([H:8])([H:9])[H:10]>>[C:1]([C@@:2]1([H:11])[C-:3]=[O+:4][C:5]([H:12])=[C:6]1[N:7]([H:13])[H:14])([H:8])([H:9])[H:10]"
C       -1.75840798       0.18702569       0.46174651
C       -0.47668850      -0.47123987       0.05343989
C       -0.39101560      -1.76239749      -0.56587640
O        0.90677605      -1.85263910      -0.97478771
C        1.57327669      -0.67761418      -0.76938716
C        0.79750716       0.21223558      -0.12880798
N        1.08622700       1.48592139       0.35562465
H       -2.54181138      -0.56021662       0.58398545
H       -2.08096979       0.88200139      -0.31642579
H       -1.64828654       0.74488467       1.39328544
H       -0.37331162      -1.55819142       0.76377894
H        2.59966831      -0.64364419      -1.09960075
H        0.34394987       2.15248390       0.21107714
H        1.96308633       1.86139025       0.03194775
14
Frame=3 idx=011719 GeodesicLength=0.12483477584107336 rxn_smarts="[C:1]([c:2]1[c:3]([H:11])[o:4][c:5]([H:12])[c:6]1[N:7]([H:13])[H:14])([H:8])([H:9])[H:10]>>[C:1]([C@@:2]1([H:11])[C-:3]=[O+:4][C:5]([H:12])=[C:6]1[N:7]([H:13])[H:14])([H:8])([H:9])[H:10]"
C       -1.75773684       0.18852775       0.45917208
C       -0.47281702      -0.47469402       0.06792343
C       -0.38731437      -1.75933996      -0.56280553
O        0.90404241      -1.84895364      -0.98222542
C        1.57207248      -0.67284944      -0.77580846
C        0.79951977       0.21115808      -0.12348691
N        1.08853236       1.48552616       0.35787102
H       -2.54253987      -0.55650828       0.58580753
H       -2.07631489       0.87552938      -0.32769506
H       -1.65279323       0.75570955       1.38575746
H       -0.37967570      -1.57823357       0.77505757
H        2.59798627      -0.63986840      -1.10714114
H        0.34432148       2.15082673       0.21796398
H        1.96271716       1.86316965       0.02960945
14
Frame=4 idx=011719 GeodesicLength=0.16645597739040308 rxn_smarts="[C:1]([c:2]1[c:3]([H:11])[o:4][c:5]([H:12])[c:6]1[N:7]([H:13])[H:14])([H:8])([H:9])[H:10]>>[C:1]([C@@:2]1([H:11])[C-:3]=[O+:4][C:5]([H:12])=[C:6]1[N:7]([H:13])[H:14])([H:8])([H:9])[H:10]"
C       -1.75688164       0.18997439       0.45657723
C       -0.46889762      -0.47815613       0.08244753
C       -0.38357191      -1.75630280      -0.55947473
O        0.90118262      -1.84516041      -0.98961732
C        1.57064403      -0.66786229      -0.78249594
C        0.80147876       0.21015876      -0.11830934
N        1.09079174       1.48516758       0.36007975
H       -2.54316787      -0.55272730       0.58763662
H       -2.07144434       0.86891393      -0.33887644
H       -1.65705589       0.76644057       1.37807699
H       -0.38634030      -1.59849535       0.78614101
H        2.59629206      -0.63617456      -1.11432654
H        0.34469248       2.14922644       0.22485815
H        1.96227788       1.86499717       0.02728303
14
Frame=5 idx=011719 GeodesicLength=0.2080822300382334 rxn_smarts="[C:1]([c:2]1[c:3]([H:11])[o:4][c:5]([H:12])[c:6]1[N:7]([H:13])[H:14])([H:8])([H:9])[H:10]>>[C:1]([C@@:2]1([H:11])[C-:3]=[O+:4][C:5]([H:12])=[C:6]1[N:7]([H:13])[H:14])([H:8])([H:9])[H:10]"
C       -1.75584406       0.19136740       0.45394447
C       -0.46492893      -0.48162250       0.09700449
C       -0.37976687      -1.75330631      -0.55585098
O        0.89821920      -1.84128419      -0.99690281
C        1.56900969      -0.66267516      -0.78938329
C        0.80339363       0.20922856      -0.11324864
N        1.09301328       1.48483882       0.36227397
H       -2.54370002      -0.54886984       0.58943709
H       -2.06635012       0.86216075      -0.34998829
H       -1.66108647       0.77707440       1.37023078
H       -0.39333638      -1.61895750       0.79704766
H        2.59452288      -0.63249487      -1.12133369
H        0.34507394       2.14767695       0.23177241
H        1.96178021       1.86686349       0.02499685
14
Frame=6 idx=011719 GeodesicLength=0.24971560012611632 rxn_smarts="[C:1]([c:2]1[c:3]([H:11])[o:4][c:5]([H:12])[c:6]1[N:7]([H:13])[H:14])([H:8])([H:9])[H:10]>>[C:1]([C@@:2]1([H:11])[C-:3]=[O+:4][C:5]([H:12])=[C:6]1[N:7]([H:13])[H:14])([H:8])([H:9])[H:10]"
C       -1.75462605       0.19270735       0.45126257
C       -0.46091173      -0.48508732       0.11158258
C       -0.37588183      -1.75036766      -0.55191132
O        0.89516769      -1.83734284      -1.00404407
C        1.56718550      -0.65730768      -0.79641692
C        0.80527199       0.20836146      -0.10828694
N        1.09520511       1.48453581       0.36446852
H       -2.54413946      -0.54493517       0.59118426
H       -2.06103049       0.85527530      -0.36103977
H       -1.66489150       0.78760555       1.36221224
H       -0.40069137      -1.63960171       0.80778770
H        2.59263720      -0.62878258      -1.12828069
H        0.34547405       2.14617408       0.23872142
H        1.96123087       1.86876539       0.02276042
14
Frame=7 idx=011719 GeodesicLength=0.2913524377505111 rxn_smarts="[C:1]([c:2]1[c:3]([H:11])[o:4][c:5]([H:12])[c:6]1[N:7]([H:13])[H:14])([H:8])([H:9])[H:10]>>[C:1]([C@@:2]1([H:11])[C-:3]=[O+:4][C:5]([H:12])=[C:6]1[N:7]([H:13])[H:14])([H:8])([H:9])[H:10]"
C       -1.75322712       0.19399274       0.44853595
C       -0.45684902      -0.48854111       0.12616024
C       -0.37190619      -1.74749179      -0.54765688
O        0.89202814      -1.83333488      -1.01104951
C        1.56517651      -0.65176755      -0.80357701
C        0.80711430       0.20755942      -0.10342914
N        1.09736891       1.48426047       0.36665756
H       -2.54447985      -0.54092860       0.59288053
H       -2.05549896       0.84826247      -0.37201613
H       -1.66846144       0.79802365       1.35403021
H       -0.40842031      -1.66041259       0.81834653
H        2.59063923      -0.62504884      -1.13514757
H        0.34589142       2.14471797       0.24571027
H        1.96062438       1.87070864       0.02055494
14
Frame=8 idx=011719 GeodesicLength=0.3330097842607912 rxn_smarts="[C:1]([c:2]1[c:3]([H:11])[o:4][c:5]([H:12])[c:6]1[N:7]([H:13])[H:14])([H:8])([H:9])[H:10]>>[C:1]([C@@:2]1([H:11])[C-:3]=[O+:4][C:5]([H:12])=[C:6]1[N:7]([H:13])[H:14])([H:8])([H:9])[H:10]"
C       -1.75166050       0.19524491       0.44563354
C       -0.45272664      -0.49200510       0.14082172
C       -0.36775834      -1.74477627      -0.54287308
O        0.88892415      -1.82940620      -1.01756715
C        1.56303811      -0.64613982      -0.81064501
C        0.80898478       0.20674552      -0.09846779
N        1.09955923       1.48394701       0.36902284
H       -2.54476652      -0.53680260       0.59434285
H       -2.04964626       0.84108413      -0.38313977
H       -1.67191686       0.80841812       1.34551674
H       -0.41662550      -1.68135289       0.82891748
H        2.58814247      -0.62081437      -1.14302491
H        0.34640313       2.14325499       0.25284664
H        1.96004876       1.87260257       0.01861590
14
Frame=9 idx=011719 GeodesicLength=0.37468690380066927 rxn_smarts="[C:1]([c:2]1[c:3]([H:11])[o:4][c:5]([H:12])[c:6]1[N:7]([H:13])[H:14])([H:8])([H:9])[H:10]>>[C:1]([C@@:2]1([H:11])[C-:3]=[O+:4][C:5]([H:12])=[C:6]1[N:7]([H:13])[H:14])([H:8])([H:9])[H:10]"
C       -1.74992355       0.19645661       0.44258109
C       -0.44855401      -0.49546353       0.15553424
C       -0.36344028      -1.74221722      -0.53758815
O        0.88583499      -1.82553654      -1.02366750
C        1.56074370      -0.64040139      -0.81768598
C        0.81087589       0.20593357      -0.09344206
N        1.10177433       1.48360746       0.37153010
H       -2.54498613      -0.53257422       0.59560309
H       -2.04350011       0.83374337      -0.39436180
H       -1.67522629       0.81876534       1.33670338
H       -0.42530691      -1.70240852       0.83946332
H        2.58521925      -0.61616741      -1.15168117
H        0.34699882       2.14179365       0.26012587
H        1.95949030       1.87446882       0.01688558
14
Frame=10 idx=011719 GeodesicLength=0.41638211684130044 rxn_smarts="[C:1]([c:2]1[c:3]([H:11])[o:4][c:5]([H:12])[c:6]1[N:7]([H:13])[H:14])([H:8])([H:9])[H:10]>>[C:1]([C@@:2]1([H:11])[C-:3]=[O+:4][C:5]([H:12])=[C:6]1[N:7]([H:13])[H:14])([H:8])([H:9])[H:10]"
C       -1.74801429       0.19762191       0.43940157
C       -0.44433736      -0.49890079       0.17026919
C       -0.35895035      -1.73981008      -0.53182649
O        0.88274335      -1.82170609      -1.02941140
C        1.55827592      -0.63453726      -0.82474042
C        0.81278324       0.20513419      -0.08838157
N        1.10401159       1.48325253       0.37414815
H       -2.54512676      -0.52825791       0.59668513
H       -2.03708396       0.82624611      -0.40563746
H       -1.67836430       0.82904140       1.32762036
H       -0.43446765      -1.72356719       0.84994955
H        2.58192570      -0.61118159      -1.16092823
H        0.34766853       2.14034009       0.26753706
H        1.95893636       1.87632468       0.01531456
14
Frame=11 idx=011719 GeodesicLength=0.4580899763838732 rxn_smarts="[C:1]([c:2]1[c:3]([H:11])[o:4][c:5]([H:12])[c:6]1[N:7]([H:13])[H:14])([H:8])([H:9])[H:10]>>[C:1]([C@@:2]1([H:11])[C-:3]=[O+:4][C:5]([H:12])=[C:6]1[N:7]([H:13])[H:14])([H:8])([H:9])[H:10]"
C       -1.74593109       0.19872817       0.43616865
C       -0.44008806      -0.50228925       0.18495701
C       -0.35431076      -1.73751785      -0.52569158
O        0.87959478      -1.81784944      -1.03496832
C        1.55562854      -0.62852932      -0.83185970
C        0.81468194       0.20438524      -0.08338427
N        1.10624334       1.48292318       0.37677512
H       -2.54516731      -0.52388788       0.59765861
H       -2.03046310       0.81863612      -0.41682717
H       -1.68126814       0.83916847       1.31838254
H       -0.44409077      -1.74482691       0.86026702
H        2.57844610      -0.60608273      -1.17025547
H        0.34837391       2.13892503       0.27499212
H        1.95835061       1.87821717       0.01378544
14
Frame=12 idx=011719 GeodesicLength=0.49979352768360175 rxn_smarts="[C:1]([c:2]1[c:3]([H:11])[o:4][c:5]([H:12])[c:6]1[N:7]([H:13])[H:14])([H:8])([H:9])[H:10]>>[C:1]([C@@:2]1([H:11])[C-:3]=[O+:4][C:5]([H:12])=[C:6]1[N:7]([H:13])[H:14])([H:8])([H:9])[H:10]"
C       -1.74367349       0.19976167       0.43297537
C       -0.43581596      -0.50560054       0.19951994
C       -0.34955403      -1.73528522      -0.51932159
O        0.87630895      -1.81386859      -1.04057170
C        1.55280549      -0.62235979      -0.83909329
C        0.81653511       0.20373927      -0.07857947
N        1.10843096       1.48267010       0.37928778
H       -2.54507209      -0.51950688       0.59864917
H       -2.02373781       0.81094163      -0.42777595
H       -1.68386108       0.84908195       1.30911704
H       -0.45414318      -1.76619570       0.87026757
H        2.57502187      -0.60116837      -1.17902192
H        0.34906674       2.13758933       0.28237990
H        1.95768853       1.88020115       0.01216714
14
Frame=13 idx=011719 GeodesicLength=0.5415099641460682 rxn_smarts="[C:1]([c:2]1[c:3]([H:11])[o:4][c:5]([H:12])[c:6]1[N:7]([H:13])[H:14])([H:8])([H:9])[H:10]>>[C:1]([C@@:2]1([H:11])[C-:3]=[O+:4][C:5]([H:12])=[C:6]1[N:7]([H:13])[H:14])([H:8])([H:9])[H:10]"
C       -1.74125094       0.20073881       0.42970944
C       -0.43150911      -0.50885076       0.21403978
C       -0.34460565      -1.73319709      -0.51252362
O        0.87298720      -1.80988615      -1.04593136
C        1.54982637      -0.61607958      -0.84631281
C        0.81840514       0.20312556      -0.07378195
N        1.11062832       1.48243490       0.38184014
H       -2.54488139      -0.51507627       0.59948877
H       -2.01680029       0.80313174      -0.43867289
H       -1.68624880       0.85885440       1.29967935
H       -0.46470860      -1.78764316       0.88012158
H        2.57132773      -0.59603918      -1.18810423
H        0.34981205       2.13628159       0.28981603
H        1.95701799       1.88220520       0.01063177
14
Frame=14 idx=011719 GeodesicLength=0.5832404391276479 rxn_smarts="[C:1]([c:2]1[c:3]([H:11])[o:4][c:5]([H:12])[c:6]1[N:7]([H:13])[H:14])([H:8])([H:9])[H:10]>>[C:1]([C@@:2]1([H:11])[C-:3]=[O+:4][C:5]([H:12])=[C:6]1[N:7]([H:13])[H:14])([H:8])([H:9])[H:10]"
C       -1.73866625       0.20165763       0.42637316
C       -0.42716824      -0.51203223       0.22851571
C       -0.33945198      -1.73126047      -0.50528796
O        0.86962430      -1.80589915      -1.05105894
C        1.54669352      -0.60969458      -0.85350611
C        0.82030062       0.20254305      -0.06898211
N        1.11284036       1.48222156       0.38443296
H       -2.54459177      -0.51060509       0.60018025
H       -2.00965705       0.79519782      -0.44952053
H       -1.68843332       0.86848953       1.29006954
H       -0.47580556      -1.80916457       0.88982173
H        2.56735599      -0.59068840      -1.19751286
H        0.35061338       2.13500328       0.29729482
H        1.95634600       1.88423163       0.00918033
14
Frame=15 idx=011719 GeodesicLength=0.6249851203557308 rxn_smarts="[C:1]([c:2]1[c:3]([H:11])[o:4][c:5]([H:12])[c:6]1[N:7]([H:13])[H:14])([H:8])([H:9])[H:10]>>[C:1]([C@@:2]1([H:11])[C-:3]=[O+:4][C:5]([H:12])=[C:6]1[N:7]([H:13])[H:14])([H:8])([H:9])[H:10]"
C       -1.73592125       0.20251624       0.42297028
C       -0.42279209      -0.51513622       0.24294854
C       -0.33407828      -1.72947974      -0.49760441
O        0.86621132      -1.80190037      -1.05597030
C        1.54340760      -0.60320919      -0.86066356
C        0.82222956       0.20199061      -0.06417158
N        1.11507022       1.48203360       0.38706326
H       -2.54419906      -0.50610156       0.60072338
H       -2.00231158       0.78713501      -0.46031679
H       -1.69041731       0.87798626       1.28029111
H       -0.48744922      -1.83075593       0.89935825
H        2.56310222      -0.58511551      -1.20724505
H        0.35147154       2.13375486       0.30480795
H        1.95567632       1.88628192       0.00780893
14
Frame=16 idx=011719 GeodesicLength=0.6667457873550556 rxn_smarts="[C:1]([c:2]1[c:3]([H:11])[o:4][c:5]([H:12])[c:6]1[N:7]([H:13])[H:14])([H:8])([H:9])[H:10]>>[C:1]([C@@:2]1([H:11])[C-:3]=[O+:4][C:5]([H:12])=[C:6]1[N:7]([H:13])[H:14])([H:8])([H:9])[H:10]"
C       -1.73301787       0.20331337       0.41949630
C       -0.41837849      -0.51815561       0.25734723
C       -0.32846511      -1.72786467      -0.48944826
O        0.86274445      -1.79789067      -1.06066182
C        1.53996677      -0.59662813      -0.86777407
C        0.82420372       0.20146348      -0.05933167
N        1.11732533       1.48187088       0.38973915
H       -2.54370161      -0.50157206       0.60110723
H       -1.99475856       0.77893346      -0.47107415
H       -1.69221060       0.88734983       1.27033534
H       -0.49965854      -1.85241246       0.90873309
H        2.55853923      -0.57929474      -1.21735223
H        0.35239268       2.13253421       0.31235731
H        1.95501858       1.88835310       0.00652654
