11
Frame=0 idx=006990 GeodesicLength=0.0 rxn_smarts="[N:1]([c:2]1[c:3]([H:10])[n:4][c:5]([H:11])[n:6][n:7]1)([H:8])[H:9]>>[N:1]([C-:2](/[N:7]=[N+:6]=[C:5]([N+:4]#[C-:3])[H:11])[H:10])([H:8])[H:9]"
N        1.79534718      -0.17392740      -0.85733547
C        0.92761700      -0.43587870       0.11219838
C       -0.32836827       1.11348580       1.53752309
N       -1.27202829       0.92252314       0.78377355
C       -1.90416018       0.01477204       0.09519241
N       -1.33688074      -1.21913351      -0.01814005
N       -0.06004495      -1.21063049      -0.01528306
H        2.67363046       0.25610611      -0.63697599
H        1.66085518      -0.51319159      -1.79782109
H        0.73915054       1.06525399       1.09435607
H       -2.89511794       0.18062059      -0.29748789
11
Frame=1 idx=006990 GeodesicLength=0.1101647190973754 rxn_smarts="[N:1]([c:2]1[c:3]([H:10])[n:4][c:5]([H:11])[n:6][n:7]1)([H:8])[H:9]>>[N:1]([C-:2](/[N:7]=[N+:6]=[C:5]([N+:4]#[C-:3])[H:11])[H:10])([H:8])[H:9]"
N        1.80859617      -0.16756243      -0.85181086
C        0.92013909      -0.42386450       0.10247566
C       -0.33788347       1.13472218       1.50051513
N       -1.27953023       0.94727902       0.74293946
C       -1.91812392       0.01008203       0.09363672
N       -1.34396042      -1.21770961       0.00552365
N       -0.06519594      -1.19947922      -0.04965118
H        2.69726399       0.22889587      -0.61128944
H        1.67346767      -0.48411264      -1.79978347
H        0.77706862       1.02420763       1.11675038
H       -2.93184157       0.14754166      -0.24930604
11
Frame=2 idx=006990 GeodesicLength=0.22045726148323486 rxn_smarts="[N:1]([c:2]1[c:3]([H:10])[n:4][c:5]([H:11])[n:6][n:7]1)([H:8])[H:9]>>[N:1]([C-:2](/[N:7]=[N+:6]=[C:5]([N+:4]#[C-:3])[H:11])[H:10])([H:8])[H:9]"
N        1.82393193      -0.16175965      -0.84555485
C        0.91158262      -0.41107777       0.09000797
C       -0.34561007       1.16099416       1.45625110
N       -1.28954443       0.97102272       0.70169607
C       -1.93463686       0.00368203       0.09674247
N       -1.34972812      -1.21536632       0.02872367
N       -0.07209313      -1.18532892      -0.09003771
H        2.72113206       0.19933086      -0.58230476
H        1.69142755      -0.45439936      -1.80124219
H        0.81144715       0.97897540       1.14019177
H       -2.96790870       0.11392686      -0.19447355
11
Frame=3 idx=006990 GeodesicLength=0.3309939904483215 rxn_smarts="[N:1]([c:2]1[c:3]([H:10])[n:4][c:5]([H:11])[n:6][n:7]1)([H:8])[H:9]>>[N:1]([C-:2](/[N:7]=[N+:6]=[C:5]([N+:4]#[C-:3])[H:11])[H:10])([H:8])[H:9]"
N        1.84219336      -0.15731758      -0.83820996
C        0.90174280      -0.39698811       0.07393887
C       -0.35083682       1.19284588       1.40319836
N       -1.30313065       0.99370847       0.66108619
C       -1.95386706      -0.00442407       0.10579317
N       -1.35376245      -1.21175329       0.04989817
N       -0.08119785      -1.16684131      -0.13809267
H        2.74539523       0.16704107      -0.54889275
H        1.71641973      -0.42473667      -1.80188260
H        0.84084327       0.92937959       1.16389689
H       -3.00379956       0.07908602      -0.13073368
11
Frame=4 idx=006990 GeodesicLength=0.4417611199850128 rxn_smarts="[N:1]([c:2]1[c:3]([H:10])[n:4][c:5]([H:11])[n:6][n:7]1)([H:8])[H:9]>>[N:1]([C-:2](/[N:7]=[N+:6]=[C:5]([N+:4]#[C-:3])[H:11])[H:10])([H:8])[H:9]"
N        1.86358579      -0.15564695      -0.82975215
C        0.89032008      -0.38045765       0.05346303
C       -0.35316552       1.22846316       1.34270312
N       -1.32169629       1.01440338       0.62562424
C       -1.97534225      -0.01407439       0.12261306
N       -1.35570960      -1.20642252       0.06621325
N       -0.09284424      -1.14232809      -0.19435026
H        2.76861035       0.13372246      -0.51109352
H        1.75032176      -0.39911303      -1.80096961
H        0.86378009       0.87789116       1.18476698
H       -3.03786016       0.04356247      -0.05921815
11
Frame=5 idx=006990 GeodesicLength=0.5528676144091169 rxn_smarts="[N:1]([c:2]1[c:3]([H:10])[n:4][c:5]([H:11])[n:6][n:7]1)([H:8])[H:9]>>[N:1]([C-:2](/[N:7]=[N+:6]=[C:5]([N+:4]#[C-:3])[H:11])[H:10])([H:8])[H:9]"
N        1.88828645      -0.15626117      -0.81933041
C        0.87761595      -0.36126088       0.02824757
C       -0.35346796       1.26850639       1.27257958
N       -1.34545242       1.03395338       0.59424575
C       -1.99796524      -0.02490029       0.14587217
N       -1.35489733      -1.19894994       0.07533468
N       -0.10718412      -1.10991506      -0.26084119
H        2.79200156       0.09482859      -0.46662164
H        1.79344764      -0.37580580      -1.79791054
H        0.87829551       0.82502297       1.20171099
H       -3.07068002       0.00478181       0.02671304
11
Frame=6 idx=006990 GeodesicLength=0.6640001118611627 rxn_smarts="[N:1]([c:2]1[c:3]([H:10])[n:4][c:5]([H:11])[n:6][n:7]1)([H:8])[H:9]>>[N:1]([C-:2](/[N:7]=[N+:6]=[C:5]([N+:4]#[C-:3])[H:11])[H:10])([H:8])[H:9]"
N        1.91339034      -0.15984881      -0.80701042
C        0.86487644      -0.34049543       0.00166633
C       -0.35304813       1.30918156       1.19768737
N       -1.37292695       1.05148558       0.56981893
C       -2.01864996      -0.03641451       0.17299445
N       -1.35134776      -1.18978609       0.07616744
N       -0.12248332      -1.07179389      -0.33056425
H        2.81294039       0.05112311      -0.41927540
H        1.83896805      -0.35372813      -1.79244590
H        0.88540750       0.77543961       1.21239429
H       -3.09712660      -0.03516299       0.11856716
11
Frame=7 idx=006990 GeodesicLength=0.7750343851083139 rxn_smarts="[N:1]([c:2]1[c:3]([H:10])[n:4][c:5]([H:11])[n:6][n:7]1)([H:8])[H:9]>>[N:1]([C-:2](/[N:7]=[N+:6]=[C:5]([N+:4]#[C-:3])[H:11])[H:10])([H:8])[H:9]"
N        1.93668252      -0.16495661      -0.79391855
C        0.85255260      -0.31795595      -0.02487732
C       -0.35396147       1.34699639       1.12399531
N       -1.40242543       1.06688460       0.55392498
C       -2.03589000      -0.04747938       0.20061395
N       -1.34611713      -1.17868549       0.06801442
N       -0.13759483      -1.02918571      -0.39982385
H        2.82909690       0.00656502      -0.37199754
H        1.88508528      -0.33838260      -1.78431335
H        0.88803349       0.73160634       1.21675458
H       -3.11546192      -0.07540660       0.21162739
11
Frame=8 idx=006990 GeodesicLength=0.8853314657652916 rxn_smarts="[N:1]([c:2]1[c:3]([H:10])[n:4][c:5]([H:11])[n:6][n:7]1)([H:8])[H:9]>>[N:1]([C-:2](/[N:7]=[N+:6]=[C:5]([N+:4]#[C-:3])[H:11])[H:10])([H:8])[H:9]"
N        1.95611198      -0.17049204      -0.78012379
C        0.84204656      -0.29678597      -0.04692249
C       -0.35667064       1.38179291       1.05183917
N       -1.43113984       1.08074355       0.54195496
C       -2.04849673      -0.05754566       0.22351181
N       -1.33989706      -1.16711492       0.05583382
N       -0.15032226      -0.98793059      -0.46109143
H        2.84087479      -0.04133096      -0.32842403
H        1.92352194      -0.31998967      -1.77494458
H        0.88843444       0.69281029       1.21811273
H       -3.12446317      -0.11415695       0.30025382
11
Frame=9 idx=006990 GeodesicLength=0.9952513055444167 rxn_smarts="[N:1]([c:2]1[c:3]([H:10])[n:4][c:5]([H:11])[n:6][n:7]1)([H:8])[H:9]>>[N:1]([C-:2](/[N:7]=[N+:6]=[C:5]([N+:4]#[C-:3])[H:11])[H:10])([H:8])[H:9]"
N        1.97144025      -0.17593450      -0.76694412
C        0.83284948      -0.27716835      -0.06509583
C       -0.36079071       1.41243014       0.98412518
N       -1.45775558       1.09324151       0.53420413
C       -2.05736778      -0.06612519       0.24277942
N       -1.33375247      -1.15514458       0.04207633
N       -0.16111634      -0.94924936      -0.51441629
H        2.84748511      -0.08358407      -0.29010625
H        1.95576878      -0.30502720      -1.76472674
H        0.88902325       0.65614218       1.21858398
H       -3.12578399      -0.14958056       0.37952021
11
Frame=10 idx=006990 GeodesicLength=1.1049092881668565 rxn_smarts="[N:1]([c:2]1[c:3]([H:10])[n:4][c:5]([H:11])[n:6][n:7]1)([H:8])[H:9]>>[N:1]([C-:2](/[N:7]=[N+:6]=[C:5]([N+:4]#[C-:3])[H:11])[H:10])([H:8])[H:9]"
N        1.98394583      -0.17987556      -0.75347136
C        0.82481304      -0.25867834      -0.07953189
C       -0.36700335       1.44141360       0.91617247
N       -1.48327630       1.10484455       0.52751257
C       -2.06382155      -0.07377844       0.25711630
N       -1.32745168      -1.14318636       0.02755430
N       -0.16960258      -0.91315112      -0.56113926
H        2.85125452      -0.13065560      -0.25504259
H        1.98242377      -0.28525879      -1.75387289
H        0.88892803       0.62203318       1.21864992
H       -3.12020973      -0.18370712       0.45605244
11
Frame=11 idx=006990 GeodesicLength=1.214413108055542 rxn_smarts="[N:1]([c:2]1[c:3]([H:10])[n:4][c:5]([H:11])[n:6][n:7]1)([H:8])[H:9]>>[N:1]([C-:2](/[N:7]=[N+:6]=[C:5]([N+:4]#[C-:3])[H:11])[H:10])([H:8])[H:9]"
N        1.99363481      -0.18346559      -0.74081020
C        0.81747640      -0.24159501      -0.09117473
C       -0.37423523       1.46747945       0.85098293
N       -1.50648428       1.11577631       0.52276110
C       -2.06820265      -0.08024574       0.26940481
N       -1.32159098      -1.13135753       0.01407682
N       -0.17669919      -0.88021360      -0.60178345
H        2.85160952      -0.17105419      -0.22448947
H        2.00477740      -0.26791203      -1.74283168
H        0.88969127       0.58681381       1.21980158
H       -3.10997706      -0.21422587       0.52406231
11
Frame=12 idx=006990 GeodesicLength=1.324036935385939 rxn_smarts="[N:1]([c:2]1[c:3]([H:10])[n:4][c:5]([H:11])[n:6][n:7]1)([H:8])[H:9]>>[N:1]([C-:2](/[N:7]=[N+:6]=[C:5]([N+:4]#[C-:3])[H:11])[H:10])([H:8])[H:9]"
N        2.00169223      -0.18590779      -0.72791503
C        0.81053646      -0.22492219      -0.10077956
C       -0.38341165       1.49264655       0.78454535
N       -1.52869384       1.12626577       0.51858584
C       -2.07150936      -0.08592688       0.27894433
N       -1.31603338      -1.11945524       0.00015767
N       -0.18242898      -0.84910386      -0.63873433
H        2.84969336      -0.21312339      -0.19610134
H        2.02455712      -0.24837373      -1.73107268
H        0.89010290       0.55143200       1.22149390
H       -3.09450485      -0.24353123       0.59087584
11
Frame=13 idx=006990 GeodesicLength=1.4337317616101597 rxn_smarts="[N:1]([c:2]1[c:3]([H:10])[n:4][c:5]([H:11])[n:6][n:7]1)([H:8])[H:9]>>[N:1]([C-:2](/[N:7]=[N+:6]=[C:5]([N+:4]#[C-:3])[H:11])[H:10])([H:8])[H:9]"
N        2.00818131      -0.18645050      -0.71491711
C        0.80398226      -0.20856495      -0.10818300
C       -0.39451868       1.51689437       0.71644758
N       -1.54970178       1.13627763       0.51463381
C       -2.07381952      -0.09105496       0.28644057
N       -1.31052751      -1.10789024      -0.01266382
N       -0.18663850      -0.82058705      -0.67142742
H        2.84551738      -0.25762513      -0.17057992
H        2.04152276      -0.22544676      -1.71869384
H        0.89050993       0.51527814       1.22422486
H       -3.07450764      -0.27083054       0.65471829
11
Frame=14 idx=006990 GeodesicLength=1.543487358756812 rxn_smarts="[N:1]([c:2]1[c:3]([H:10])[n:4][c:5]([H:11])[n:6][n:7]1)([H:8])[H:9]>>[N:1]([C-:2](/[N:7]=[N+:6]=[C:5]([N+:4]#[C-:3])[H:11])[H:10])([H:8])[H:9]"
N        2.01325130      -0.18589110      -0.70197451
C        0.79759140      -0.19260362      -0.11380028
C       -0.40721097       1.53987297       0.64712119
N       -1.56909732       1.14606620       0.51079620
C       -2.07530730      -0.09540399       0.29265938
N       -1.30537106      -1.09659451      -0.02426882
N       -0.18972804      -0.79471043      -0.70045442
H        2.83927845      -0.30017009      -0.14792837
H        2.05626472      -0.20132025      -1.70575445
H        0.89112934       0.47621468       1.22851458
H       -3.05080052      -0.29545985       0.71508950
11
Frame=15 idx=006990 GeodesicLength=1.6532547474503505 rxn_smarts="[N:1]([c:2]1[c:3]([H:10])[n:4][c:5]([H:11])[n:6][n:7]1)([H:8])[H:9]>>[N:1]([C-:2](/[N:7]=[N+:6]=[C:5]([N+:4]#[C-:3])[H:11])[H:10])([H:8])[H:9]"
N        2.01696831      -0.18405591      -0.68919350
C        0.79140768      -0.17738445      -0.11734577
C       -0.42121718       1.56137351       0.57604859
N       -1.58658681       1.15574273       0.50664560
C       -2.07605407      -0.09895258       0.29793152
N       -1.30056024      -1.08590643      -0.03366726
N       -0.19165389      -0.77229124      -0.72538295
H        2.83155666      -0.33990339      -0.12851921
H        2.06842624      -0.17503442      -1.69238783
H        0.89225069       0.43290372       1.23476078
H       -3.02453739      -0.31649152       0.77111002
11
Frame=16 idx=006990 GeodesicLength=1.7631204702329049 rxn_smarts="[N:1]([c:2]1[c:3]([H:10])[n:4][c:5]([H:11])[n:6][n:7]1)([H:8])[H:9]>>[N:1]([C-:2](/[N:7]=[N+:6]=[C:5]([N+:4]#[C-:3])[H:11])[H:10])([H:8])[H:9]"
N        2.01964326      -0.18022848      -0.67620257
C        0.78533358      -0.16238576      -0.11887685
C       -0.43702045       1.58173481       0.50160283
N       -1.60233894       1.16528448       0.50239507
C       -2.07627196      -0.10178689       0.30231112
N       -1.29598977      -1.07577153      -0.04111400
N       -0.19231241      -0.75305849      -0.74665771
H        2.82244230      -0.37891088      -0.11219498
H        2.07849121      -0.14564863      -1.67817700
H        0.89374822       0.38500286       1.24280217
H       -2.99572504      -0.33423148       0.82411191
