13
Frame=0 idx=005540 GeodesicLength=0.0 rxn_smarts="[O:1]=[C:2]([C:3]([C@@:4]1([H:10])[C:5]([H:11])([H:12])[N:6]1[H:13])([H:8])[H:9])[H:7]>>[O+:1](=[C-:2][H:7])[C:3]([C@@:4]1([H:10])[C:5]([H:11])([H:12])[N:6]1[H:13])([H:8])[H:9]"
O        1.53173288       0.98641445       0.89245498
C        2.24499084       0.79367617      -0.16459539
C        0.99299600      -0.46156609       0.09428478
C       -0.44169581      -0.30213778       0.52368462
C       -1.41649433       0.36649738      -0.35317122
N       -1.35703694      -1.09079065      -0.29276598
H        1.98070318       1.56333075      -0.94916950
H        1.53387447      -1.27039744       0.56460928
H        0.98206242      -0.53845297      -1.00356036
H       -0.60984085      -0.25383318       1.59313316
H       -1.08521272       0.79917204      -1.29077564
H       -2.24677104       0.87823161       0.11872601
H       -2.10930811      -1.47014424       0.26714526
13
Frame=1 idx=005540 GeodesicLength=0.04645416363984131 rxn_smarts="[O:1]=[C:2]([C:3]([C@@:4]1([H:10])[C:5]([H:11])([H:12])[N:6]1[H:13])([H:8])[H:9])[H:7]>>[O+:1](=[C-:2][H:7])[C:3]([C@@:4]1([H:10])[C:5]([H:11])([H:12])[N:6]1[H:13])([H:8])[H:9]"
O        1.53891004       0.98668962       0.88921879
C        2.23659036       0.79517955      -0.17411741
C        0.98994916      -0.46334327       0.08984636
C       -0.44354144      -0.30351901       0.52152392
C       -1.42102051       0.36154025      -0.35516842
N       -1.36390832      -1.09559088      -0.28593324
H        2.02440237       1.60497979      -0.93022673
H        1.52550891      -1.27668159       0.56062832
H        0.97883551      -0.55337149      -1.00664834
H       -0.60894711      -0.25019988       1.59130389
H       -1.09338403       0.78731571      -1.29715988
H       -2.24905994       0.87682782       0.11688229
H       -2.11433500      -1.46982662       0.27985047
13
Frame=2 idx=005540 GeodesicLength=0.09288924736775717 rxn_smarts="[O:1]=[C:2]([C:3]([C@@:4]1([H:10])[C:5]([H:11])([H:12])[N:6]1[H:13])([H:8])[H:9])[H:7]>>[O+:1](=[C-:2][H:7])[C:3]([C@@:4]1([H:10])[C:5]([H:11])([H:12])[N:6]1[H:13])([H:8])[H:9]"
O        1.54617555       0.98696669       0.88528953
C        2.22655146       0.79784192      -0.18542986
C        0.98664650      -0.46507885       0.08495232
C       -0.44555450      -0.30493476       0.51924022
C       -1.42598445       0.35623581      -0.35720639
N       -1.37107238      -1.10064434      -0.27871134
H        2.07219235       1.64688112      -0.90835927
H        1.51733128      -1.28248442       0.55634642
H        0.97502629      -0.56899755      -1.00995711
H       -0.60796036      -0.24628784       1.58933814
H       -1.10221018       0.77486171      -1.30368158
H       -2.25165737       0.87522058       0.11501178
H       -2.11948420      -1.46958006       0.29316715
13
Frame=3 idx=005540 GeodesicLength=0.13912028554640382 rxn_smarts="[O:1]=[C:2]([C:3]([C@@:4]1([H:10])[C:5]([H:11])([H:12])[N:6]1[H:13])([H:8])[H:9])[H:7]>>[O+:1](=[C-:2][H:7])[C:3]([C@@:4]1([H:10])[C:5]([H:11])([H:12])[N:6]1[H:13])([H:8])[H:9]"
O        1.55313967       0.98774545       0.88037808
C        2.21463984       0.80201194      -0.19859268
C        0.98306528      -0.46659911       0.07963196
C       -0.44779847      -0.30644839       0.51684884
C       -1.43153110       0.35061700      -0.35912130
N       -1.37846271      -1.10592985      -0.27130338
H        2.12499040       1.68785253      -0.88380064
H        1.50946861      -1.28747774       0.55193240
H        0.97064156      -0.58520620      -1.01343212
H       -0.60693520      -0.24236865       1.58726743
H       -1.11177938       0.76221279      -1.30999770
H       -2.25478029       0.87322103       0.11341800
H       -2.12465821      -1.46963079       0.30677111
13
Frame=4 idx=005540 GeodesicLength=0.18508869238810996 rxn_smarts="[O:1]=[C:2]([C:3]([C@@:4]1([H:10])[C:5]([H:11])([H:12])[N:6]1[H:13])([H:8])[H:9])[H:7]>>[O+:1](=[C-:2][H:7])[C:3]([C@@:4]1([H:10])[C:5]([H:11])([H:12])[N:6]1[H:13])([H:8])[H:9]"
O        1.55978221       0.98910624       0.87450217
C        2.20041109       0.80817704      -0.21378240
C        0.97917571      -0.46774611       0.07379254
C       -0.45028805      -0.30804307       0.51432610
C       -1.43774460       0.34459854      -0.36092505
N       -1.38607311      -1.11151747      -0.26364046
H        2.18349825       1.72711671      -0.85611699
H        1.50201564      -1.29148712       0.54720371
H        0.96561087      -0.60176082      -1.01713581
H       -0.60584588      -0.23842279       1.58506352
H       -1.12227415       0.74921682      -1.31617938
H       -2.25845301       0.87079169       0.11211536
H       -2.12981497      -1.47002965       0.32077669
13
Frame=5 idx=005540 GeodesicLength=0.2304535312981862 rxn_smarts="[O:1]=[C:2]([C:3]([C@@:4]1([H:10])[C:5]([H:11])([H:12])[N:6]1[H:13])([H:8])[H:9])[H:7]>>[O+:1](=[C-:2][H:7])[C:3]([C@@:4]1([H:10])[C:5]([H:11])([H:12])[N:6]1[H:13])([H:8])[H:9]"
O        1.56579529       0.99152227       0.86747788
C        2.18357590       0.81685692      -0.23104034
C        0.97497387      -0.46825109       0.06741051
C       -0.45305428      -0.30971685       0.51167137
C       -1.44476752       0.33820007      -0.36247867
N       -1.39380125      -1.11740593      -0.25587782
H        2.24844046       1.76301679      -0.82531848
H        1.49513542      -1.29413041       0.54217676
H        0.96000533      -0.61838133      -1.02106123
H       -0.60472530      -0.23458225       1.58273090
H       -1.13382696       0.73619673      -1.32195562
H       -2.26294864       0.86769471       0.11132218
H       -2.13480233      -1.47101962       0.33494255
13
Frame=6 idx=005540 GeodesicLength=0.27564570536557037 rxn_smarts="[O:1]=[C:2]([C:3]([C@@:4]1([H:10])[C:5]([H:11])([H:12])[N:6]1[H:13])([H:8])[H:9])[H:7]>>[O+:1](=[C-:2][H:7])[C:3]([C@@:4]1([H:10])[C:5]([H:11])([H:12])[N:6]1[H:13])([H:8])[H:9]"
O        1.57106290       0.99526012       0.85925221
C        2.16340651       0.82891879      -0.25066426
C        0.97030789      -0.46766040       0.06012784
C       -0.45619791      -0.31130734       0.50880549
C       -1.45301214       0.33110256      -0.36382649
N       -1.40169094      -1.12386756      -0.24769664
H        2.32260690       1.79415812      -0.79010187
H        1.48889503      -1.29497588       0.53622330
H        0.95353548      -0.63431701      -1.02558323
H       -0.60353109      -0.23056952       1.58020990
H       -1.14723578       0.72254837      -1.32762914
H       -2.26867500       0.86357646       0.11103229
H       -2.13947186      -1.47286671       0.34985058
13
Frame=7 idx=005540 GeodesicLength=0.3200192664284794 rxn_smarts="[O:1]=[C:2]([C:3]([C@@:4]1([H:10])[C:5]([H:11])([H:12])[N:6]1[H:13])([H:8])[H:9])[H:7]>>[O+:1](=[C-:2][H:7])[C:3]([C@@:4]1([H:10])[C:5]([H:11])([H:12])[N:6]1[H:13])([H:8])[H:9]"
O        1.57479294       1.00145591       0.84954250
C        2.13937289       0.84543657      -0.27257537
C        0.96515271      -0.46532883       0.05190993
C       -0.45976073      -0.31277627       0.50573054
C       -1.46277490       0.32331804      -0.36472874
N       -1.40944020      -1.13095155      -0.23940321
H        2.40737114       1.81681922      -0.75059047
H        1.48359714      -1.29321504       0.52933882
H        0.94632783      -0.64882863      -1.03073749
H       -0.60230515      -0.22666912       1.57752095
H       -1.16282236       0.70890433      -1.33270252
H       -2.27613361       0.85798159       0.11167451
H       -2.14337771      -1.47614623       0.36502056
13
Frame=8 idx=005540 GeodesicLength=0.3638613930845338 rxn_smarts="[O:1]=[C:2]([C:3]([C@@:4]1([H:10])[C:5]([H:11])([H:12])[N:6]1[H:13])([H:8])[H:9])[H:7]>>[O+:1](=[C-:2][H:7])[C:3]([C@@:4]1([H:10])[C:5]([H:11])([H:12])[N:6]1[H:13])([H:8])[H:9]"
O        1.57654046       1.01093492       0.83811054
C        2.10978750       0.86875462      -0.29745520
C        0.95933282      -0.46003724       0.04203777
C       -0.46386158      -0.31377463       0.50224575
C       -1.47479779       0.31425490      -0.36516502
N       -1.41693197      -1.13906382      -0.23050847
H        2.50738487       1.82607240      -0.70395601
H        1.47969195      -1.28741705       0.52030487
H        0.93805618      -0.66033103      -1.03722031
H       -0.60093489      -0.22231289       1.57442058
H       -1.18200247       0.69427722      -1.33747369
H       -2.28623256       0.85000377       0.11332255
H       -2.14603250      -1.48136117       0.38133664
13
Frame=9 idx=005540 GeodesicLength=0.4039050623696706 rxn_smarts="[O:1]=[C:2]([C:3]([C@@:4]1([H:10])[C:5]([H:11])([H:12])[N:6]1[H:13])([H:8])[H:9])[H:7]>>[O+:1](=[C-:2][H:7])[C:3]([C@@:4]1([H:10])[C:5]([H:11])([H:12])[N:6]1[H:13])([H:8])[H:9]"
O        1.57584114       1.02488683       0.82652543
C        2.07552343       0.89996193      -0.32279325
C        0.95359757      -0.45106511       0.03157755
C       -0.46804336      -0.31441731       0.49860224
C       -1.48806931       0.30486576      -0.36481459
N       -1.42306970      -1.14751526      -0.22258822
H        2.61370425       1.81435161      -0.65564263
H        1.47782205      -1.27703862       0.51013136
H        0.93027432      -0.66757731      -1.04415869
H       -0.59957943      -0.21877850       1.57124077
H       -1.20298876       0.68109893      -1.34086102
H       -2.29825571       0.83995497       0.11654734
H       -2.14675649      -1.48872794       0.39623371
13
Frame=10 idx=005540 GeodesicLength=0.4394859335120275 rxn_smarts="[O:1]=[C:2]([C:3]([C@@:4]1([H:10])[C:5]([H:11])([H:12])[N:6]1[H:13])([H:8])[H:9])[H:7]>>[O+:1](=[C-:2][H:7])[C:3]([C@@:4]1([H:10])[C:5]([H:11])([H:12])[N:6]1[H:13])([H:8])[H:9]"
O        1.57312888       1.04308847       0.81638597
C        2.03782009       0.93932682      -0.34636286
C        0.94854796      -0.43794876       0.02094294
C       -0.47179335      -0.31440618       0.49482414
C       -1.50174544       0.29556905      -0.36383933
N       -1.42710133      -1.15587834      -0.21606600
H        2.71826314       1.77747714      -0.60844827
H        1.47817908      -1.26206166       0.49882375
H        0.92406412      -0.66920806      -1.05134410
H       -0.59808554      -0.21599984       1.56798219
H       -1.22478954       0.66981010      -1.34297846
H       -2.31151240       0.82814340       0.12103097
H       -2.14497567      -1.49791215       0.40904905
13
Frame=11 idx=005540 GeodesicLength=0.4719992798867742 rxn_smarts="[O:1]=[C:2]([C:3]([C@@:4]1([H:10])[C:5]([H:11])([H:12])[N:6]1[H:13])([H:8])[H:9])[H:7]>>[O+:1](=[C-:2][H:7])[C:3]([C@@:4]1([H:10])[C:5]([H:11])([H:12])[N:6]1[H:13])([H:8])[H:9]"
O        1.57006491       1.06348195       0.81001006
C        1.99987195       0.98420736      -0.36491081
C        0.94495321      -0.42178422       0.01126781
C       -0.47446052      -0.31370856       0.49112567
C       -1.51410870       0.28730312      -0.36262602
N       -1.42856059      -1.16331178      -0.21155446
H        2.80761197       1.71846895      -0.56819060
H        1.48029346      -1.24445085       0.48740868
H        0.92074845      -0.66551625      -1.05791742
H       -0.59641376      -0.21411982       1.56483413
H       -1.24497741       0.66118095      -1.34410036
H       -2.32425475       0.81597188       0.12590031
H       -2.14076821      -1.50772274       0.41875300
13
Frame=12 idx=005540 GeodesicLength=0.5042438749647336 rxn_smarts="[O:1]=[C:2]([C:3]([C@@:4]1([H:10])[C:5]([H:11])([H:12])[N:6]1[H:13])([H:8])[H:9])[H:7]>>[O+:1](=[C-:2][H:7])[C:3]([C@@:4]1([H:10])[C:5]([H:11])([H:12])[N:6]1[H:13])([H:8])[H:9]"
O        1.56864303       1.08274063       0.80862483
C        1.96499981       1.02943847      -0.37640160
C        0.94315639      -0.40516263       0.00382260
C       -0.47574396      -0.31271278       0.48779406
C       -1.52348855       0.28095067      -0.36154903
N       -1.42770218      -1.16897237      -0.20935769
H        2.87136311       1.64918285      -0.54026727
H        1.48301065      -1.22748705       0.47756997
H        0.92099058      -0.65917838      -1.06259855
H       -0.59481824      -0.21332972       1.56193182
H       -1.26073932       0.65575826      -1.34433036
H       -2.33453743       0.80523681       0.13019727
H       -2.13513390      -1.51646475       0.42456395
13
Frame=13 idx=005540 GeodesicLength=0.5376671843722872 rxn_smarts="[O:1]=[C:2]([C:3]([C@@:4]1([H:10])[C:5]([H:11])([H:12])[N:6]1[H:13])([H:8])[H:9])[H:7]>>[O+:1](=[C-:2][H:7])[C:3]([C@@:4]1([H:10])[C:5]([H:11])([H:12])[N:6]1[H:13])([H:8])[H:9]"
O        1.56962777       1.09930502       0.81110923
C        1.93495434       1.07154119      -0.38179232
C        0.94288965      -0.38993376      -0.00147623
C       -0.47588049      -0.31187855       0.48489381
C       -1.52984714       0.27641768      -0.36087681
N       -1.42577500      -1.17303925      -0.20878701
H        2.91116705       1.58082944      -0.52352716
H        1.48542773      -1.21319199       0.46978227
H        0.92404007      -0.65265435      -1.06546985
H       -0.59326823      -0.21335647       1.55941829
H       -1.27185254       0.65265322      -1.34435152
H       -2.34188472       0.79670036       0.13350768
H       -2.12959849      -1.52339253       0.42756963
13
Frame=14 idx=005540 GeodesicLength=0.5724095898287345 rxn_smarts="[O:1]=[C:2]([C:3]([C@@:4]1([H:10])[C:5]([H:11])([H:12])[N:6]1[H:13])([H:8])[H:9])[H:7]>>[O+:1](=[C-:2][H:7])[C:3]([C@@:4]1([H:10])[C:5]([H:11])([H:12])[N:6]1[H:13])([H:8])[H:9]"
O        1.57245010       1.11346576       0.81595696
C        1.90895805       1.11033830      -0.38287254
C        0.94361866      -0.37619150      -0.00535474
C       -0.47522245      -0.31119168       0.48225226
C       -1.53403932       0.27311463      -0.36060675
N       -1.42333604      -1.17601394      -0.20906878
H        2.93409183       1.51615579      -0.51424068
H        1.48734098      -1.20137130       0.46344100
H        0.92886720      -0.64652900      -1.06712531
H       -0.59168355      -0.21374861       1.55710314
H       -1.27970454       0.65076214      -1.34447527
H       -2.34698235       0.78995961       0.13592398
H       -2.12435857      -1.52875021       0.42906673
13
Frame=15 idx=005540 GeodesicLength=0.6080060420629835 rxn_smarts="[O:1]=[C:2]([C:3]([C@@:4]1([H:10])[C:5]([H:11])([H:12])[N:6]1[H:13])([H:8])[H:9])[H:7]>>[O+:1](=[C-:2][H:7])[C:3]([C@@:4]1([H:10])[C:5]([H:11])([H:12])[N:6]1[H:13])([H:8])[H:9]"
O        1.57662125       1.12556283       0.82206857
C        1.88644150       1.14572211      -0.38099846
C        0.94501208      -0.36401688      -0.00825024
C       -0.47401156      -0.31071551       0.47977434
C       -1.53661707       0.27070735      -0.36067655
N       -1.42076467      -1.17819588      -0.20980921
H        2.94477989       1.45682306      -0.50996867
H        1.48869915      -1.19183135       0.45826359
H        0.93482636      -0.64133783      -1.06788537
H       -0.59003133      -0.21436501       1.55489302
H       -1.28510555       0.64958890      -1.34476639
H       -2.35025008       0.78478432       0.13763121
H       -2.11959997      -1.53272612       0.42972416
13
Frame=16 idx=005540 GeodesicLength=0.6444787682594165 rxn_smarts="[O:1]=[C:2]([C:3]([C@@:4]1([H:10])[C:5]([H:11])([H:12])[N:6]1[H:13])([H:8])[H:9])[H:7]>>[O+:1](=[C-:2][H:7])[C:3]([C@@:4]1([H:10])[C:5]([H:11])([H:12])[N:6]1[H:13])([H:8])[H:9]"
O        1.58255082       1.13542578       0.82966119
C        1.86613170       1.17858290      -0.37651338
C        0.94690791      -0.35325216      -0.01014013
C       -0.47243587      -0.31042579       0.47751606
C       -1.53784820       0.26901607      -0.36109069
N       -1.41813959      -1.17975585      -0.21091820
H        2.94596691       1.40270991      -0.51065230
H        1.48951716      -1.18434816       0.45415007
H        0.94171397      -0.63704338      -1.06771190
H       -0.58851276      -0.21509819       1.55283896
H       -1.28836407       0.64891225      -1.34527728
H       -2.35210513       0.78086682       0.13851198
H       -2.11538285      -1.53559021       0.42962563
