11
Frame=0 idx=001682 GeodesicLength=0.0 rxn_smarts="[O:1]([C@@:2]1([H:8])[C:3]([H:9])([H:10])[O:4]/[C:5]1=[N:6]\[H:11])[H:7]>>[C@:2]1([C:5]#[N:6])([H:8])[C:3]([H:9])([H:10])[O:4]1.[O:1]([H:7])[H:11]"
O       -0.55388273       1.16128250       0.95109633
C        0.24903505       0.30065268      -0.22404667
C        1.05025516      -0.92093991       0.12018092
O        0.50844044      -1.53834860      -1.01011055
C       -0.87070889      -0.43236546      -0.80498897
N       -2.04833322      -0.46107260      -0.85333395
H       -0.50330844       2.11637299       0.82205628
H        0.73079300       1.07280416      -0.81929899
H        2.13453120      -0.78153005       0.07452914
H        0.76430620      -1.36912934       1.08177661
H       -1.46112777       0.85227367       0.66213990
11
Frame=1 idx=001682 GeodesicLength=0.1263905178086271 rxn_smarts="[O:1]([C@@:2]1([H:8])[C:3]([H:9])([H:10])[O:4]/[C:5]1=[N:6]\[H:11])[H:7]>>[C@:2]1([C:5]#[N:6])([H:8])[C:3]([H:9])([H:10])[O:4]1.[O:1]([H:7])[H:11]"
O       -0.55918466       1.17314958       0.95131786
C        0.25797979       0.29235652      -0.22672353
C        1.05854923      -0.92646992       0.12311303
O        0.51413970      -1.52350015      -1.01877547
C       -0.86952729      -0.43165112      -0.80855401
N       -2.04992376      -0.45011649      -0.82407690
H       -0.51229255       2.12697519       0.81418458
H        0.73787305       1.06833524      -0.81827434
H        2.14290042      -0.79128304       0.07728530
H        0.76648728      -1.38434549       1.07728856
H       -1.48700120       0.84654969       0.65321492
11
Frame=2 idx=001682 GeodesicLength=0.25283026483760823 rxn_smarts="[O:1]([C@@:2]1([H:8])[C:3]([H:9])([H:10])[O:4]/[C:5]1=[N:6]\[H:11])[H:7]>>[C@:2]1([C:5]#[N:6])([H:8])[C:3]([H:9])([H:10])[O:4]1.[O:1]([H:7])[H:11]"
O       -0.56403501       1.18547766       0.95196307
C        0.26688372       0.28396918      -0.22921636
C        1.06694952      -0.93207137       0.12597712
O        0.51916920      -1.50933664      -1.02638599
C       -0.86860776      -0.43106758      -0.81116885
N       -2.05084328      -0.43834870      -0.79747900
H       -0.52156648       2.13789557       0.80608967
H        0.74468899       1.06377352      -0.81718980
H        2.15133919      -0.80124245       0.07899419
H        0.76966536      -1.39923615       1.07302314
H       -1.51364345       0.84018697       0.64539281
11
Frame=3 idx=001682 GeodesicLength=0.3793082673666138 rxn_smarts="[O:1]([C@@:2]1([H:8])[C:3]([H:9])([H:10])[O:4]/[C:5]1=[N:6]\[H:11])[H:7]>>[C@:2]1([C:5]#[N:6])([H:8])[C:3]([H:9])([H:10])[O:4]1.[O:1]([H:7])[H:11]"
O       -0.56841924       1.19829217       0.95300588
C        0.27579426       0.27551172      -0.23153706
C        1.07546638      -0.93774761       0.12876892
O        0.52358895      -1.49581602      -1.03304643
C       -0.86787637      -0.43054387      -0.81292804
N       -2.05123870      -0.42589506      -0.77330749
H       -0.53111656       2.14913322       0.79777095
H        0.75132232       1.05914608      -0.81602219
H        2.15986017      -0.81143127       0.07974253
H        0.77375093      -1.41385078       1.06895422
H       -1.54113213       0.83320142       0.63859871
11
Frame=4 idx=001682 GeodesicLength=0.5058208578760315 rxn_smarts="[O:1]([C@@:2]1([H:8])[C:3]([H:9])([H:10])[O:4]/[C:5]1=[N:6]\[H:11])[H:7]>>[C@:2]1([C:5]#[N:6])([H:8])[C:3]([H:9])([H:10])[O:4]1.[O:1]([H:7])[H:11]"
O       -0.57232608       1.21161164       0.95442896
C        0.28474966       0.26700002      -0.23369309
C        1.08410856      -0.94350194       0.13148214
O        0.52744847      -1.48289979      -1.03884684
C       -0.86727395      -0.43001869      -0.81390540
N       -2.05120993      -0.41288417      -0.75134105
H       -0.54091284       2.16068198       0.78925160
H        0.75783787       1.05447421      -0.81474807
H        2.16847004      -0.82186922       0.07959597
H        0.77867156      -1.42823199       1.06505544
H       -1.56956337       0.82563794       0.63272034
11
Frame=5 idx=001682 GeodesicLength=0.6323072193394861 rxn_smarts="[O:1]([C@@:2]1([H:8])[C:3]([H:9])([H:10])[O:4]/[C:5]1=[N:6]\[H:11])[H:7]>>[C@:2]1([C:5]#[N:6])([H:8])[C:3]([H:9])([H:10])[O:4]1.[O:1]([H:7])[H:11]"
O       -0.57573479       1.22546894       0.95621039
C        0.29378912       0.25844983      -0.23569032
C        1.09288554      -0.94934076       0.13411244
O        0.53079003      -1.47055323      -1.04386166
C       -0.86674963      -0.42943142      -0.81415650
N       -2.05084764      -0.39940247      -0.73139722
H       -0.55096325       2.17253667       0.78052836
H        0.76430207       1.04977581      -0.81334918
H        2.17717588      -0.83258370       0.07860982
H        0.78436292      -1.44241772       1.06130402
H       -1.59901026       0.81749805       0.62768984
11
Frame=6 idx=001682 GeodesicLength=0.7587551906705806 rxn_smarts="[O:1]([C@@:2]1([H:8])[C:3]([H:9])([H:10])[O:4]/[C:5]1=[N:6]\[H:11])[H:7]>>[C@:2]1([C:5]#[N:6])([H:8])[C:3]([H:9])([H:10])[O:4]1.[O:1]([H:7])[H:11]"
O       -0.57862020       1.23989289       0.95833596
C        0.30294666       0.24987260      -0.23753127
C        1.10180631      -0.95527087       0.13665375
O        0.53364667      -1.45874550      -1.04815396
C       -0.86626088      -0.42872896      -0.81372065
N       -2.05020527      -0.38552684      -0.71330256
H       -0.56126661       2.18469444       0.77161015
H        0.77076980       1.04506310      -0.81180747
H        2.18598018      -0.84360031       0.07682315
H        0.79077527      -1.45644062       1.05767806
H       -1.62957193       0.80879006       0.62341484
11
Frame=7 idx=001682 GeodesicLength=0.8851485903178696 rxn_smarts="[O:1]([C@@:2]1([H:8])[C:3]([H:9])([H:10])[O:4]/[C:5]1=[N:6]\[H:11])[H:7]>>[C@:2]1([C:5]#[N:6])([H:8])[C:3]([H:9])([H:10])[O:4]1.[O:1]([H:7])[H:11]"
O       -0.58094478       1.25492393       0.96078966
C        0.31225777       0.24127983      -0.23921705
C        1.11088003      -0.96130083       0.13910103
O        0.53604372      -1.44744935      -1.05177500
C       -0.86577002      -0.42785808      -0.81262350
N       -2.04932347      -0.37129708      -0.69691353
H       -0.57184534       2.19715433       0.76248385
H        0.77729787       1.04034531      -0.81010809
H        2.19488492      -0.85495038       0.07426603
H        0.79786527      -1.47032812       1.05415937
H       -1.66134597       0.79948046       0.61983723
11
Frame=8 idx=001682 GeodesicLength=1.011497221786634 rxn_smarts="[O:1]([C@@:2]1([H:8])[C:3]([H:9])([H:10])[O:4]/[C:5]1=[N:6]\[H:11])[H:7]>>[C@:2]1([C:5]#[N:6])([H:8])[C:3]([H:9])([H:10])[O:4]1.[O:1]([H:7])[H:11]"
O       -0.58265655       1.27060757       0.96355816
C        0.32175783       0.23268123      -0.24074738
C        1.12011672      -0.96743982       0.14144951
O        0.53799781      -1.43664101      -1.05476445
C       -0.86524454      -0.42676770      -0.81087663
N       -2.04822467      -0.35672916      -0.68211512
H       -0.58272864       2.20991719       0.75312964
H        0.78394077       1.03562701      -0.80823980
H        2.20389106      -0.86666780       0.07095749
H        0.80560024      -1.48410157       1.05073410
H       -1.69445004       0.78951405       0.61691448
11
Frame=9 idx=001682 GeodesicLength=1.1377549746852211 rxn_smarts="[O:1]([C@@:2]1([H:8])[C:3]([H:9])([H:10])[O:4]/[C:5]1=[N:6]\[H:11])[H:7]>>[C@:2]1([C:5]#[N:6])([H:8])[C:3]([H:9])([H:10])[O:4]1.[O:1]([H:7])[H:11]"
O       -0.58369171       1.28702267       0.96660329
C        0.33149029       0.22409132      -0.24212742
C        1.12952417      -0.97370030       0.14369964
O        0.53952549      -1.42630324      -1.05714906
C       -0.86464616      -0.42539992      -0.80848564
N       -2.04695588      -0.34174294      -0.66882952
H       -0.59400866       2.22299345       0.74348534
H        0.79076873       1.03091066      -0.80620317
H        2.21299583      -0.87880009       0.06692184
H        0.81393923      -1.49777463       1.04739632
H       -1.72894135       0.77870302       0.61468837
11
Frame=10 idx=001682 GeodesicLength=1.2640140089028435 rxn_smarts="[O:1]([C@@:2]1([H:8])[C:3]([H:9])([H:10])[O:4]/[C:5]1=[N:6]\[H:11])[H:7]>>[C@:2]1([C:5]#[N:6])([H:8])[C:3]([H:9])([H:10])[O:4]1.[O:1]([H:7])[H:11]"
O       -0.58395744       1.30423204       0.96991434
C        0.34149241       0.21551760      -0.24335597
C        1.13911420      -0.98009058       0.14584914
O        0.54062378      -1.41642288      -1.05894393
C       -0.86395085      -0.42370789      -0.80543299
N       -2.04550634      -0.32628695      -0.65702427
H       -0.60572111       2.23638727       0.73351279
H        0.79783517       1.02619076      -0.80399936
H        2.22219874      -0.89138575       0.06215671
H        0.82286976      -1.51135093       1.04414773
H       -1.76499832       0.76691733       0.61317580
11
Frame=11 idx=001682 GeodesicLength=1.3902891051374304 rxn_smarts="[O:1]([C@@:2]1([H:8])[C:3]([H:9])([H:10])[O:4]/[C:5]1=[N:6]\[H:11])[H:7]>>[C@:2]1([C:5]#[N:6])([H:8])[C:3]([H:9])([H:10])[O:4]1.[O:1]([H:7])[H:11]"
O       -0.58335169       1.32233653       0.97344895
C        0.35180957       0.20697337      -0.24444022
C        1.14889584      -0.98662120       0.14790266
O        0.54129070      -1.40699647      -1.06015045
C       -0.86312771      -0.42163970      -0.80169642
N       -2.04389902      -0.31019076      -0.64670340
H       -0.61796142       2.25010878       0.72314234
H        0.80521032       1.02146030      -0.80164615
H        2.23149452      -0.90447650       0.05666799
H        0.83236866      -1.52482332       1.04100303
H       -1.80272979       0.75386897       0.61247166
11
Frame=12 idx=001682 GeodesicLength=1.5165967358741665 rxn_smarts="[O:1]([C@@:2]1([H:8])[C:3]([H:9])([H:10])[O:4]/[C:5]1=[N:6]\[H:11])[H:7]>>[C@:2]1([C:5]#[N:6])([H:8])[C:3]([H:9])([H:10])[O:4]1.[O:1]([H:7])[H:11]"
O       -0.58175253       1.34144696       0.97715854
C        0.36248640       0.19847023      -0.24538916
C        1.15887801      -0.99329999       0.14986664
O        0.54151220      -1.39802488      -1.06075593
C       -0.86215222      -0.41914653      -0.79723666
N       -2.04213345      -0.29324921      -0.63791499
H       -0.63081556       2.26416381       0.71231549
H        0.81296168       1.01670537      -0.79917140
H        2.24087452      -0.91812542       0.05045203
H        0.84242246      -1.53817218       1.03798648
H       -1.84228151       0.73923183       0.61268897
11
Frame=13 idx=001682 GeodesicLength=1.6429377074842264 rxn_smarts="[O:1]([C@@:2]1([H:8])[C:3]([H:9])([H:10])[O:4]/[C:5]1=[N:6]\[H:11])[H:7]>>[C@:2]1([C:5]#[N:6])([H:8])[C:3]([H:9])([H:10])[O:4]1.[O:1]([H:7])[H:11]"
O       -0.57903204       1.36169159       0.98097976
C        0.37356572       0.19002053      -0.24621594
C        1.16906864      -1.00013225       0.15175085
O        0.54126766      -1.38951633      -1.06073545
C       -0.86100463      -0.41618558      -0.79200058
N       -2.04020532      -0.27518873      -0.63071753
H       -0.64436221       2.27855566       0.70099535
H        0.82115457       1.01190876      -0.79661644
H        2.25032570      -0.93238629       0.04350148
H        0.85302142      -1.55136623       1.03513479
H       -1.88379951       0.72259887       0.61392370
11
Frame=14 idx=001682 GeodesicLength=1.7693086159110434 rxn_smarts="[O:1]([C@@:2]1([H:8])[C:3]([H:9])([H:10])[O:4]/[C:5]1=[N:6]\[H:11])[H:7]>>[C@:2]1([C:5]#[N:6])([H:8])[C:3]([H:9])([H:10])[O:4]1.[O:1]([H:7])[H:11]"
O       -0.57504812       1.38320429       0.98484743
C        0.38508403       0.18163391      -0.24693479
C        1.17947707      -1.00711891       0.15356517
O        0.54052378      -1.38148466      -1.06005030
C       -0.85967654      -0.41272450      -0.78591126
N       -2.03808213      -0.25570975      -0.62516995
H       -0.65864227       2.29328474       0.68919528
H        0.82984126       1.00704746      -0.79403497
H        2.25983111      -0.94730787       0.03579530
H        0.86417139      -1.56436240       1.03249483
H       -1.92747958       0.70353769       0.61620325
11
Frame=15 idx=001682 GeodesicLength=1.8957010924113376 rxn_smarts="[O:1]([C@@:2]1([H:8])[C:3]([H:9])([H:10])[O:4]/[C:5]1=[N:6]\[H:11])[H:7]>>[C@:2]1([C:5]#[N:6])([H:8])[C:3]([H:9])([H:10])[O:4]1.[O:1]([H:7])[H:11]"
O       -0.56964677       1.40612463       0.98869866
C        0.39706941       0.17331829      -0.24755827
C        1.19011575      -1.01425616       0.15531785
O        0.53923585      -1.37394619      -1.05864880
C       -0.85817146      -0.40873975      -0.77886413
N       -2.03571251      -0.23449793      -0.62128669
H       -0.67364491       2.30835142       0.67699415
H        0.83905697       1.00209387      -0.79149063
H        2.26937007      -0.96293287       0.02729639
H        0.87589718      -1.57710859       1.03012044
H       -1.97356957       0.68159326       0.61942104
11
Frame=16 idx=001682 GeodesicLength=2.0220848074931443 rxn_smarts="[O:1]([C@@:2]1([H:8])[C:3]([H:9])([H:10])[O:4]/[C:5]1=[N:6]\[H:11])[H:7]>>[C@:2]1([C:5]#[N:6])([H:8])[C:3]([H:9])([H:10])[O:4]1.[O:1]([H:7])[H:11]"
O       -0.56264355       1.43060219       0.99247983
C        0.40954357       0.16508100      -0.24809621
C        1.20100039      -1.02153594       0.15701255
O        0.53734157      -1.36691726      -1.05646606
C       -0.85650643      -0.40420882      -0.77072134
N       -2.03301621      -0.21126269      -0.61902616
H       -0.68929972       2.32376731       0.66454417
H        0.84882287       0.99701600      -0.78905920
H        2.27891729      -0.97929984       0.01794642
H        0.88824371      -1.58954341       1.02807009
H       -2.02240348       0.65630145       0.62331592
