10
Frame=0 idx=000380 GeodesicLength=0.0 rxn_smarts="[N:1](=[C:2](/[O:3][C:4]([C:5]#[N:6])([H:9])[H:10])[H:8])\[H:7]>>[N:1]([C-:2]=[O+:3][C:4]([C:5]#[N:6])([H:9])[H:10])([H:7])[H:8]"
N        1.76223222       0.31043714      -0.04627946
C        1.18099043      -0.59557393       0.75913980
O       -0.13084637      -0.70239198       0.61213411
C       -0.81382885       0.24698041      -0.22278149
C       -2.24840495       0.04148827      -0.04595242
N       -3.38119567      -0.09039955       0.06346380
H        2.73709915       0.39419322       0.24118632
H        1.99244003      -0.97323144      -0.14003578
H       -0.54910765       0.09919894      -1.27107638
H       -0.54937832       1.26929892       0.05020151
10
Frame=1 idx=000380 GeodesicLength=0.07105344784827447 rxn_smarts="[N:1](=[C:2](/[O:3][C:4]([C:5]#[N:6])([H:9])[H:10])[H:8])\[H:7]>>[N:1]([C-:2]=[O+:3][C:4]([C:5]#[N:6])([H:9])[H:10])([H:7])[H:8]"
N        1.75831627       0.28666421      -0.05561491
C        1.16778284      -0.61131674       0.74225838
O       -0.14363446      -0.71449626       0.59883635
C       -0.82114484       0.25083554      -0.22035135
C       -2.25712007       0.04938195      -0.04870009
N       -3.38970992      -0.08309028       0.06208722
H        2.73246611       0.42614116       0.20356776
H        2.06330995      -0.99113769      -0.07945865
H       -0.55646968       0.11876500      -1.27089283
H       -0.55379621       1.26825311       0.06826810
10
Frame=2 idx=000380 GeodesicLength=0.14180696525825007 rxn_smarts="[N:1](=[C:2](/[O:3][C:4]([C:5]#[N:6])([H:9])[H:10])[H:8])\[H:7]>>[N:1]([C-:2]=[O+:3][C:4]([C:5]#[N:6])([H:9])[H:10])([H:7])[H:8]"
N        1.75420411       0.25935648      -0.06726596
C        1.15429102      -0.63272846       0.72044852
O       -0.15702645      -0.72992312       0.58180537
C       -0.82844367       0.25408136      -0.21822161
C       -2.26590614       0.05800185      -0.05118504
N       -3.39852170      -0.07235570       0.06182065
H        2.72325619       0.46008953       0.16048634
H        2.13954065      -1.00196772      -0.00514391
H       -0.56458635       0.14022616      -1.27125383
H       -0.55680765       1.26521962       0.08850946
10
Frame=3 idx=000380 GeodesicLength=0.20991683949288917 rxn_smarts="[N:1](=[C:2](/[O:3][C:4]([C:5]#[N:6])([H:9])[H:10])[H:8])\[H:7]>>[N:1]([C-:2]=[O+:3][C:4]([C:5]#[N:6])([H:9])[H:10])([H:7])[H:8]"
N        1.75090575       0.22989494      -0.07962864
C        1.14095391      -0.65788222       0.69535520
O       -0.17085867      -0.74520326       0.56472163
C       -0.83532054       0.25856404      -0.21451956
C       -2.27435459       0.06781454      -0.05330763
N       -3.40688319      -0.06564048       0.05705527
H        2.71313849       0.48822169       0.10557799
H        2.21327495      -1.00343862       0.08142337
H       -0.57193131       0.16572299      -1.26986830
H       -0.55892479       1.26194637       0.11319067
10
Frame=4 idx=000380 GeodesicLength=0.27723336420857214 rxn_smarts="[N:1](=[C:2](/[O:3][C:4]([C:5]#[N:6])([H:9])[H:10])[H:8])\[H:7]>>[N:1]([C-:2]=[O+:3][C:4]([C:5]#[N:6])([H:9])[H:10])([H:7])[H:8]"
N        1.74732549       0.19430090      -0.09728277
C        1.12797135      -0.69278208       0.66104004
O       -0.18487564      -0.76617456       0.54164122
C       -0.84160846       0.26202692      -0.21004537
C       -2.28231377       0.07863545      -0.05353473
N       -3.41550134      -0.05402822       0.05091259
H        2.69636374       0.51577248       0.03906481
H        2.29112500      -0.98820080       0.19284784
H       -0.58023557       0.19563145      -1.26806561
H       -0.55825078       1.25481846       0.14342198
10
Frame=5 idx=000380 GeodesicLength=0.34069120292864463 rxn_smarts="[N:1](=[C:2](/[O:3][C:4]([C:5]#[N:6])([H:9])[H:10])[H:8])\[H:7]>>[N:1]([C-:2]=[O+:3][C:4]([C:5]#[N:6])([H:9])[H:10])([H:7])[H:8]"
N        1.74563190       0.15315453      -0.12090376
C        1.11486905      -0.74139297       0.60877661
O       -0.19969300      -0.79233657       0.50913303
C       -0.84673735       0.26547879      -0.20706926
C       -2.28920626       0.09212057      -0.05353426
N       -3.42212923      -0.04230297       0.05167058
H        2.67608312       0.53482313      -0.03632196
H        2.36324887      -0.94442635       0.33766494
H       -0.58898434       0.23142030      -1.26763717
H       -0.55308276       1.24346153       0.17822125
10
Frame=6 idx=000380 GeodesicLength=0.3935598534105985 rxn_smarts="[N:1](=[C:2](/[O:3][C:4]([C:5]#[N:6])([H:9])[H:10])[H:8])\[H:7]>>[N:1]([C-:2]=[O+:3][C:4]([C:5]#[N:6])([H:9])[H:10])([H:7])[H:8]"
N        1.74696011       0.11394191      -0.14587994
C        1.10549998      -0.80294666       0.53540157
O       -0.21150104      -0.82261612       0.46904979
C       -0.84913862       0.26782343      -0.20348903
C       -2.29317465       0.10386456      -0.05135723
N       -3.42589372      -0.03185074       0.05529214
H        2.66338516       0.53201582      -0.12491801
H        2.40428333      -0.86064613       0.51206581
H       -0.59591402       0.27363131      -1.26582735
H       -0.54450653       1.22678261       0.21966225
10
Frame=7 idx=000380 GeodesicLength=0.43378252692038655 rxn_smarts="[N:1](=[C:2](/[O:3][C:4]([C:5]#[N:6])([H:9])[H:10])[H:8])\[H:7]>>[N:1]([C-:2]=[O+:3][C:4]([C:5]#[N:6])([H:9])[H:10])([H:7])[H:8]"
N        1.75118196       0.09028458      -0.16608291
C        1.10542785      -0.86247227       0.44945897
O       -0.21361469      -0.85203432       0.42753609
C       -0.84771042       0.26739670      -0.19660190
C       -2.29221234       0.10584588      -0.04575715
N       -3.42605539      -0.02381425       0.05646469
H        2.67184271       0.49262156      -0.21987153
H        2.38795325      -0.74304220       0.68744340
H       -0.59970359       0.31924226      -1.25904181
H       -0.53710935       1.20597206       0.26645215
10
Frame=8 idx=000380 GeodesicLength=0.48339627930701007 rxn_smarts="[N:1](=[C:2](/[O:3][C:4]([C:5]#[N:6])([H:9])[H:10])[H:8])\[H:7]>>[N:1]([C-:2]=[O+:3][C:4]([C:5]#[N:6])([H:9])[H:10])([H:7])[H:8]"
N        1.76040886       0.08416154      -0.18357815
C        1.11190666      -0.89875950       0.37122933
O       -0.20804853      -0.87135656       0.38720445
C       -0.84453889       0.27031876      -0.19002438
C       -2.28845941       0.10210032      -0.04088702
N       -3.42106277      -0.03517024       0.06391175
H        2.70344034       0.41424254      -0.29842550
H        2.32021333      -0.62073538       0.83042982
H       -0.60064368       0.36597077      -1.25049312
H       -0.53321590       1.18922775       0.31063283
10
Frame=9 idx=000380 GeodesicLength=0.5470192332910119 rxn_smarts="[N:1](=[C:2](/[O:3][C:4]([C:5]#[N:6])([H:9])[H:10])[H:8])\[H:7]>>[N:1]([C-:2]=[O+:3][C:4]([C:5]#[N:6])([H:9])[H:10])([H:7])[H:8]"
N        1.77279731       0.08274995      -0.20403738
C        1.12253411      -0.91603509       0.31279474
O       -0.19846306      -0.88564523       0.34953366
C       -0.84004065       0.27359964      -0.18304958
C       -2.28309040       0.09490447      -0.03620247
N       -3.41423363      -0.05176582       0.07181808
H        2.73808091       0.32268836      -0.35345766
H        2.23273994      -0.50417914       0.93150642
H       -0.59948582       0.40934920      -1.24004824
H       -0.53083872       1.17433366       0.35114243
10
Frame=10 idx=000380 GeodesicLength=0.6133212359942907 rxn_smarts="[N:1](=[C:2](/[O:3][C:4]([C:5]#[N:6])([H:9])[H:10])[H:8])\[H:7]>>[N:1]([C-:2]=[O+:3][C:4]([C:5]#[N:6])([H:9])[H:10])([H:7])[H:8]"
N        1.78474604       0.07709803      -0.22717238
C        1.13365108      -0.92517159       0.27557910
O       -0.18863389      -0.89690213       0.32007410
C       -0.83447460       0.27599495      -0.17333432
C       -2.27682974       0.08825026      -0.03116183
N       -3.40739271      -0.06697043       0.07038712
H        2.76374984       0.23973196      -0.39177764
H        2.14938402      -0.39937885       0.99384973
H       -0.59607097       0.44702633      -1.22578028
H       -0.52812908       1.16032145       0.38933641
10
Frame=11 idx=000380 GeodesicLength=0.6812001502701026 rxn_smarts="[N:1](=[C:2](/[O:3][C:4]([C:5]#[N:6])([H:9])[H:10])[H:8])\[H:7]>>[N:1]([C-:2]=[O+:3][C:4]([C:5]#[N:6])([H:9])[H:10])([H:7])[H:8]"
N        1.79716016       0.07049574      -0.24857702
C        1.14468360      -0.93178779       0.24633886
O       -0.17908333      -0.90597164       0.29555204
C       -0.82850766       0.27745034      -0.16423168
C       -2.27038692       0.08168394      -0.02764135
N       -3.40043857      -0.07940713       0.07029428
H        2.78475518       0.16623658      -0.41589182
H        2.06835934      -0.30474461       1.03284021
H       -0.59124250       0.47906381      -1.21167983
H       -0.52529931       1.14698075       0.42299632
10
Frame=12 idx=000380 GeodesicLength=0.7513039372692956 rxn_smarts="[N:1](=[C:2](/[O:3][C:4]([C:5]#[N:6])([H:9])[H:10])[H:8])\[H:7]>>[N:1]([C-:2]=[O+:3][C:4]([C:5]#[N:6])([H:9])[H:10])([H:7])[H:8]"
N        1.81049385       0.06431777      -0.26686372
C        1.15577671      -0.93716319       0.22031979
O       -0.16950449      -0.91348075       0.27339809
C       -0.82229362       0.27814664      -0.15647728
C       -2.26371548       0.07520629      -0.02531148
N       -3.39308432      -0.08955227       0.07423832
H        2.80319437       0.09986257      -0.42933144
H        1.98719620      -0.21817715       1.05638250
H       -0.58556088       0.50669566      -1.19858181
H       -0.52250235       1.13414444       0.45222703
10
Frame=13 idx=000380 GeodesicLength=0.8224124978711469 rxn_smarts="[N:1](=[C:2](/[O:3][C:4]([C:5]#[N:6])([H:9])[H:10])[H:8])\[H:7]>>[N:1]([C-:2]=[O+:3][C:4]([C:5]#[N:6])([H:9])[H:10])([H:7])[H:8]"
N        1.82444707       0.06035435      -0.27993976
C        1.16671322      -0.94134533       0.19614074
O       -0.16002253      -0.91906068       0.25436492
C       -0.81618419       0.27845084      -0.15009020
C       -2.25715774       0.06868554      -0.02446180
N       -3.38567441      -0.09778376       0.08159391
H        2.81884912       0.04039941      -0.43655145
H        1.90875645      -0.14234541       1.06901385
H       -0.57935196       0.52991086      -1.18695787
H       -0.52037502       1.12273419       0.47688766
10
Frame=14 idx=000380 GeodesicLength=0.8939550666560493 rxn_smarts="[N:1](=[C:2](/[O:3][C:4]([C:5]#[N:6])([H:9])[H:10])[H:8])\[H:7]>>[N:1]([C-:2]=[O+:3][C:4]([C:5]#[N:6])([H:9])[H:10])([H:7])[H:8]"
N        1.83860515       0.05710269      -0.28934478
C        1.17736318      -0.94426331       0.17599808
O       -0.15083472      -0.92316424       0.23863483
C       -0.81023166       0.27881145      -0.14343494
C       -2.25084269       0.06213422      -0.02509437
N       -3.37854213      -0.10559978       0.08740322
H        2.83124989      -0.01558823      -0.44357553
H        1.83469965      -0.07304365       1.07336024
H       -0.57202312       0.55157116      -1.17469769
H       -0.51944355       1.11203970       0.50075094
10
Frame=15 idx=000380 GeodesicLength=0.965569154566512 rxn_smarts="[N:1](=[C:2](/[O:3][C:4]([C:5]#[N:6])([H:9])[H:10])[H:8])\[H:7]>>[N:1]([C-:2]=[O+:3][C:4]([C:5]#[N:6])([H:9])[H:10])([H:7])[H:8]"
N        1.85263931       0.05359412      -0.29608964
C        1.18778682      -0.94608615       0.16097600
O       -0.14188824      -0.92587034       0.22686668
C       -0.80441272       0.27942628      -0.13525424
C       -2.24473934       0.05558047      -0.02684666
N       -3.37196881      -0.11383782       0.08777844
H        2.83990389      -0.07010465      -0.45429147
H        1.76597416      -0.00740740       1.07086722
H       -0.56326567       0.57317988      -1.16011925
H       -0.52002939       1.10152560       0.52611293
10
Frame=16 idx=000380 GeodesicLength=1.0377574296594594 rxn_smarts="[N:1](=[C:2](/[O:3][C:4]([C:5]#[N:6])([H:9])[H:10])[H:8])\[H:7]>>[N:1]([C-:2]=[O+:3][C:4]([C:5]#[N:6])([H:9])[H:10])([H:7])[H:8]"
N        1.86725974       0.05099721      -0.29870758
C        1.19807924      -0.94715750       0.14848264
O       -0.13308083      -0.92761079       0.21688910
C       -0.79872699       0.28005763      -0.12742943
C       -2.23877611       0.04891528      -0.03073103
N       -3.36534440      -0.12159714       0.08867986
H        2.84574595      -0.12225089      -0.46667831
H        1.70012038       0.05342614       1.06433524
H       -0.55340541       0.59388218      -1.14540722
H       -0.52187158       1.09133788       0.55056673
