17
Frame=0 idx=006433 GeodesicLength=0.0 rxn_smarts="[C:1]([C@@:2]12[C:3]([H:11])([H:12])[C@@:4]3([H:13])[C@@:5]([H:14])([C:6]1([H:15])[H:16])[C@@:7]23[H:17])([H:8])([H:9])[H:10]>>[C:1]([C:2]12[C:3]([H:11])([H:12])[C:4]([H:13])([C:6]1([H:15])[H:16])[C@:7]2([C:5][H:14])[H:17])([H:8])([H:9])[H:10]"
C        1.69006737      -1.08711732      -0.18495743
C        0.38716435      -0.35916742      -0.03524317
C       -1.01320976      -0.98065093      -0.06718346
C       -1.35004112       0.49268491      -0.11062368
C       -0.00171883       2.00592272      -0.14031381
C        0.03763526       0.48130503       1.21363056
C       -0.15472179       0.80161560      -0.96987636
H        1.83129211      -1.80781931       0.62404355
H        1.73160230      -1.62921464      -1.13165447
H        2.52263351      -0.38065861      -0.15962787
H       -1.31407406      -1.56438151       0.80692634
H       -1.28138203      -1.48172969      -1.00080339
H       -2.30940420       0.99592938      -0.10797644
H       -0.82442232       2.71569151      -0.34749990
H       -0.52603505      -0.06654030       1.97462668
H        0.78796499       1.09422447       1.69179789
H       -0.21335065       0.76990610      -2.05526501
17
Frame=1 idx=006433 GeodesicLength=0.03518353579435105 rxn_smarts="[C:1]([C@@:2]12[C:3]([H:11])([H:12])[C@@:4]3([H:13])[C@@:5]([H:14])([C:6]1([H:15])[H:16])[C@@:7]23[H:17])([H:8])([H:9])[H:10]>>[C:1]([C:2]12[C:3]([H:11])([H:12])[C:4]([H:13])([C:6]1([H:15])[H:16])[C@:7]2([C:5][H:14])[H:17])([H:8])([H:9])[H:10]"
C        1.68899080      -1.08495294      -0.18540647
C        0.38636996      -0.35762269      -0.03193696
C       -1.01373514      -0.98145232      -0.06822278
C       -1.35384288       0.49227829      -0.10598987
C       -0.01010900       2.00014611      -0.13290978
C        0.03485606       0.48231608       1.21623206
C       -0.15862796       0.80099762      -0.96820741
H        1.82882938      -1.80998847       0.62000618
H        1.73051810      -1.62256713      -1.13468271
H        2.52235163      -0.37965193      -0.15574371
H       -1.31515107      -1.56820011       0.80364394
H       -1.27696496      -1.48329111      -1.00268911
H       -2.31818426       0.98619065      -0.11187204
H       -0.80372869       2.73292589      -0.36530358
H       -0.51739022      -0.06618245       1.98509884
H        0.79101041       1.09125142       1.69139194
H       -0.21519217       0.76780308      -2.05340854
17
Frame=2 idx=006433 GeodesicLength=0.07033805975766269 rxn_smarts="[C:1]([C@@:2]12[C:3]([H:11])([H:12])[C@@:4]3([H:13])[C@@:5]([H:14])([C:6]1([H:15])[H:16])[C@@:7]23[H:17])([H:8])([H:9])[H:10]>>[C:1]([C:2]12[C:3]([H:11])([H:12])[C:4]([H:13])([C:6]1([H:15])[H:16])[C@:7]2([C:5][H:14])[H:17])([H:8])([H:9])[H:10]"
C        1.68787011      -1.08259842      -0.18587471
C        0.38545130      -0.35604993      -0.02862776
C       -1.01430721      -0.98236594      -0.06926673
C       -1.35787240       0.49170248      -0.10132930
C       -0.01895226       1.99439061      -0.12554862
C        0.03189122       0.48329593       1.21886105
C       -0.16278191       0.80036565      -0.96650182
H        1.82642243      -1.81194133       0.61591542
H        1.72943540      -1.61571514      -1.13770858
H        2.52195069      -0.37839481      -0.15190002
H       -1.31619481      -1.57217815       0.80033701
H       -1.27253954      -1.48497134      -1.00456460
H       -2.32712716       0.97605257      -0.11572448
H       -0.78103553       2.75006389      -0.38303600
H       -0.50869649      -0.06575739       1.99559022
H        0.79374550       1.08841513       1.69089258
H       -0.21725932       0.76568620      -2.05151367
17
Frame=3 idx=006433 GeodesicLength=0.10544567362535301 rxn_smarts="[C:1]([C@@:2]12[C:3]([H:11])([H:12])[C@@:4]3([H:13])[C@@:5]([H:14])([C:6]1([H:15])[H:16])[C@@:7]23[H:17])([H:8])([H:9])[H:10]>>[C:1]([C:2]12[C:3]([H:11])([H:12])[C:4]([H:13])([C:6]1([H:15])[H:16])[C@:7]2([C:5][H:14])[H:17])([H:8])([H:9])[H:10]"
C        1.68670457      -1.08003869      -0.18636089
C        0.38440098      -0.35444234      -0.02532178
C       -1.01492948      -0.98340607      -0.07031952
C       -1.36215049       0.49094131      -0.09665196
C       -0.02828350       1.98866760      -0.11824403
C        0.02873070       0.48425243       1.22150907
C       -0.16720776       0.79972238      -0.96476834
H        1.82408770      -1.81364811       0.61178829
H        1.72834562      -1.60866752      -1.14071875
H        2.52142803      -0.37686050      -0.14811603
H       -1.31719979      -1.57633208       0.79700482
H       -1.26811248      -1.48678746      -1.00643371
H       -2.33625208       0.96549577      -0.11953566
H       -0.75618646       2.76705543      -0.40062184
H       -0.49995892      -0.06525230       2.00609130
H        0.79616061       1.08573892       1.69028914
H       -0.21957724       0.76356122      -2.04959009
17
Frame=4 idx=006433 GeodesicLength=0.14047991439389224 rxn_smarts="[C:1]([C@@:2]12[C:3]([H:11])([H:12])[C@@:4]3([H:13])[C@@:5]([H:14])([C:6]1([H:15])[H:16])[C@@:7]23[H:17])([H:8])([H:9])[H:10]>>[C:1]([C:2]12[C:3]([H:11])([H:12])[C:4]([H:13])([C:6]1([H:15])[H:16])[C@:7]2([C:5][H:14])[H:17])([H:8])([H:9])[H:10]"
C        1.68548347      -1.07725453      -0.18687475
C        0.38321127      -0.35278671      -0.02203006
C       -1.01558853      -0.98456390      -0.07138151
C       -1.36668488       0.48997937      -0.09196219
C       -0.03814737       1.98296167      -0.11101247
C        0.02534819       0.48519781       1.22416008
C       -0.17191805       0.79905613      -0.96301313
H        1.82181937      -1.81506142       0.60762630
H        1.72724367      -1.60142732      -1.14370828
H        2.52076217      -0.37503708      -0.14442434
H       -1.31815000      -1.58063751       0.79364987
H       -1.26365866      -1.48872879      -1.00829203
H       -2.34555939       0.95449818      -0.12327957
H       -0.72903368       2.78378402      -0.41795766
H       -0.49119876      -0.06463499       2.01658589
H        0.79821433       1.08324087       1.68955489
H       -0.22214317       0.76141419      -2.04764105
17
Frame=5 idx=006433 GeodesicLength=0.17538895388650816 rxn_smarts="[C:1]([C@@:2]12[C:3]([H:11])([H:12])[C@@:4]3([H:13])[C@@:5]([H:14])([C:6]1([H:15])[H:16])[C@@:7]23[H:17])([H:8])([H:9])[H:10]>>[C:1]([C:2]12[C:3]([H:11])([H:12])[C:4]([H:13])([C:6]1([H:15])[H:16])[C@:7]2([C:5][H:14])[H:17])([H:8])([H:9])[H:10]"
C        1.68429766      -1.07428377      -0.18738135
C        0.38189751      -0.35108981      -0.01875026
C       -1.01635820      -0.98592440      -0.07245470
C       -1.37158090       0.48882347      -0.08729624
C       -0.04857736       1.97742937      -0.10390685
C        0.02177338       0.48615215       1.22680489
C       -0.17696741       0.79844944      -0.96126891
H        1.81972999      -1.81629655       0.60348318
H        1.72619327      -1.59404584      -1.14664216
H        2.52011015      -0.37290758      -0.14078013
H       -1.31911148      -1.58524381       0.79028842
H       -1.25929970      -1.49089620      -1.01014402
H       -2.35521717       0.94307653      -0.12700929
H       -0.69946160       2.80035492      -0.43498403
H       -0.48239125      -0.06394130       2.02707449
H        0.80000832       1.08098989       1.68867664
H       -0.22504519       0.75935350      -2.04570968
17
Frame=6 idx=006433 GeodesicLength=0.21032086659302646 rxn_smarts="[C:1]([C@@:2]12[C:3]([H:11])([H:12])[C@@:4]3([H:13])[C@@:5]([H:14])([C:6]1([H:15])[H:16])[C@@:7]23[H:17])([H:8])([H:9])[H:10]>>[C:1]([C:2]12[C:3]([H:11])([H:12])[C:4]([H:13])([C:6]1([H:15])[H:16])[C@:7]2([C:5][H:14])[H:17])([H:8])([H:9])[H:10]"
C        1.68287912      -1.07093421      -0.18798118
C        0.38037159      -0.34930144      -0.01551367
C       -1.01704585      -0.98733084      -0.07354008
C       -1.37664459       0.48737415      -0.08258625
C       -0.05967732       1.97169150      -0.09684181
C        0.01786548       0.48709862       1.22943600
C       -0.18233435       0.79768221      -0.95948573
H        1.81757680      -1.81690169       0.59926604
H        1.72497660      -1.58638740      -1.14958120
H        2.51899376      -0.37035785      -0.13738711
H       -1.31985259      -1.58983702       0.78688820
H       -1.25471823      -1.49311083      -1.01198073
H       -2.36484685       0.93108906      -0.13060174
H       -0.66693515       2.81623852      -0.45153277
H       -0.47363060      -0.06301877       2.03752364
H        0.80119759       1.07890990       1.68764076
H       -0.22817541       0.75709608      -2.04372237
17
Frame=7 idx=006433 GeodesicLength=0.24499577584186194 rxn_smarts="[C:1]([C@@:2]12[C:3]([H:11])([H:12])[C@@:4]3([H:13])[C@@:5]([H:14])([C:6]1([H:15])[H:16])[C@@:7]23[H:17])([H:8])([H:9])[H:10]>>[C:1]([C:2]12[C:3]([H:11])([H:12])[C:4]([H:13])([C:6]1([H:15])[H:16])[C@:7]2([C:5][H:14])[H:17])([H:8])([H:9])[H:10]"
C        1.68147809      -1.06734718      -0.18857172
C        0.37870107      -0.34744407      -0.01232244
C       -1.01784470      -0.98894166      -0.07464749
C       -1.38209867       0.48569398      -0.07794806
C       -0.07138734       1.96611558      -0.09000771
C        0.01374407       0.48810183       1.23199614
C       -0.18808826       0.79694519      -0.95776362
H        1.81560323      -1.81722142       0.59510647
H        1.72379193      -1.57858183      -1.15243296
H        2.51786421      -0.36744063      -0.13407338
H       -1.32059422      -1.59469835       0.78348239
H       -1.25022941      -1.49557483      -1.01380259
H       -2.37484529       0.91862849      -0.13419770
H       -0.63165050       2.83164400      -0.46730765
H       -0.46483909      -0.06191828       2.04790399
H        0.80209291       1.07715987       1.68637931
H       -0.23169804       0.75487930      -2.04179299
17
Frame=8 idx=006433 GeodesicLength=0.2795331091966 rxn_smarts="[C:1]([C@@:2]12[C:3]([H:11])([H:12])[C@@:4]3([H:13])[C@@:5]([H:14])([C:6]1([H:15])[H:16])[C@@:7]23[H:17])([H:8])([H:9])[H:10]>>[C:1]([C:2]12[C:3]([H:11])([H:12])[C:4]([H:13])([C:6]1([H:15])[H:16])[C@:7]2([C:5][H:14])[H:17])([H:8])([H:9])[H:10]"
C        1.68002553      -1.06345828      -0.18919115
C        0.37684256      -0.34550541      -0.00917382
C       -1.01870493      -0.99076312      -0.07577432
C       -1.38793850       0.48374643      -0.07335694
C       -0.08383684       1.96065752      -0.08336779
C        0.00934459       0.48918099       1.23452834
C       -0.19429364       0.79619312      -0.95610644
H        1.81378106      -1.81717033       0.59096124
H        1.72258666      -1.57056715      -1.15527132
H        2.51657288      -0.36406976      -0.13087254
H       -1.32123359      -1.59982153       0.78008488
H       -1.24574483      -1.49831372      -1.01563197
H       -2.38517005       0.90563225      -0.13780260
H       -0.59310846       2.84643971      -0.48229605
H       -0.45602183      -0.06059443       2.05827490
H        0.80257230       1.07577726       1.68494507
H       -0.23567289       0.75263645      -2.03994950
17
Frame=9 idx=006433 GeodesicLength=0.3139652864176495 rxn_smarts="[C:1]([C@@:2]12[C:3]([H:11])([H:12])[C@@:4]3([H:13])[C@@:5]([H:14])([C:6]1([H:15])[H:16])[C@@:7]23[H:17])([H:8])([H:9])[H:10]>>[C:1]([C:2]12[C:3]([H:11])([H:12])[C:4]([H:13])([C:6]1([H:15])[H:16])[C@:7]2([C:5][H:14])[H:17])([H:8])([H:9])[H:10]"
C        1.67846383      -1.05914116      -0.18990086
C        0.37476347      -0.34343569      -0.00607566
C       -1.01958928      -0.99269980      -0.07685498
C       -1.39414702       0.48148059      -0.06875073
C       -0.09710856       1.95515949      -0.07694989
C        0.00455669       0.49032433       1.23696082
C       -0.20092730       0.79535031      -0.95446448
H        1.81198087      -1.81660828       0.58667719
H        1.72138656      -1.56210642      -1.15814054
H        2.51502533      -0.36019356      -0.12782052
H       -1.32176005      -1.60505008       0.77673952
H       -1.24115483      -1.50118797      -1.01734215
H       -2.39576625       0.89200513      -0.14128449
H       -0.55087724       2.86009301      -0.49644714
H       -0.44730074      -0.05899332       2.06854986
H        0.80246318       1.07471076       1.68318979
H       -0.24000866       0.75029267      -2.03808574
17
Frame=10 idx=006433 GeodesicLength=0.3482057657895242 rxn_smarts="[C:1]([C@@:2]12[C:3]([H:11])([H:12])[C@@:4]3([H:13])[C@@:5]([H:14])([C:6]1([H:15])[H:16])[C@@:7]23[H:17])([H:8])([H:9])[H:10]>>[C:1]([C:2]12[C:3]([H:11])([H:12])[C:4]([H:13])([C:6]1([H:15])[H:16])[C@:7]2([C:5][H:14])[H:17])([H:8])([H:9])[H:10]"
C        1.67682359      -1.05441590      -0.19064259
C        0.37245681      -0.34123583      -0.00306261
C       -1.02055198      -0.99485916      -0.07795988
C       -1.40079908       0.47888790      -0.06424898
C       -0.11121365       1.94977387      -0.07086993
C       -0.00054767       0.49161236       1.23926274
C       -0.20809789       0.79445669      -0.95294423
H        1.81034992      -1.81548842       0.58245102
H        1.72012425      -1.55340423      -1.16093858
H        2.51327325      -0.35572250      -0.12495055
H       -1.32217045      -1.61052011       0.77340709
H       -1.23659027      -1.50437818      -1.01902389
H       -2.40674410       0.87773079      -0.14481779
H       -0.50472779       2.87259623      -0.50915492
H       -0.43857976      -0.05703539       2.07871065
H        0.80189324       1.07413131       1.68112044
H       -0.24489844       0.74787056      -2.03633801
17
Frame=11 idx=006433 GeodesicLength=0.3822131164764956 rxn_smarts="[C:1]([C@@:2]12[C:3]([H:11])([H:12])[C@@:4]3([H:13])[C@@:5]([H:14])([C:6]1([H:15])[H:16])[C@@:7]23[H:17])([H:8])([H:9])[H:10]>>[C:1]([C:2]12[C:3]([H:11])([H:12])[C:4]([H:13])([C:6]1([H:15])[H:16])[C@:7]2([C:5][H:14])[H:17])([H:8])([H:9])[H:10]"
C        1.67510941      -1.04926225      -0.19144761
C        0.36990589      -0.33889023      -0.00013259
C       -1.02157449      -0.99726968      -0.07906556
C       -1.40794052       0.47596675      -0.05984637
C       -0.12629279       1.94458662      -0.06517938
C       -0.00602190       0.49309942       1.24147343
C       -0.21586452       0.79353237      -0.95159713
H        1.80887468      -1.81388876       0.57821492
H        1.71885242      -1.54436152      -1.16378106
H        2.51130269      -0.35062725      -0.12221305
H       -1.32241968      -1.61627583       0.77015995
H       -1.23200712      -1.50793353      -1.02068754
H       -2.41815432       0.86280986      -0.14836034
H       -0.45427708       2.88366325      -0.52034357
H       -0.42988556      -0.05466172       2.08884369
H        0.80078664       1.07412866       1.67876713
H       -0.25039373       0.74538381      -2.03480493
17
Frame=12 idx=006433 GeodesicLength=0.41612662369801756 rxn_smarts="[C:1]([C@@:2]12[C:3]([H:11])([H:12])[C@@:4]3([H:13])[C@@:5]([H:14])([C:6]1([H:15])[H:16])[C@@:7]23[H:17])([H:8])([H:9])[H:10]>>[C:1]([C:2]12[C:3]([H:11])([H:12])[C:4]([H:13])([C:6]1([H:15])[H:16])[C@:7]2([C:5][H:14])[H:17])([H:8])([H:9])[H:10]"
C        1.67327242      -1.04350626      -0.19235409
C        0.36706519      -0.33633123       0.00265736
C       -1.02266978      -0.99982785      -0.08013068
C       -1.41558893       0.47264580      -0.05555595
C       -0.14237711       1.93938910      -0.06001927
C       -0.01195750       0.49480103       1.24339125
C       -0.22423995       0.79245970      -0.95041063
H        1.80753410      -1.81143251       0.57396616
H        1.71753066      -1.53489319      -1.16654588
H        2.50903180      -0.34475693      -0.11980838
H       -1.32253970      -1.62210977       0.76699850
H       -1.22736918      -1.51174550      -1.02216188
H       -2.42999125       0.84708474      -0.15193556
H       -0.39892769       2.89258333      -0.52926659
H       -0.42132767      -0.05173981       2.09870426
H        0.79902195       1.07468863       1.67583206
H       -0.25646736       0.74269074      -2.03336067
17
Frame=13 idx=006433 GeodesicLength=0.44975277837748817 rxn_smarts="[C:1]([C@@:2]12[C:3]([H:11])([H:12])[C@@:4]3([H:13])[C@@:5]([H:14])([C:6]1([H:15])[H:16])[C@@:7]23[H:17])([H:8])([H:9])[H:10]>>[C:1]([C:2]12[C:3]([H:11])([H:12])[C:4]([H:13])([C:6]1([H:15])[H:16])[C@:7]2([C:5][H:14])[H:17])([H:8])([H:9])[H:10]"
C        1.67133949      -1.03720918      -0.19335760
C        0.36394500      -0.33355326       0.00530370
C       -1.02381905      -1.00258198      -0.08118548
C       -1.42376797       0.46898952      -0.05143818
C       -0.15952285       1.93440780      -0.05550176
C       -0.01832458       0.49685068       1.24505419
C       -0.23327692       0.79129583      -0.94948654
H        1.80635763      -1.80829422       0.56970251
H        1.71618972      -1.52503897      -1.16932302
H        2.50649126      -0.33814393      -0.11763776
H       -1.32246637      -1.62809608       0.76395261
H       -1.22268930      -1.51591439      -1.02354011
H       -2.44229595       0.83065256      -0.15556408
H       -0.33871893       2.89891747      -0.53556419
H       -0.41286289      -0.04811747       2.10837846
H        0.79663404       1.07600370       1.67238641
H       -0.26321233       0.73983192      -2.03217916
17
Frame=14 idx=006433 GeodesicLength=0.48317610641732744 rxn_smarts="[C:1]([C@@:2]12[C:3]([H:11])([H:12])[C@@:4]3([H:13])[C@@:5]([H:14])([C:6]1([H:15])[H:16])[C@@:7]23[H:17])([H:8])([H:9])[H:10]>>[C:1]([C:2]12[C:3]([H:11])([H:12])[C:4]([H:13])([C:6]1([H:15])[H:16])[C@:7]2([C:5][H:14])[H:17])([H:8])([H:9])[H:10]"
C        1.66926895      -1.03027769      -0.19447721
C        0.36051741      -0.33050510       0.00776446
C       -1.02503191      -1.00550424      -0.08221254
C       -1.43247675       0.46498995      -0.04755242
C       -0.17772106       1.92965275      -0.05182676
C       -0.02513658       0.49933996       1.24637796
C       -0.24300256       0.79000501      -0.94892896
H        1.80531349      -1.80433217       0.56545326
H        1.71478109      -1.51473826      -1.17211552
H        2.50362687      -0.33067162      -0.11576504
H       -1.32219495      -1.63416424       0.76108468
H       -1.21797362      -1.52045594      -1.02477416
H       -2.45505144       0.81344233      -0.15934148
H       -0.27336137       2.90191510      -0.53844756
H       -0.40449836      -0.04362809       2.11781969
H        0.79360878       1.07818610       1.66830661
H       -0.27066798       0.73674614      -2.03136500
17
Frame=15 idx=006433 GeodesicLength=0.5164685616306551 rxn_smarts="[C:1]([C@@:2]12[C:3]([H:11])([H:12])[C@@:4]3([H:13])[C@@:5]([H:14])([C:6]1([H:15])[H:16])[C@@:7]23[H:17])([H:8])([H:9])[H:10]>>[C:1]([C:2]12[C:3]([H:11])([H:12])[C:4]([H:13])([C:6]1([H:15])[H:16])[C@:7]2([C:5][H:14])[H:17])([H:8])([H:9])[H:10]"
C        1.66708651      -1.02272190      -0.19572110
C        0.35679514      -0.32716298       0.00999784
C       -1.02631707      -1.00854979      -0.08321518
C       -1.44171062       0.46071601      -0.04398029
C       -0.19690574       1.92520361      -0.04920778
C       -0.03237230       0.50239057       1.24726507
C       -0.25340582       0.78857206      -0.94884237
H        1.80444167      -1.79951468       0.56125884
H        1.71331857      -1.50406894      -1.17490277
H        2.50047429      -0.32234545      -0.11424753
H       -1.32173131      -1.64022205       0.75842667
H       -1.21324255      -1.52537875      -1.02583639
H       -2.46825879       0.79553240      -0.16333778
H       -0.20309277       2.90087301      -0.53706526
H       -0.39623419      -0.03805770       2.12695246
H        0.78998827       1.08135572       1.66347356
H       -0.27883328       0.73337887      -2.03101799
17
Frame=16 idx=006433 GeodesicLength=0.5498695918124618 rxn_smarts="[C:1]([C@@:2]12[C:3]([H:11])([H:12])[C@@:4]3([H:13])[C@@:5]([H:14])([C:6]1([H:15])[H:16])[C@@:7]23[H:17])([H:8])([H:9])[H:10]>>[C:1]([C:2]12[C:3]([H:11])([H:12])[C:4]([H:13])([C:6]1([H:15])[H:16])[C@:7]2([C:5][H:14])[H:17])([H:8])([H:9])[H:10]"
C        1.66476409      -1.01451491      -0.19709703
C        0.35279251      -0.32348805       0.01195553
C       -1.02767920      -1.01162569      -0.08418883
C       -1.45138134       0.45624131      -0.04080406
C       -0.21687497       1.92108819      -0.04788040
C       -0.03998450       0.50611429       1.24756888
C       -0.26439404       0.78696154      -0.94931218
H        1.80369259      -1.79373606       0.55715434
H        1.71175013      -1.49307349      -1.17762490
H        2.49701998      -0.31314822      -0.11316823
H       -1.32110998      -1.64610800       0.75599539
H       -1.20851465      -1.53063013      -1.02665557
H       -2.48179891       0.77698794      -0.16760348
H       -0.12845743       2.89487996      -0.53048676
H       -0.38805872      -0.03119085       2.13562656
H        0.78584391       1.08558950       1.65770412
H       -0.28760947       0.72965265      -2.03118338
