16
Frame=0 idx=001779 GeodesicLength=0.0 rxn_smarts="[C:1]([C@@:2]1([H:10])[C:3]([H:11])([H:12])[C@:4]([O:5][H:14])([H:13])[C:6]1([H:15])[H:16])([H:7])([H:8])[H:9]>>[C:1]([H:7])([H:8])([H:9])[H:10].[C:2]1[C:3]([H:11])([H:12])[C:4]([O:5][H:14])([H:13])[C:6]1([H:15])[H:16]"
C        2.28593388       0.07213692      -0.35569884
C        0.39873637       0.17109208       0.89360727
C       -0.50589266       1.02068030       0.02222157
C       -1.56779989      -0.07661146       0.29314466
O       -2.42439489      -0.44685628      -0.75976581
C       -0.40914432      -1.06057323       0.52186254
H        2.39598482       1.07283715      -0.76518618
H        1.81442766      -0.60498579      -1.05748679
H        3.23641110      -0.32608249      -0.00071300
H        1.71323013       0.20324601       0.71399417
H       -0.28812702       0.97877909      -1.04985762
H       -0.68214828       2.05397334       0.32481589
H       -2.13330743       0.11373173       1.20850089
H       -3.15020688       0.17847356      -0.80277891
H       -0.50493311      -1.85036360       1.26657088
H       -0.17876947      -1.49947736      -0.45323075
16
Frame=1 idx=001779 GeodesicLength=0.0548402208206183 rxn_smarts="[C:1]([C@@:2]1([H:10])[C:3]([H:11])([H:12])[C@:4]([O:5][H:14])([H:13])[C:6]1([H:15])[H:16])([H:7])([H:8])[H:9]>>[C:1]([H:7])([H:8])([H:9])[H:10].[C:2]1[C:3]([H:11])([H:12])[C:4]([O:5][H:14])([H:13])[C:6]1([H:15])[H:16]"
C        2.28934793       0.07304966      -0.35304913
C        0.40186645       0.16896798       0.87944949
C       -0.51199390       1.01912470       0.01881215
C       -1.57285512      -0.07763378       0.29262790
O       -2.43232075      -0.44974928      -0.75721351
C       -0.41431153      -1.06079225       0.52205940
H        2.41470278       1.07450227      -0.75714863
H        1.82309203      -0.59135573      -1.07128319
H        3.23685528      -0.34106318      -0.00786582
H        1.72886629       0.21450226       0.73581046
H       -0.29290947       0.97858892      -1.05308536
H       -0.68665439       2.05227399       0.32279247
H       -2.13587443       0.11468639       1.20932824
H       -3.15777842       0.17596021      -0.80036117
H       -0.50757065      -1.84762503       1.27021867
H       -0.18246208      -1.50343714      -0.45109197
16
Frame=2 idx=001779 GeodesicLength=0.10971128143816575 rxn_smarts="[C:1]([C@@:2]1([H:10])[C:3]([H:11])([H:12])[C@:4]([O:5][H:14])([H:13])[C:6]1([H:15])[H:16])([H:7])([H:8])[H:9]>>[C:1]([H:7])([H:8])([H:9])[H:10].[C:2]1[C:3]([H:11])([H:12])[C:4]([O:5][H:14])([H:13])[C:6]1([H:15])[H:16]"
C        2.29286213       0.07387491      -0.35039143
C        0.40516125       0.16663991       0.86469084
C       -0.51811632       1.01750116       0.01527105
C       -1.57793239      -0.07865670       0.29220867
O       -2.44053702      -0.45256057      -0.75436136
C       -0.41948704      -1.06105787       0.52203056
H        2.43380996       1.07578247      -0.74913026
H        1.83266804      -0.57766536      -1.08513068
H        3.23690008      -0.35559409      -0.01397244
H        1.74379658       0.22597138       0.75713378
H       -0.29791742       0.97837287      -1.05649727
H       -0.69098149       2.05049896       0.32076768
H       -2.13820732       0.11565275       1.21039641
H       -3.16559528       0.17358966      -0.79747864
H       -0.51001567      -1.84488713       1.27368319
H       -0.18640810      -1.50746236      -0.44922011
16
Frame=3 idx=001779 GeodesicLength=0.16457396815904685 rxn_smarts="[C:1]([C@@:2]1([H:10])[C:3]([H:11])([H:12])[C@:4]([O:5][H:14])([H:13])[C:6]1([H:15])[H:16])([H:7])([H:8])[H:9]>>[C:1]([H:7])([H:8])([H:9])[H:10].[C:2]1[C:3]([H:11])([H:12])[C:4]([O:5][H:14])([H:13])[C:6]1([H:15])[H:16]"
C        2.29646955       0.07463024      -0.34775402
C        0.40858857       0.16412099       0.84932062
C       -0.52426403       1.01579496       0.01157518
C       -1.58302093      -0.07967031       0.29188003
O       -2.44901497      -0.45529932      -0.75118764
C       -0.42465106      -1.06134858       0.52178927
H        2.45332433       1.07673274      -0.74097087
H        1.84312192      -0.56379808      -1.09905804
H        3.23653934      -0.36980187      -0.01913151
H        1.75799352       0.23757217       0.77798522
H       -0.30316078       0.97809554      -1.06010035
H       -0.69515487       2.04863125       0.31868431
H       -2.14030116       0.11666161       1.21167606
H       -3.17364551       0.17133553      -0.79411011
H       -0.51224467      -1.84210370       1.27697774
H       -0.19057926      -1.51155316      -0.44757588
16
Frame=4 idx=001779 GeodesicLength=0.2194772046712431 rxn_smarts="[C:1]([C@@:2]1([H:10])[C:3]([H:11])([H:12])[C@:4]([O:5][H:14])([H:13])[C:6]1([H:15])[H:16])([H:7])([H:8])[H:9]>>[C:1]([H:7])([H:8])([H:9])[H:10].[C:2]1[C:3]([H:11])([H:12])[C:4]([O:5][H:14])([H:13])[C:6]1([H:15])[H:16]"
C        2.30018083       0.07534639      -0.34517402
C        0.41213691       0.16140876       0.83337124
C       -0.53041356       1.01400911       0.00772740
C       -1.58812655      -0.08067968       0.29164282
O       -2.45776299      -0.45797954      -0.74771432
C       -0.42981795      -1.06167694       0.52136609
H        2.47322376       1.07741565      -0.73264131
H        1.85443789      -0.54974348      -1.11306092
H        3.23583218      -0.38368160      -0.02343263
H        1.77146360       0.24925489       0.79840844
H       -0.30862703       0.97776186      -1.06391125
H       -0.69913628       2.04668481       0.31653914
H       -2.14217005       0.11771523       1.21317042
H       -3.18192492       0.16919635      -0.79030130
H       -0.51429448      -1.83929118       1.28014744
H       -0.19500135      -1.51574065      -0.44613725
16
Frame=5 idx=001779 GeodesicLength=0.2743983982682135 rxn_smarts="[C:1]([C@@:2]1([H:10])[C:3]([H:11])([H:12])[C@:4]([O:5][H:14])([H:13])[C:6]1([H:15])[H:16])([H:7])([H:8])[H:9]>>[C:1]([H:7])([H:8])([H:9])[H:10].[C:2]1[C:3]([H:11])([H:12])[C:4]([O:5][H:14])([H:13])[C:6]1([H:15])[H:16]"
C        2.30398665       0.07604013      -0.34267896
C        0.41578426       0.15850308       0.81684927
C       -0.53655600       1.01213590       0.00372451
C       -1.59324061      -0.08167983       0.29149293
O       -2.46675718      -0.46060451      -0.74394045
C       -0.43498133      -1.06203562       0.52077777
H        2.49346360       1.07786668      -0.72407281
H        1.86659866      -0.53547049      -1.12712716
H        3.23480011      -0.39725564      -0.02697136
H        1.78419060       0.26095382       0.81843446
H       -0.31431377       0.97735711      -1.06792925
H       -0.70292028       2.04465218       0.31431387
H       -2.14381429       0.11883155       1.21486011
H       -3.19040561       0.16717152      -0.78606801
H       -0.51616746      -1.83643007       1.28320924
H       -0.19966735      -1.52003582      -0.44487419
16
Frame=6 idx=001779 GeodesicLength=0.3293318963471799 rxn_smarts="[C:1]([C@@:2]1([H:10])[C:3]([H:11])([H:12])[C@:4]([O:5][H:14])([H:13])[C:6]1([H:15])[H:16])([H:7])([H:8])[H:9]>>[C:1]([H:7])([H:8])([H:9])[H:10].[C:2]1[C:3]([H:11])([H:12])[C:4]([O:5][H:14])([H:13])[C:6]1([H:15])[H:16]"
C        2.30788232       0.07672925      -0.34029328
C        0.41951290       0.15540279       0.79976318
C       -0.54268041       1.01017065      -0.00043719
C       -1.59835770      -0.08266784       0.29142745
O       -2.47598285      -0.46317922      -0.73986865
C       -0.44013873      -1.06242134       0.52004221
H        2.51400631       1.07812143      -0.71520800
H        1.87958956      -0.52095165      -1.14124562
H        3.23346836      -0.41053908      -0.02983997
H        1.79616448       0.27260965       0.83810019
H       -0.32021739       0.97687125      -1.07215913
H       -0.70649484       2.04253104       0.31199190
H       -2.14523558       0.12002452       1.21673173
H       -3.19906825       0.16525974      -0.78142919
H       -0.51787064      -1.83350853       1.28618450
H       -0.20457756      -1.52445264      -0.44376013
16
Frame=7 idx=001779 GeodesicLength=0.3842732168481081 rxn_smarts="[C:1]([C@@:2]1([H:10])[C:3]([H:11])([H:12])[C@:4]([O:5][H:14])([H:13])[C:6]1([H:15])[H:16])([H:7])([H:8])[H:9]>>[C:1]([H:7])([H:8])([H:9])[H:10].[C:2]1[C:3]([H:11])([H:12])[C:4]([O:5][H:14])([H:13])[C:6]1([H:15])[H:16]"
C        2.31186320       0.07742999      -0.33803773
C        0.42330654       0.15210644       0.78211849
C       -0.54877640       1.00810911      -0.00476315
C       -1.60347227      -0.08364076       0.29144363
O       -2.48542656      -0.46570878      -0.73550023
C       -0.44528738      -1.06283077       0.51917588
H        2.53481666       1.07821155      -0.70599011
H        1.89339678      -0.50615679      -1.15540562
H        3.23185790      -0.42354713      -0.03212914
H        1.80737503       0.28416567       0.85744468
H       -0.32633464       0.97629394      -1.07660748
H       -0.70984775       2.04031974       0.30955488
H       -2.14643392       0.12130818       1.21877311
H       -3.20789542       0.16345884      -0.77640077
H       -0.51940914      -1.83051461       1.28909357
H       -0.20973261      -1.52900461      -0.44277002
16
Frame=8 idx=001779 GeodesicLength=0.43921794127575786 rxn_smarts="[C:1]([C@@:2]1([H:10])[C:3]([H:11])([H:12])[C@:4]([O:5][H:14])([H:13])[C:6]1([H:15])[H:16])([H:7])([H:8])[H:9]>>[C:1]([H:7])([H:8])([H:9])[H:10].[C:2]1[C:3]([H:11])([H:12])[C:4]([O:5][H:14])([H:13])[C:6]1([H:15])[H:16]"
C        2.31592446       0.07815685      -0.33592963
C        0.42715016       0.14861153       0.76391774
C       -0.55483414       1.00594727      -0.00925977
C       -1.60857849      -0.08459550       0.29153903
O       -2.49507605      -0.46819734      -0.73083507
C       -0.45042414      -1.06326066       0.51819330
H        2.55585883       1.07816371      -0.69636644
H        1.90800926      -0.49105739      -1.16959479
H        3.22998707      -0.43629190      -0.03392558
H        1.81781082       0.29556905       0.87650781
H       -0.33266283       0.97561496      -1.08128175
H       -0.71296668       2.03801676       0.30698407
H       -2.14740750       0.12269628       1.22097321
H       -3.21687123       0.16176734      -0.77099568
H       -0.52078600      -1.82743663       1.29195444
H       -0.21513354      -1.53370433      -0.44188088
16
Frame=9 idx=001779 GeodesicLength=0.4941619224918879 rxn_smarts="[C:1]([C@@:2]1([H:10])[C:3]([H:11])([H:12])[C@:4]([O:5][H:14])([H:13])[C:6]1([H:15])[H:16])([H:7])([H:8])[H:9]>>[C:1]([H:7])([H:8])([H:9])[H:10].[C:2]1[C:3]([H:11])([H:12])[C:4]([O:5][H:14])([H:13])[C:6]1([H:15])[H:16]"
C        2.32006126       0.07892277      -0.33398329
C        0.43102997       0.14491473       0.74516034
C       -0.56084422       1.00368115      -0.01393511
C       -1.61367014      -0.08552880       0.29171139
O       -2.50492027      -0.47064848      -0.72587132
C       -0.45554536      -1.06370772       0.51710716
H        2.57709758       1.07800051      -0.68628528
H        1.92341766      -0.47562332      -1.18380006
H        3.22787127      -0.44878464      -0.03531266
H        1.82745876       0.30676979       0.89533007
H       -0.33919989       0.97482348      -1.08619092
H       -0.71583889       2.03562069       0.30425901
H       -2.14815235       0.12420273       1.22332209
H       -3.22598160       0.16018371      -0.76522318
H       -0.52200205      -1.82426291       1.29478329
H       -0.22078173      -1.53856368      -0.44107151
16
Frame=10 idx=001779 GeodesicLength=0.5491013552086889 rxn_smarts="[C:1]([C@@:2]1([H:10])[C:3]([H:11])([H:12])[C@:4]([O:5][H:14])([H:13])[C:6]1([H:15])[H:16])([H:7])([H:8])[H:9]>>[C:1]([H:7])([H:8])([H:9])[H:10].[C:2]1[C:3]([H:11])([H:12])[C:4]([O:5][H:14])([H:13])[C:6]1([H:15])[H:16]"
C        2.32426869       0.07973892      -0.33221035
C        0.43493335       0.14101125       0.72584234
C       -0.56679777       1.00130681      -0.01879811
C       -1.61874074      -0.08643730       0.29195892
O       -2.51494973      -0.47306440      -0.72060524
C       -0.46064691      -1.06416899       0.51592759
H        2.59849651       1.07773949      -0.67569963
H        1.93961662      -0.45982765      -1.19800594
H        3.22552420      -0.46103331      -0.03636720
H        1.83630305       0.31772368       0.91395108
H       -0.34594459       0.97390892      -1.09134476
H       -0.71845138       2.03312989       0.30135934
H       -2.14866222       0.12584088       1.22581131
H       -3.23521403       0.15870783      -0.75908879
H       -0.52305572      -1.82098245       1.29759304
H       -0.22667933      -1.54359357      -0.44032359
16
Frame=11 idx=001779 GeodesicLength=0.6040327878491105 rxn_smarts="[C:1]([C@@:2]1([H:10])[C:3]([H:11])([H:12])[C@:4]([O:5][H:14])([H:13])[C:6]1([H:15])[H:16])([H:7])([H:8])[H:9]>>[C:1]([H:7])([H:8])([H:9])[H:10].[C:2]1[C:3]([H:11])([H:12])[C:4]([O:5][H:14])([H:13])[C:6]1([H:15])[H:16]"
C        2.32854176       0.08061525      -0.33062003
C        0.43884867       0.13689524       0.70595688
C       -0.57268604       0.99882008      -0.02385947
C       -1.62378324      -0.08731743       0.29228012
O       -2.52515609      -0.47544674      -0.71503106
C       -0.46572415      -1.06464157       0.51466307
H        2.62001940       1.07739496      -0.66456221
H        1.95660231      -0.44364099      -1.21219617
H        3.22295728      -0.47304573      -0.03716276
H        1.84432495       0.32838903       0.93241010
H       -0.35289631       0.97285969      -1.09675471
H       -0.72079040       2.03054267       0.29826246
H       -2.14892844       0.12762453       1.22843354
H       -3.24455759       0.15733979      -0.75259426
H       -0.52394326      -1.81758436       1.30039485
H       -0.23282885      -1.54880443      -0.43962035
16
Frame=12 idx=001779 GeodesicLength=0.6589531939638972 rxn_smarts="[C:1]([C@@:2]1([H:10])[C:3]([H:11])([H:12])[C@:4]([O:5][H:14])([H:13])[C:6]1([H:15])[H:16])([H:7])([H:8])[H:9]>>[C:1]([H:7])([H:8])([H:9])[H:10].[C:2]1[C:3]([H:11])([H:12])[C:4]([O:5][H:14])([H:13])[C:6]1([H:15])[H:16]"
C        2.33287564       0.08156052      -0.32921913
C        0.44276516       0.13255962       0.68549369
C       -0.57850035       0.99621637      -0.02913214
C       -1.62879012      -0.08816529       0.29267392
O       -2.53553273      -0.47779615      -0.70914031
C       -0.47077189      -1.06512273       0.51331973
H        2.64163005       1.07697794      -0.65282511
H        1.97437353      -0.42703208      -1.22635300
H        3.22018026      -0.48482893      -0.03776826
H        1.85150210       0.33872667       0.95074561
H       -0.36005528       0.97166275      -1.10243438
H       -0.72284118       2.02785717       0.29494270
H       -2.14893938       0.12956816       1.23118284
H       -3.25400377       0.15607992      -0.74573588
H       -0.52465855      -1.81405800       1.30319712
H       -0.23923351      -1.55420593      -0.43894740
16
Frame=13 idx=001779 GeodesicLength=0.713859375011109 rxn_smarts="[C:1]([C@@:2]1([H:10])[C:3]([H:11])([H:12])[C@:4]([O:5][H:14])([H:13])[C:6]1([H:15])[H:16])([H:7])([H:8])[H:9]>>[C:1]([H:7])([H:8])([H:9])[H:10].[C:2]1[C:3]([H:11])([H:12])[C:4]([O:5][H:14])([H:13])[C:6]1([H:15])[H:16]"
C        2.33726492       0.08258220      -0.32801302
C        0.44667294       0.12799537       0.66444043
C       -0.58423195       0.99349100      -0.03462894
C       -1.63375315      -0.08897684       0.29313964
O       -2.54607344      -0.48011162      -0.70292323
C       -0.47578442      -1.06561024       0.51190188
H        2.66328748       1.07649540      -0.64044648
H        1.99293215      -0.40997478      -1.24045460
H        3.21720348      -0.49638479      -0.03824719
H        1.85780811       0.34870180       0.96899385
H       -0.36742210       0.97030569      -1.10839715
H       -0.72458805       2.02507111       0.29137565
H       -2.14868136       0.13168561       1.23405422
H       -3.26354368       0.15493117      -0.73850820
H       -0.52519376      -1.81039392       1.30600548
H       -0.24589716      -1.55980717      -0.43829235
16
Frame=14 idx=001779 GeodesicLength=0.7687483795180057 rxn_smarts="[C:1]([C@@:2]1([H:10])[C:3]([H:11])([H:12])[C@:4]([O:5][H:14])([H:13])[C:6]1([H:15])[H:16])([H:7])([H:8])[H:9]>>[C:1]([H:7])([H:8])([H:9])[H:10].[C:2]1[C:3]([H:11])([H:12])[C:4]([O:5][H:14])([H:13])[C:6]1([H:15])[H:16]"
C        2.34170387       0.08368669      -0.32700537
C        0.45056280       0.12319184       0.64278207
C       -0.58987183       0.99063886      -0.04036399
C       -1.63866338      -0.08974774       0.29367702
O       -2.55677294      -0.48239075      -0.69636787
C       -0.48075546      -1.06610217       0.51041172
H        2.68494804       1.07595140      -0.62738595
H        2.01228231      -0.39244367      -1.25447624
H        3.21403706      -0.50771296      -0.03865836
H        1.86321214       0.35828255       0.98718927
H       -0.37499797       0.96877533      -1.11465760
H       -0.72601408       2.02218182       0.28753531
H       -2.14813787       0.13399105       1.23704378
H       -3.27316946       0.15389772      -0.73090171
H       -0.52553900      -1.80658333       1.30882278
H       -0.25282424      -1.56561664      -0.43764487
16
Frame=15 idx=001779 GeodesicLength=0.8236176310357309 rxn_smarts="[C:1]([C@@:2]1([H:10])[C:3]([H:11])([H:12])[C@:4]([O:5][H:14])([H:13])[C:6]1([H:15])[H:16])([H:7])([H:8])[H:9]>>[C:1]([H:7])([H:8])([H:9])[H:10].[C:2]1[C:3]([H:11])([H:12])[C:4]([O:5][H:14])([H:13])[C:6]1([H:15])[H:16]"
C        2.34618656       0.08487959      -0.32619793
C        0.45442607       0.11813683       0.62050083
C       -0.59541048       0.98765404      -0.04635385
C       -1.64351086      -0.09047322       0.29428622
O       -2.56762714      -0.48463001      -0.68945932
C       -0.48567803      -1.06659696       0.50884946
H        2.70656631       1.07534804      -0.61360092
H        2.03242958      -0.37441054      -1.26839108
H        3.21069058      -0.51881266      -0.03905721
H        1.86767842       0.36743849       1.00536476
H       -0.38278456       0.96705633      -1.12123262
H       -0.72710066       2.01918627       0.28339165
H       -2.14728887       0.13649973       1.24014879
H       -3.28287485       0.15298455      -0.72290145
H       -0.52568226      -1.80261808       1.31164922
H       -0.26001981      -1.57164242      -0.43699655
16
Frame=16 idx=001779 GeodesicLength=0.8784647835551485 rxn_smarts="[C:1]([C@@:2]1([H:10])[C:3]([H:11])([H:12])[C@:4]([O:5][H:14])([H:13])[C:6]1([H:15])[H:16])([H:7])([H:8])[H:9]>>[C:1]([H:7])([H:8])([H:9])[H:10].[C:2]1[C:3]([H:11])([H:12])[C:4]([O:5][H:14])([H:13])[C:6]1([H:15])[H:16]"
C        2.35070646       0.08616581      -0.32559093
C        0.45825452       0.11281656       0.59757655
C       -0.60083807       0.98453014      -0.05261662
C       -1.64828462      -0.09114812       0.29496784
O       -2.57863269      -0.48682430      -0.68218009
C       -0.49054431      -1.06709334       0.50721296
H        2.72809418       1.07468467      -0.59904996
H        2.05338147      -0.35584783      -1.28216852
H        3.20717328      -0.52968134      -0.03949425
H        1.87116583       0.37614195       1.02355087
H       -0.39078412       0.96513231      -1.12814049
H       -0.72782793       2.01608106       0.27891239
H       -2.14611087       0.13922730       1.24336756
H       -3.29265453       0.15219798      -0.71448750
H       -0.52560925      -1.79849111       1.31448157
H       -0.26748936      -1.57789173      -0.43634135
