13
Frame=0 idx=000696 GeodesicLength=0.0 rxn_smarts="[C:1]([c:2]1[c:3]([H:10])[n:4]([H:11])[c:5]([H:12])[c:6]1[H:13])([H:7])([H:8])[H:9]>>[C:1](=[C:2]1[C+:3]([H:10])[N:4]([H:11])[C:5]([H:12])=[C-:6]1)([H:8])[H:9].[H:7][H:13]"
C        1.79624117      -0.04961976      -0.16532894
C        0.41997214      -0.12550781      -0.02430813
C       -0.40975928      -1.20499804      -0.36423364
N       -1.67205706      -0.75417770      -0.36228520
C       -1.69628616       0.57848215       0.07738946
C       -0.42923777       0.97196861       0.34310474
H        1.71861040       1.48883826       1.16058887
H        2.40382753      -0.95004332      -0.13474192
H        2.26552630       0.82540780      -0.58637963
H       -0.16286682      -2.17650929      -0.76776396
H       -2.47951220      -1.34676960      -0.47104323
H       -2.64954966       1.04708126       0.26877614
H        0.89509147       1.69584741       1.02622541
13
Frame=1 idx=000696 GeodesicLength=0.06589296896289391 rxn_smarts="[C:1]([c:2]1[c:3]([H:10])[n:4]([H:11])[c:5]([H:12])[c:6]1[H:13])([H:7])([H:8])[H:9]>>[C:1](=[C:2]1[C+:3]([H:10])[N:4]([H:11])[C:5]([H:12])=[C-:6]1)([H:8])[H:9].[H:7][H:13]"
C        1.80256857      -0.05049281      -0.14744537
C        0.42064121      -0.11983986      -0.04334017
C       -0.40874399      -1.20362919      -0.37113143
N       -1.67114512      -0.75483871      -0.36065650
C       -1.69565792       0.57717752       0.08119034
C       -0.42740525       0.97919499       0.32914322
H        1.71866890       1.49397012       1.16198559
H        2.39660216      -0.96062737      -0.13747688
H        2.27643181       0.81245355      -0.58956720
H       -0.16220067      -2.17704936      -0.77004244
H       -2.47844507      -1.34739444      -0.46999584
H       -2.64861682       1.04135888       0.28446381
H        0.87730219       1.70971668       1.03287288
13
Frame=2 idx=000696 GeodesicLength=0.13165971486419809 rxn_smarts="[C:1]([c:2]1[c:3]([H:10])[n:4]([H:11])[c:5]([H:12])[c:6]1[H:13])([H:7])([H:8])[H:9]>>[C:1](=[C:2]1[C+:3]([H:10])[N:4]([H:11])[C:5]([H:12])=[C-:6]1)([H:8])[H:9].[H:7][H:13]"
C        1.80830496      -0.05086634      -0.13128665
C        0.42141448      -0.11334955      -0.06518019
C       -0.40765188      -1.20211447      -0.37817611
N       -1.67019396      -0.75557858      -0.35858128
C       -1.69475390       0.57623424       0.08414321
C       -0.42549714       0.98651899       0.31456547
H        1.71853858       1.49708508       1.16474447
H        2.38923865      -0.96979687      -0.13988873
H        2.28789346       0.79987273      -0.59231272
H       -0.16161889      -2.17813226      -0.77079642
H       -2.47734522      -1.34831842      -0.46720439
H       -2.64718261       1.03609607       0.29943430
H        0.85885346       1.72234936       1.04053907
13
Frame=3 idx=000696 GeodesicLength=0.19735378376494794 rxn_smarts="[C:1]([c:2]1[c:3]([H:10])[n:4]([H:11])[c:5]([H:12])[c:6]1[H:13])([H:7])([H:8])[H:9]>>[C:1](=[C:2]1[C+:3]([H:10])[N:4]([H:11])[C:5]([H:12])=[C-:6]1)([H:8])[H:9].[H:7][H:13]"
C        1.81327616      -0.05065222      -0.11711016
C        0.42229550      -0.10623337      -0.08926642
C       -0.40644733      -1.20048676      -0.38520355
N       -1.66913293      -0.75639873      -0.35604140
C       -1.69352327       0.57574562       0.08598903
C       -0.42351398       0.99362935       0.30022316
H        1.71844165       1.49799043       1.16893714
H        2.38182357      -0.97740927      -0.14261291
H        2.29938840       0.78800261      -0.59495793
H       -0.16106239      -2.17984504      -0.76963892
H       -2.47613757      -1.34957681      -0.46253804
H       -2.64521861       1.03171229       0.31255702
H        0.83981080       1.73352191       1.04966297
13
Frame=4 idx=000696 GeodesicLength=0.26300978505444794 rxn_smarts="[C:1]([c:2]1[c:3]([H:10])[n:4]([H:11])[c:5]([H:12])[c:6]1[H:13])([H:7])([H:8])[H:9]>>[C:1](=[C:2]1[C+:3]([H:10])[N:4]([H:11])[C:5]([H:12])=[C-:6]1)([H:8])[H:9].[H:7][H:13]"
C        1.81740691      -0.04988469      -0.10486059
C        0.42327397      -0.09882524      -0.11463871
C       -0.40513084      -1.19878220      -0.39213661
N       -1.66790335      -0.75715631      -0.35345111
C       -1.69193885       0.57569275       0.08677485
C       -0.42145367       1.00031409       0.28669354
H        1.71861827       1.49702114       1.17414675
H        2.37442758      -0.98353416      -0.14574857
H        2.31042474       0.77683051      -0.59797904
H       -0.16045988      -2.18228104      -0.76610389
H       -2.47479017      -1.35086658      -0.45699077
H       -2.64270001       1.02809420       0.32405905
H        0.82022531       1.74337753       1.06023510
13
Frame=5 idx=000696 GeodesicLength=0.32865505744452705 rxn_smarts="[C:1]([c:2]1[c:3]([H:10])[n:4]([H:11])[c:5]([H:12])[c:6]1[H:13])([H:7])([H:8])[H:9]>>[C:1](=[C:2]1[C+:3]([H:10])[N:4]([H:11])[C:5]([H:12])=[C-:6]1)([H:8])[H:9].[H:7][H:13]"
C        1.82079837      -0.04870563      -0.09429249
C        0.42429240      -0.09151907      -0.14005789
C       -0.40371899      -1.19710154      -0.39868559
N       -1.66647505      -0.75772813      -0.35120197
C       -1.69006385       0.57594383       0.08687794
C       -0.41929823       1.00646816       0.27437414
H        1.71936395       1.49483679       1.17976600
H        2.36716674      -0.98834705      -0.14906251
H        2.32064780       0.76609462      -0.60195499
H       -0.15978536      -2.18533376      -0.76035539
H       -2.47331062      -1.35186359      -0.45184252
H       -2.63981349       1.02498547       0.33442289
H        0.80019633       1.75226992       1.07201237
13
Frame=6 idx=000696 GeodesicLength=0.3944204354928175 rxn_smarts="[C:1]([c:2]1[c:3]([H:10])[n:4]([H:11])[c:5]([H:12])[c:6]1[H:13])([H:7])([H:8])[H:9]>>[C:1](=[C:2]1[C+:3]([H:10])[N:4]([H:11])[C:5]([H:12])=[C-:6]1)([H:8])[H:9].[H:7][H:13]"
C        1.82344437      -0.04721133      -0.08511149
C        0.42537548      -0.08462176      -0.16451472
C       -0.40224348      -1.19539579      -0.40522202
N       -1.66483361      -0.75807279      -0.34948510
C       -1.68791805       0.57646333       0.08632511
C       -0.41705090       1.01194781       0.26370234
H        1.72092760       1.49186634       1.18546433
H        2.36004920      -0.99206613      -0.15248987
H        2.32968276       0.75560192      -0.60708611
H       -0.15897153      -2.18875814      -0.75293225
H       -2.47162407      -1.35265143      -0.44695491
H       -2.63657850       1.02241006       0.34344964
H        0.77974075       1.76048791       1.08485504
13
Frame=7 idx=000696 GeodesicLength=0.4603120585758256 rxn_smarts="[C:1]([c:2]1[c:3]([H:10])[n:4]([H:11])[c:5]([H:12])[c:6]1[H:13])([H:7])([H:8])[H:9]>>[C:1](=[C:2]1[C+:3]([H:10])[N:4]([H:11])[C:5]([H:12])=[C-:6]1)([H:8])[H:9].[H:7][H:13]"
C        1.82558572      -0.04548244      -0.07702295
C        0.42646447      -0.07826017      -0.18757534
C       -0.40072850      -1.19372592      -0.41168859
N       -1.66304268      -0.75821338      -0.34831599
C       -1.68557812       0.57710507       0.08547838
C       -0.41472699       1.01683965       0.25449306
H        1.72335726       1.48848659       1.19100296
H        2.35311461      -0.99496724      -0.15568478
H        2.33766518       0.74512145      -0.61346761
H       -0.15802335      -2.19238297      -0.74432076
H       -2.46985017      -1.35308896      -0.44294974
H       -2.63310230       1.02009629       0.35174285
H        0.75886486       1.76847201       1.09830851
13
Frame=8 idx=000696 GeodesicLength=0.5263345057121922 rxn_smarts="[C:1]([c:2]1[c:3]([H:10])[n:4]([H:11])[c:5]([H:12])[c:6]1[H:13])([H:7])([H:8])[H:9]>>[C:1](=[C:2]1[C+:3]([H:10])[N:4]([H:11])[C:5]([H:12])=[C-:6]1)([H:8])[H:9].[H:7][H:13]"
C        1.82726925      -0.04354858      -0.06990394
C        0.42760068      -0.07244488      -0.20905122
C       -0.39919554      -1.19201788      -0.41843757
N       -1.66110981      -0.75811783      -0.34781145
C       -1.68309875       0.57786677       0.08430256
C       -0.41231967       1.02115413       0.24678666
H        1.72676790       1.48483157       1.19628555
H        2.34632858      -0.99720746      -0.15862849
H        2.34456174       0.73455984      -0.62105897
H       -0.15691314      -2.19607615      -0.73462604
H       -2.46792871      -1.35329493      -0.43951438
H       -2.62945002       1.01803280       0.35925990
H        0.73748751       1.77626260       1.11239738
13
Frame=9 idx=000696 GeodesicLength=0.5924859469101581 rxn_smarts="[C:1]([c:2]1[c:3]([H:10])[n:4]([H:11])[c:5]([H:12])[c:6]1[H:13])([H:7])([H:8])[H:9]>>[C:1](=[C:2]1[C+:3]([H:10])[N:4]([H:11])[C:5]([H:12])=[C-:6]1)([H:8])[H:9].[H:7][H:13]"
C        1.82844112      -0.04144803      -0.06374654
C        0.42869819      -0.06750950      -0.22780290
C       -0.39767254      -1.19042891      -0.42507092
N       -1.65896595      -0.75774464      -0.34816139
C       -1.68045090       0.57852782       0.08340575
C       -0.40982884       1.02471296       0.24108324
H        1.73167690       1.48148179       1.20067987
H        2.33977352      -0.99874979      -0.16110472
H        2.34983194       0.72368494      -0.63053850
H       -0.15557823      -2.19983959      -0.72351558
H       -2.46594386      -1.35277227      -0.43858460
H       -2.62573602       1.01596135       0.36631441
H        0.71575466       1.78412388       1.12704186
13
Frame=10 idx=000696 GeodesicLength=0.6586789898711601 rxn_smarts="[C:1]([c:2]1[c:3]([H:10])[n:4]([H:11])[c:5]([H:12])[c:6]1[H:13])([H:7])([H:8])[H:9]>>[C:1](=[C:2]1[C+:3]([H:10])[N:4]([H:11])[C:5]([H:12])=[C-:6]1)([H:8])[H:9].[H:7][H:13]"
C        1.82959014      -0.03907559      -0.05848156
C        0.42979391      -0.06262528      -0.24621401
C       -0.39611290      -1.18874596      -0.43202239
N       -1.65682488      -0.75738317      -0.34846517
C       -1.67777434       0.57929254       0.08221576
C       -0.40728695       1.02803362       0.23607155
H        1.73719503       1.47712666       1.20569222
H        2.33332381      -0.99989419      -0.16373602
H        2.35489135       0.71296827      -0.64053689
H       -0.15414998      -2.20359688      -0.71162834
H       -2.46393969      -1.35234706      -0.43718982
H       -2.62202892       1.01426683       0.37231128
H        0.69332343       1.79198020       1.14198338
13
Frame=11 idx=000696 GeodesicLength=0.72495312889293 rxn_smarts="[C:1]([c:2]1[c:3]([H:10])[n:4]([H:11])[c:5]([H:12])[c:6]1[H:13])([H:7])([H:8])[H:9]>>[C:1](=[C:2]1[C+:3]([H:10])[N:4]([H:11])[C:5]([H:12])=[C-:6]1)([H:8])[H:9].[H:7][H:13]"
C        1.83061641      -0.03645442      -0.05413700
C        0.43089516      -0.05797903      -0.26369309
C       -0.39456830      -1.18696157      -0.43963123
N       -1.65460340      -0.75692875      -0.34908981
C       -1.67504635       0.58009893       0.08083902
C       -0.40469504       1.03095056       0.23214914
H        1.74365250       1.47193470       1.21103829
H        2.32697510      -1.00066410      -0.16660074
H        2.35932756       0.70232539      -0.65137952
H       -0.15253304      -2.20716331      -0.69813232
H       -2.46184951      -1.35185091      -0.43606927
H       -2.61834338       1.01281320       0.37739557
H        0.67017229       1.79987930       1.15731096
13
Frame=12 idx=000696 GeodesicLength=0.7911790270218809 rxn_smarts="[C:1]([c:2]1[c:3]([H:10])[n:4]([H:11])[c:5]([H:12])[c:6]1[H:13])([H:7])([H:8])[H:9]>>[C:1](=[C:2]1[C+:3]([H:10])[N:4]([H:11])[C:5]([H:12])=[C-:6]1)([H:8])[H:9].[H:7][H:13]"
C        1.83166905      -0.03357418      -0.05065824
C        0.43197901      -0.05345673      -0.28055658
C       -0.39298478      -1.18516881      -0.44729511
N       -1.65235912      -0.75644916      -0.34979722
C       -1.67228746       0.58096829       0.07927404
C       -0.40204719       1.03359533       0.22899031
H        1.75087911       1.46555252       1.21713849
H        2.32077612      -1.00106756      -0.16987210
H        2.36339904       0.69187772      -0.66285392
H       -0.15081478      -2.21071049      -0.68366739
H       -2.45972490      -1.35135735      -0.43490385
H       -2.61471542       1.01168524       0.38148687
H        0.64623131       1.80810518       1.17271470
13
Frame=13 idx=000696 GeodesicLength=0.8573882959141422 rxn_smarts="[C:1]([c:2]1[c:3]([H:10])[n:4]([H:11])[c:5]([H:12])[c:6]1[H:13])([H:7])([H:8])[H:9]>>[C:1](=[C:2]1[C+:3]([H:10])[N:4]([H:11])[C:5]([H:12])=[C-:6]1)([H:8])[H:9].[H:7][H:13]"
C        1.83274155      -0.03046532      -0.04800579
C        0.43304101      -0.04915421      -0.29661991
C       -0.39138239      -1.18349658      -0.45477631
N       -1.65004303      -0.75602888      -0.35039958
C       -1.66948844       0.58183613       0.07762856
C       -0.39934952       1.03590158       0.22671557
H        1.75903977       1.45797938       1.22387712
H        2.31473628      -1.00115722      -0.17349687
H        2.36697060       0.68155074      -0.67506414
H       -0.14895370      -2.21391249      -0.66836943
H       -2.45757489      -1.35076969      -0.43414712
H       -2.61116849       1.01083658       0.38461302
H        0.62143126       1.81687999       1.18804488
13
Frame=14 idx=000696 GeodesicLength=0.9235044591273915 rxn_smarts="[C:1]([c:2]1[c:3]([H:10])[n:4]([H:11])[c:5]([H:12])[c:6]1[H:13])([H:7])([H:8])[H:9]>>[C:1](=[C:2]1[C+:3]([H:10])[N:4]([H:11])[C:5]([H:12])=[C-:6]1)([H:8])[H:9].[H:7][H:13]"
C        1.83387679      -0.02715873      -0.04611565
C        0.43408177      -0.04507304      -0.31187641
C       -0.38974461      -1.18199608      -0.46184353
N       -1.64765622      -0.75567111      -0.35088333
C       -1.66665192       0.58272140       0.07585228
C       -0.39659092       1.03788770       0.22525814
H        1.76817206       1.44908789       1.23140286
H        2.30887849      -1.00095983      -0.17749541
H        2.37006386       0.67132898      -0.68796362
H       -0.14697053      -2.21664569      -0.65272909
H       -2.45537414      -1.35020651      -0.43341083
H       -2.60773012       1.01033149       0.38663066
H        0.59564548       1.82635353       1.20317392
13
Frame=15 idx=000696 GeodesicLength=0.9895492773507639 rxn_smarts="[C:1]([c:2]1[c:3]([H:10])[n:4]([H:11])[c:5]([H:12])[c:6]1[H:13])([H:7])([H:8])[H:9]>>[C:1](=[C:2]1[C+:3]([H:10])[N:4]([H:11])[C:5]([H:12])=[C-:6]1)([H:8])[H:9].[H:7][H:13]"
C        1.83511659      -0.02365712      -0.04496840
C        0.43509552      -0.04120752      -0.32637247
C       -0.38805158      -1.18071364      -0.46825306
N       -1.64520537      -0.75542258      -0.35107437
C       -1.66377424       0.58363472       0.07393933
C       -0.39376775       1.03958293       0.22453510
H        1.77829946       1.43856641       1.23997271
H        2.30323830      -1.00047135      -0.18199674
H        2.37270010       0.66129178      -0.70147570
H       -0.14486232      -2.21901622      -0.63708967
H       -2.45313234      -1.34969051      -0.43254899
H       -2.60441311       1.01024083       0.38743879
H        0.56875673       1.83686227       1.21789347
13
Frame=16 idx=000696 GeodesicLength=1.055546371941094 rxn_smarts="[C:1]([c:2]1[c:3]([H:10])[n:4]([H:11])[c:5]([H:12])[c:6]1[H:13])([H:7])([H:8])[H:9]>>[C:1](=[C:2]1[C+:3]([H:10])[N:4]([H:11])[C:5]([H:12])=[C-:6]1)([H:8])[H:9].[H:7][H:13]"
C        1.83649058      -0.01997149      -0.04455162
C        0.43608134      -0.03756185      -0.34010132
C       -0.38629229      -1.17967807      -0.47387170
N       -1.64268167      -0.75531724      -0.35084025
C       -1.66085184       0.58458730       0.07187729
C       -0.39087316       1.04097806       0.22456951
H        1.78954957       1.42626215       1.24966034
H        2.29784099      -0.99969601      -0.18707463
H        2.37485859       0.65146383      -0.71560484
H       -0.14261865      -2.22102600      -0.62168400
H       -2.45083623      -1.34925229      -0.43142938
H       -2.60124714       1.01064950       0.38685809
H        0.54057991       1.84856212       1.23219251
