12
Frame=0 idx=006805 GeodesicLength=0.0 rxn_smarts="[O:1]=[C:2]([C@@:3]1([H:9])[C:4]([H:10])([H:11])[N:5]1[C:6](=[O:7])[H:12])[H:8]>>[O+:1](=[C-:2][H:8])[C@@:3]1([H:9])[C:4]([H:10])([H:11])[N:5]1[C:6](=[O:7])[H:12]"
O        1.69492346       0.48890145      -0.78552129
C        1.59704983      -0.74903475      -0.38630058
C        0.78468797       0.42619020       0.53059341
C       -0.43342553       1.27570896       0.15534583
N       -0.57179011      -0.05033274       0.64264482
C       -1.21606313      -1.10867945       0.01859584
O       -2.22141244      -0.98595744      -0.62250634
H        1.08240266      -1.36662412      -1.16634051
H        1.36475368       0.62134826       1.41578974
H       -0.64565010       1.45675674      -0.89198963
H       -0.69887413       2.06635260       0.84759569
H       -0.73660216      -2.07462976       0.24209298
12
Frame=1 idx=006805 GeodesicLength=0.051371938746530094 rxn_smarts="[O:1]=[C:2]([C@@:3]1([H:9])[C:4]([H:10])([H:11])[N:5]1[C:6](=[O:7])[H:12])[H:8]>>[O+:1](=[C-:2][H:8])[C@@:3]1([H:9])[C:4]([H:10])([H:11])[N:5]1[C:6](=[O:7])[H:12]"
O        1.72588824       0.48603642      -0.77045452
C        1.58950230      -0.75187507      -0.39792826
C        0.78093099       0.42500123       0.53402521
C       -0.43342251       1.27354076       0.15316287
N       -0.57480486      -0.04964384       0.64910220
C       -1.21862027      -1.10973356       0.02718325
O       -2.22216997      -0.98781845      -0.61695344
H        1.08732793      -1.34578641      -1.20308090
H        1.35619978       0.62120906       1.42286130
H       -0.64333841       1.44606016      -0.89623246
H       -0.70252423       2.06915989       0.83819043
H       -0.74496899      -2.07615018       0.26012432
12
Frame=2 idx=006805 GeodesicLength=0.10270038514569343 rxn_smarts="[O:1]=[C:2]([C@@:3]1([H:9])[C:4]([H:10])([H:11])[N:5]1[C:6](=[O:7])[H:12])[H:8]>>[O+:1](=[C-:2][H:8])[C@@:3]1([H:9])[C:4]([H:10])([H:11])[N:5]1[C:6](=[O:7])[H:12]"
O        1.75707744       0.48203917      -0.75458492
C        1.58156269      -0.75446816      -0.41027026
C        0.77713082       0.42375232       0.53735348
C       -0.43344564       1.27131141       0.15090880
N       -0.57790682      -0.04890330       0.65559463
C       -1.22120453      -1.11085000       0.03593442
O       -2.22280075      -0.98986476      -0.61147506
H        1.09255711      -1.32373930      -1.23999069
H        1.34760485       0.62109110       1.42977725
H       -0.64108670       1.43527206      -0.90046709
H       -0.70604507       2.07193236       0.82861259
H       -0.75344339      -2.07757291       0.27860686
12
Frame=3 idx=006805 GeodesicLength=0.15396531939663424 rxn_smarts="[O:1]=[C:2]([C@@:3]1([H:9])[C:4]([H:10])([H:11])[N:5]1[C:6](=[O:7])[H:12])[H:8]>>[O+:1](=[C-:2][H:8])[C@@:3]1([H:9])[C:4]([H:10])([H:11])[N:5]1[C:6](=[O:7])[H:12]"
O        1.78841734       0.47677651      -0.73795388
C        1.57325145      -0.75678264      -0.42332122
C        0.77329149       0.42245981       0.54055756
C       -0.43351273       1.26903339       0.14860517
N       -0.58108874      -0.04810930       0.66211280
C       -1.22381814      -1.11201649       0.04483423
O       -2.22330510      -0.99208290      -0.60608757
H        1.09816976      -1.30054268      -1.27696711
H        1.33899921       0.62104834       1.43649090
H       -0.63895175       1.42443293      -0.90465629
H       -0.70944465       2.07466382       0.81890926
H       -0.76200814      -2.07888079       0.29747613
12
Frame=4 idx=006805 GeodesicLength=0.20514669721569584 rxn_smarts="[O:1]=[C:2]([C@@:3]1([H:9])[C:4]([H:10])([H:11])[N:5]1[C:6](=[O:7])[H:12])[H:8]>>[O+:1](=[C-:2][H:8])[C@@:3]1([H:9])[C:4]([H:10])([H:11])[N:5]1[C:6](=[O:7])[H:12]"
O        1.81982827       0.47011277      -0.72060974
C        1.56457773      -0.75878712      -0.43706559
C        0.76941099       0.42114283       0.54361884
C       -0.43363690       1.26671491       0.14627016
N       -0.58433969      -0.04726107       0.66865233
C       -1.22645826      -1.11321878       0.05387484
O       -2.22367274      -0.99445860      -0.60079531
H        1.10423616      -1.27624379      -1.31391728
H        1.33039945       0.62113628       1.44296251
H       -0.63697927       1.41357592      -0.90877313
H       -0.71272735       2.07734124       0.80912539
H       -0.77063838      -2.08005459       0.31665698
12
Frame=5 idx=006805 GeodesicLength=0.2562166955584052 rxn_smarts="[O:1]=[C:2]([C@@:3]1([H:9])[C:4]([H:10])([H:11])[N:5]1[C:6](=[O:7])[H:12])[H:8]>>[O+:1](=[C-:2][H:8])[C@@:3]1([H:9])[C:4]([H:10])([H:11])[N:5]1[C:6](=[O:7])[H:12]"
O        1.85123333       0.46192077      -0.70259884
C        1.55556247      -0.76045339      -0.45148262
C        0.76549387       0.41982518       0.54652094
C       -0.43383710       1.26437380       0.14392186
N       -0.58764600      -0.04635815       0.67520592
C       -1.22912400      -1.11444650       0.06303712
O       -2.22392327      -0.99697653      -0.59558733
H        1.11083899      -1.25091821      -1.35074436
H        1.32183698       0.62141271       1.44915713
H       -0.63522705       1.40274358      -0.91279252
H       -0.71590617       2.07996610       0.79930727
H       -0.77930204      -2.08108936       0.33605542
12
Frame=6 idx=006805 GeodesicLength=0.307158406259104 rxn_smarts="[O:1]=[C:2]([C@@:3]1([H:9])[C:4]([H:10])([H:11])[N:5]1[C:6](=[O:7])[H:12])[H:8]>>[O+:1](=[C-:2][H:8])[C@@:3]1([H:9])[C:4]([H:10])([H:11])[N:5]1[C:6](=[O:7])[H:12]"
O        1.88255843       0.45207061      -0.68396923
C        1.54622532      -0.76175250      -0.46655242
C        0.76154303       0.41853055       0.54924556
C       -0.43413494       1.26202630       0.14157944
N       -0.59099675      -0.04539916       0.68176957
C       -1.23181659      -1.11568637       0.07231147
O       -2.22406337      -0.99962122      -0.59046265
H        1.11806015      -1.22463695      -1.38735779
H        1.31334284       0.62193254       1.45503361
H       -0.63375245       1.39197690      -0.91668816
H       -0.71899916       2.08253587       0.78950276
H       -0.78796650      -2.08197658       0.35558784
12
Frame=7 idx=006805 GeodesicLength=0.35795012835558404 rxn_smarts="[O:1]=[C:2]([C@@:3]1([H:9])[C:4]([H:10])([H:11])[N:5]1[C:6](=[O:7])[H:12])[H:8]>>[O+:1](=[C-:2][H:8])[C@@:3]1([H:9])[C:4]([H:10])([H:11])[N:5]1[C:6](=[O:7])[H:12]"
O        1.91371795       0.44043301      -0.66476874
C        1.53658411      -0.76265939      -0.48225158
C        0.75755659       0.41728536       0.55177772
C       -0.43455102       1.25968193       0.13926124
N       -0.59437526      -0.04437717       0.68834076
C       -1.23452567      -1.11691620       0.08168292
O       -2.22409966      -1.00236911      -0.58540150
H        1.12597374      -1.19747565      -1.42367626
H        1.30493741       0.62275510       1.46056052
H       -0.63260318       1.38129694      -0.92043993
H       -0.72202953       2.08504312       0.77976021
H       -0.79658549      -2.08269793       0.37515463
12
Frame=8 idx=006805 GeodesicLength=0.40862401073114146 rxn_smarts="[O:1]=[C:2]([C@@:3]1([H:9])[C:4]([H:10])([H:11])[N:5]1[C:6](=[O:7])[H:12])[H:8]>>[O+:1](=[C-:2][H:8])[C@@:3]1([H:9])[C:4]([H:10])([H:11])[N:5]1[C:6](=[O:7])[H:12]"
O        1.94472284       0.42688391      -0.64495461
C        1.52663423      -0.76313571      -0.49859856
C        0.75353706       0.41611200       0.55410508
C       -0.43509007       1.25735919       0.13696121
N       -0.59778921      -0.04329154       0.69491130
C       -1.23726762      -1.11815431       0.09115560
O       -2.22408629      -1.00525302      -0.58033646
H        1.13466701      -1.16938255      -1.45971665
H        1.29662793       0.62390598       1.46571690
H       -0.63180060       1.37071897      -0.92404524
H       -0.72500175       2.08751515       0.77007033
H       -0.80515353      -2.08327808       0.39473109
12
Frame=9 idx=006805 GeodesicLength=0.4591923271811432 rxn_smarts="[O:1]=[C:2]([C@@:3]1([H:9])[C:4]([H:10])([H:11])[N:5]1[C:6](=[O:7])[H:12])[H:8]>>[O+:1](=[C-:2][H:8])[C@@:3]1([H:9])[C:4]([H:10])([H:11])[N:5]1[C:6](=[O:7])[H:12]"
O        1.97553332       0.41127462      -0.62447868
C        1.51635804      -0.76312517      -0.51563686
C        0.74947280       0.41500493       0.55622676
C       -0.43576314       1.25505707       0.13466265
N       -0.60123289      -0.04213358       0.70148514
C       -1.24001529      -1.11938761       0.10074031
O       -2.22401490      -1.00826778      -0.57522763
H        1.14418413      -1.14028311      -1.49550243
H        1.28839992       0.62536120       1.47051337
H       -0.63137897       1.36023401      -0.92753365
H       -0.72792379       2.08995739       0.76040981
H       -0.81361921      -2.08369197       0.41434122
12
Frame=10 idx=006805 GeodesicLength=0.5096054581465703 rxn_smarts="[O:1]=[C:2]([C@@:3]1([H:9])[C:4]([H:10])([H:11])[N:5]1[C:6](=[O:7])[H:12])[H:8]>>[O+:1](=[C-:2][H:8])[C@@:3]1([H:9])[C:4]([H:10])([H:11])[N:5]1[C:6](=[O:7])[H:12]"
O        2.00607268       0.39335619      -0.60329882
C        1.50570796      -0.76260998      -0.53334102
C        0.74537011       0.41398714       0.55812458
C       -0.43658293       1.25276339       0.13235533
N       -0.60467676      -0.04088454       0.70806079
C       -1.24275426      -1.12058817       0.11048180
O       -2.22382199      -1.01141727      -0.57010846
H        1.15452441      -1.11001969      -1.53102078
H        1.28028667       0.62715936       1.47491219
H       -0.63139535       1.34982047      -0.93090233
H       -0.73081741       2.09233123       0.75076531
H       -0.82191313      -2.08389812       0.43397141
12
Frame=11 idx=006805 GeodesicLength=0.5598397723845139 rxn_smarts="[O:1]=[C:2]([C@@:3]1([H:9])[C:4]([H:10])([H:11])[N:5]1[C:6](=[O:7])[H:12])[H:8]>>[O+:1](=[C-:2][H:8])[C@@:3]1([H:9])[C:4]([H:10])([H:11])[N:5]1[C:6](=[O:7])[H:12]"
O        2.03624928       0.37301734      -0.58141690
C        1.49474288      -0.76150041      -0.55173657
C        0.74121596       0.41307918       0.55976903
C       -0.43758091       1.25050814       0.13004565
N       -0.60811566      -0.03955877       0.71461196
C       -1.24545717      -1.12175571       0.12030785
O       -2.22362990      -1.01465791      -0.56480758
H        1.16586148      -1.07873222      -1.56615052
H        1.27228981       0.62931939       1.47886012
H       -0.63188838       1.33953862      -0.93413565
H       -0.73370943       2.09466585       0.74116386
H       -0.82997796      -2.08392350       0.45348875
12
Frame=12 idx=006805 GeodesicLength=0.6100037762173325 rxn_smarts="[O:1]=[C:2]([C@@:3]1([H:9])[C:4]([H:10])([H:11])[N:5]1[C:6](=[O:7])[H:12])[H:8]>>[O+:1](=[C-:2][H:8])[C@@:3]1([H:9])[C:4]([H:10])([H:11])[N:5]1[C:6](=[O:7])[H:12]"
O        2.06603334       0.34999080      -0.55881402
C        1.48346116      -0.75978728      -0.57084929
C        0.73702737       0.41233256       0.56115112
C       -0.43877183       1.24832087       0.12774070
N       -0.61155920      -0.03813223       0.72116754
C       -1.24815902      -1.12291329       0.13027285
O       -2.22342250      -1.01806683      -0.55937660
H        1.17826534      -1.04627662      -1.60094638
H        1.26445616       0.63192964       1.48234773
H       -0.63289337       1.32939390      -0.93724322
H       -0.73663012       2.09700626       0.73163314
H       -0.83780732      -2.08379778       0.47291644
12
Frame=13 idx=006805 GeodesicLength=0.6600949874783948 rxn_smarts="[O:1]=[C:2]([C@@:3]1([H:9])[C:4]([H:10])([H:11])[N:5]1[C:6](=[O:7])[H:12])[H:8]>>[O+:1](=[C-:2][H:8])[C@@:3]1([H:9])[C:4]([H:10])([H:11])[N:5]1[C:6](=[O:7])[H:12]"
O        2.09534247       0.32400676      -0.53538338
C        1.47184720      -0.75737874      -0.59074525
C        0.73279958       0.41176593       0.56224846
C       -0.44017678       1.24620833       0.12542402
N       -0.61499546      -0.03659124       0.72771644
C       -1.25082686      -1.12405461       0.14037362
O       -2.22322607      -1.02165127      -0.55373691
H        1.19182817      -1.01254704      -1.63540219
H        1.25679874       0.63500238       1.48534321
H       -0.63446244       1.31937931      -0.94023582
H       -0.73960196       2.09936443       0.72214783
H       -0.84532660      -2.08350425       0.49224997
12
Frame=14 idx=006805 GeodesicLength=0.7100668185046166 rxn_smarts="[O:1]=[C:2]([C@@:3]1([H:9])[C:4]([H:10])([H:11])[N:5]1[C:6](=[O:7])[H:12])[H:8]>>[O+:1](=[C-:2][H:8])[C@@:3]1([H:9])[C:4]([H:10])([H:11])[N:5]1[C:6](=[O:7])[H:12]"
O        2.12398070       0.29474563      -0.51111120
C        1.45989393      -0.75420669      -0.61140415
C        0.72851795       0.41141315       0.56301851
C       -0.44181869       1.24416286       0.12308186
N       -0.61839424      -0.03493545       0.73425413
C       -1.25341930      -1.12515172       0.15061926
O       -2.22302870      -1.02537961      -0.54780623
H        1.20666561      -0.97740783      -1.66942220
H        1.24932869       0.63858258       1.48776982
H       -0.63663117       1.30949905      -0.94312263
H       -0.74265214       2.10169594       0.71270585
H       -0.85244265      -2.08301792       0.51141698
12
Frame=15 idx=006805 GeodesicLength=0.7599594844199434 rxn_smarts="[O:1]=[C:2]([C@@:3]1([H:9])[C:4]([H:10])([H:11])[N:5]1[C:6](=[O:7])[H:12])[H:8]>>[O+:1](=[C-:2][H:8])[C@@:3]1([H:9])[C:4]([H:10])([H:11])[N:5]1[C:6](=[O:7])[H:12]"
O        2.15183535       0.26183004      -0.48587651
C        1.44763028      -0.75018645      -0.63290099
C        0.72419553       0.41132289       0.56342478
C       -0.44373966       1.24222876       0.12070339
N       -0.62174857      -0.03314553       0.74076913
C       -1.25592002      -1.12622532       0.16099775
O       -2.22292836      -1.02928254      -0.54147256
H        1.22295487      -0.94074335      -1.70298547
H        1.24210457       0.64272932       1.48957161
H       -0.63948505       1.29977805      -0.94590610
H       -0.74583228       2.10407064       0.70330114
H       -0.85906666      -2.08237652       0.53037382
12
Frame=16 idx=006805 GeodesicLength=0.8097883742446979 rxn_smarts="[O:1]=[C:2]([C@@:3]1([H:9])[C:4]([H:10])([H:11])[N:5]1[C:6](=[O:7])[H:12])[H:8]>>[O+:1](=[C-:2][H:8])[C@@:3]1([H:9])[C:4]([H:10])([H:11])[N:5]1[C:6](=[O:7])[H:12]"
O        2.17867873       0.22474415      -0.45954067
C        1.43502035      -0.74520332      -0.65530560
C        0.71982218       0.41153222       0.56341907
C       -0.44596431       1.24040254       0.11825502
N       -0.62503572      -0.03120327       0.74726539
C       -1.25828417      -1.12726444       0.17155034
O       -2.22290143      -1.03338229      -0.53466006
H        1.24084721      -0.90223819      -1.73606884
H        1.23515332       0.64749324       1.49067120
H       -0.64308512       1.29019415      -0.94861745
H       -0.74916409       2.10647555       0.69389048
H       -0.86508695      -2.08155035       0.54914113
