10
Frame=0 idx=000136 GeodesicLength=0.0 rxn_smarts="[O:1]=[C:2]1[C:3]([H:7])([H:8])[C@@:4]2([H:9])[O:5][C@@:6]12[H:10]>>[O:1]1[C:2](=[C:3]([H:7])[H:8])[C@@:6]1([C:4](=[O:5])[H:9])[H:10]"
O        0.11800337       1.79907436       1.09062329
C       -0.24881445       0.90985097       0.30656136
C       -1.41178391       0.19691589       0.11856649
C        0.87850348      -1.08302993      -0.04058054
O        0.75449841      -1.05984727      -1.28537271
C        0.99189697       0.29799800      -0.26655727
H       -1.49905772      -0.51372009      -0.68856613
H       -2.31487816       0.51285425       0.62395579
H        0.83982450      -1.88800607       0.68311403
H        1.89180750       0.82790989      -0.54174430
10
Frame=1 idx=000136 GeodesicLength=0.05932813647863806 rxn_smarts="[O:1]=[C:2]1[C:3]([H:7])([H:8])[C@@:4]2([H:9])[O:5][C@@:6]12[H:10]>>[O:1]1[C:2](=[C:3]([H:7])[H:8])[C@@:6]1([C:4](=[O:5])[H:9])[H:10]"
O        0.13197938       1.79155322       1.07889746
C       -0.25581244       0.92537246       0.27779299
C       -1.40859273       0.18463055       0.11755355
C        0.84894298      -1.07861727      -0.03339687
O        0.77400563      -1.06261206      -1.28427838
C        0.99276738       0.30336444      -0.26239506
H       -1.52218475      -0.48077219      -0.72455488
H       -2.29770249       0.47093621       0.66427159
H        0.83594669      -1.87581729       0.69958252
H        1.90065036       0.82196193      -0.53347292
10
Frame=2 idx=000136 GeodesicLength=0.11865364791548097 rxn_smarts="[O:1]=[C:2]1[C:3]([H:7])([H:8])[C@@:4]2([H:9])[O:5][C@@:6]12[H:10]>>[O:1]1[C:2](=[C:3]([H:7])[H:8])[C@@:6]1([C:4](=[O:5])[H:9])[H:10]"
O        0.14515647       1.78381081       1.06750105
C       -0.26231180       0.93841215       0.25250935
C       -1.40534515       0.17324631       0.11549043
C        0.82026433      -1.07458820      -0.02783873
O        0.79312316      -1.06526307      -1.28286202
C        0.99318520       0.30833553      -0.25771013
H       -1.54606445      -0.44974866      -0.75491799
H       -2.27965454       0.43244032       0.69887132
H        0.83357081      -1.86319806       0.71434921
H        1.90807598       0.81655285      -0.52539249
10
Frame=3 idx=000136 GeodesicLength=0.17797822712169772 rxn_smarts="[O:1]=[C:2]1[C:3]([H:7])([H:8])[C@@:4]2([H:9])[O:5][C@@:6]12[H:10]>>[O:1]1[C:2](=[C:3]([H:7])[H:8])[C@@:6]1([C:4](=[O:5])[H:9])[H:10]"
O        0.15771570       1.77582860       1.05656267
C       -0.26835354       0.94951372       0.22995211
C       -1.40211500       0.16248477       0.11267975
C        0.79250451      -1.07090137      -0.02362941
O        0.81211460      -1.06802425      -1.28103176
C        0.99331294       0.31296282      -0.25270606
H       -1.57066012      -0.42015014      -0.78086594
H       -2.26112811       0.39668512       0.72890839
H        0.83217563      -1.85001170       0.72773947
H        1.91443339       0.81161243      -0.51760923
10
Frame=4 idx=000136 GeodesicLength=0.23748017036721814 rxn_smarts="[O:1]=[C:2]1[C:3]([H:7])([H:8])[C@@:4]2([H:9])[O:5][C@@:6]12[H:10]>>[O:1]1[C:2](=[C:3]([H:7])[H:8])[C@@:6]1([C:4](=[O:5])[H:9])[H:10]"
O        0.16974022       1.76775923       1.04625702
C       -0.27395913       0.95914681       0.20961367
C       -1.39886357       0.15212514       0.10932997
C        0.76566265      -1.06763099      -0.02053313
O        0.83113561      -1.07111370      -1.27885212
C        0.99322785       0.31735520      -0.24754666
H       -1.59582019      -0.39168018      -0.80329922
H       -2.24235026       0.36323351       0.75521422
H        0.83133090      -1.83644991       0.74008113
H        1.91989592       0.80725488      -0.51026488
10
Frame=5 idx=000136 GeodesicLength=0.2967167373439681 rxn_smarts="[O:1]=[C:2]1[C:3]([H:7])([H:8])[C@@:4]2([H:9])[O:5][C@@:6]12[H:10]>>[O:1]1[C:2](=[C:3]([H:7])[H:8])[C@@:6]1([C:4](=[O:5])[H:9])[H:10]"
O        0.18129668       1.75916796       1.03621938
C       -0.27918536       0.96735511       0.19100839
C       -1.39562464       0.14210071       0.10547040
C        0.73990805      -1.06441693      -0.01840976
O        0.85037783      -1.07435549      -1.27589082
C        0.99304367       0.32144947      -0.24230035
H       -1.62162461      -0.36380909      -0.82247651
H       -2.22331847       0.33139476       0.77840547
H        0.83047568      -1.82203568       0.75128192
H        1.92465118       0.80314919      -0.50330814
10
Frame=6 idx=000136 GeodesicLength=0.35614233814835483 rxn_smarts="[O:1]=[C:2]1[C:3]([H:7])([H:8])[C@@:4]2([H:9])[O:5][C@@:6]12[H:10]>>[O:1]1[C:2](=[C:3]([H:7])[H:8])[C@@:6]1([C:4](=[O:5])[H:9])[H:10]"
O        0.19252943       1.75014796       1.02653596
C       -0.28396028       0.97441097       0.17378512
C       -1.39237741       0.13228986       0.10106551
C        0.71499862      -1.06125903      -0.01712107
O        0.86989074      -1.07783137      -1.27216390
C        0.99281805       0.32536494      -0.23709541
H       -1.64798778      -0.33646088      -0.83878969
H       -2.20401353       0.30068129       0.79899962
H        0.82918326      -1.80681183       0.76154891
H        1.92891890       0.79946807      -0.49676507
10
Frame=7 idx=000136 GeodesicLength=0.4155347798809609 rxn_smarts="[O:1]=[C:2]1[C:3]([H:7])([H:8])[C@@:4]2([H:9])[O:5][C@@:6]12[H:10]>>[O:1]1[C:2](=[C:3]([H:7])[H:8])[C@@:6]1([C:4](=[O:5])[H:9])[H:10]"
O        0.20334079       1.74114958       1.01730383
C       -0.28840708       0.98058633       0.15786637
C       -1.38904005       0.12253985       0.09633626
C        0.69130011      -1.05832913      -0.01654333
O        0.88967404      -1.08172614      -1.26788189
C        0.99257971       0.32919424      -0.23191939
H       -1.67483498      -0.30957172      -0.85273721
H       -2.18461198       0.27126980       0.81728061
H        0.82739127      -1.79147400       0.77103904
H        1.93260816       0.79636120      -0.49074429
10
Frame=8 idx=000136 GeodesicLength=0.47493345724564273 rxn_smarts="[O:1]=[C:2]1[C:3]([H:7])([H:8])[C@@:4]2([H:9])[O:5][C@@:6]12[H:10]>>[O:1]1[C:2](=[C:3]([H:7])[H:8])[C@@:6]1([C:4](=[O:5])[H:9])[H:10]"
O        0.21376388       1.73200485       1.00844264
C       -0.29253116       0.98597260       0.14298934
C       -1.38567621       0.11285151       0.09121119
C        0.66867614      -1.05553869      -0.01662145
O        0.90986767      -1.08599609      -1.26292237
C        0.99239296       0.33294765      -0.22686985
H       -1.70220775      -0.28290650      -0.86436772
H       -2.16513355       0.24276196       0.83355613
H        0.82491074      -1.77585199       0.77982266
H        1.93593728       0.79375472      -0.48524055
10
Frame=9 idx=000136 GeodesicLength=0.5343888989288027 rxn_smarts="[O:1]=[C:2]1[C:3]([H:7])([H:8])[C@@:4]2([H:9])[O:5][C@@:6]12[H:10]>>[O:1]1[C:2](=[C:3]([H:7])[H:8])[C@@:6]1([C:4](=[O:5])[H:9])[H:10]"
O        0.22380762       1.72273892       0.99984154
C       -0.29635695       0.99068451       0.12891434
C       -1.38226150       0.10323810       0.08559406
C        0.64706572      -1.05282182      -0.01732513
O        0.93052491      -1.09062051      -1.25723774
C        0.99226543       0.33665933      -0.22199209
H       -1.73017537      -0.25625120      -0.87381584
H       -2.14535975       0.21473485       0.84814050
H        0.82151597      -1.75995737       0.78803682
H        1.93897392       0.79159519      -0.48015647
10
Frame=10 idx=000136 GeodesicLength=0.5937825807531996 rxn_smarts="[O:1]=[C:2]1[C:3]([H:7])([H:8])[C@@:4]2([H:9])[O:5][C@@:6]12[H:10]>>[O:1]1[C:2](=[C:3]([H:7])[H:8])[C@@:6]1([C:4](=[O:5])[H:9])[H:10]"
O        0.23346012       1.71325123       0.99148573
C       -0.29992765       0.99474070       0.11559209
C       -1.37880131       0.09362484       0.07952604
C        0.62646343      -1.05017713      -0.01856172
O        0.95158494      -1.09560214      -1.25072948
C        0.99216839       0.34029426      -0.21730029
H       -1.75864942      -0.22939563      -0.88113360
H       -2.12544348       0.18724001       0.86100005
H        0.81745982      -1.74379146       0.79566293
H        1.94168516       0.78981530      -0.47554175
10
Frame=11 idx=000136 GeodesicLength=0.6532931467587235 rxn_smarts="[O:1]=[C:2]1[C:3]([H:7])([H:8])[C@@:4]2([H:9])[O:5][C@@:6]12[H:10]>>[O:1]1[C:2](=[C:3]([H:7])[H:8])[C@@:6]1([C:4](=[O:5])[H:9])[H:10]"
O        0.24276180       1.70375032       0.98337148
C       -0.30322741       0.99829574       0.10283078
C       -1.37532384       0.08403192       0.07292402
C        0.60679585      -1.04759950      -0.02036566
O        0.97315951      -1.10095095      -1.24351583
C        0.99219648       0.34395224      -0.21282110
H       -1.78774891      -0.20247378      -0.88634085
H       -2.10529834       0.16003085       0.87239859
H        0.81240187      -1.72754532       0.80282967
H        1.94428301       0.78850848      -0.47131110
10
Frame=12 idx=000136 GeodesicLength=0.7127683360536438 rxn_smarts="[O:1]=[C:2]1[C:3]([H:7])([H:8])[C@@:4]2([H:9])[O:5][C@@:6]12[H:10]>>[O:1]1[C:2](=[C:3]([H:7])[H:8])[C@@:6]1([C:4](=[O:5])[H:9])[H:10]"
O        0.25167908       1.69403020       0.97544997
C       -0.30631728       1.00132199       0.09058946
C       -1.37180019       0.07442837       0.06575858
C        0.58804074      -1.04508956      -0.02266340
O        0.99515342      -1.10663580      -1.23542520
C        0.99224750       0.34756429      -0.20857265
H       -1.81735309      -0.17513566      -0.88942829
H       -2.08492344       0.13308884       0.88222426
H        0.80667606      -1.71111890       0.80956625
H        1.94659721       0.78754623      -0.46749898
10
Frame=13 idx=000136 GeodesicLength=0.7723693360783509 rxn_smarts="[O:1]=[C:2]1[C:3]([H:7])([H:8])[C@@:4]2([H:9])[O:5][C@@:6]12[H:10]>>[O:1]1[C:2](=[C:3]([H:7])[H:8])[C@@:6]1([C:4](=[O:5])[H:9])[H:10]"
O        0.26025422       1.68425786       0.96776794
C       -0.30917159       1.00393626       0.07876312
C       -1.36826725       0.06479532       0.05798475
C        0.57012500      -1.04267901      -0.02545963
O        1.01762889      -1.11269320      -1.22656006
C        0.99240155       0.35120263      -0.20457305
H       -1.84750216      -0.14751331      -0.89037811
H       -2.06438174       0.10631949       0.89060561
H        0.80010490      -1.69465076       0.81593821
H        1.94880818       0.78702472      -0.46408877
10
Frame=14 idx=000136 GeodesicLength=0.831943105178079 rxn_smarts="[O:1]=[C:2]1[C:3]([H:7])([H:8])[C@@:4]2([H:9])[O:5][C@@:6]12[H:10]>>[O:1]1[C:2](=[C:3]([H:7])[H:8])[C@@:6]1([C:4](=[O:5])[H:9])[H:10]"
O        0.26841362       1.67434479       0.96018043
C       -0.31184332       1.00612452       0.06721749
C       -1.36473641       0.05517276       0.04954312
C        0.55304981      -1.04029056      -0.02882237
O        1.04067479      -1.11902797      -1.21681451
C        0.99265911       0.35482738      -0.20080774
H       -1.87825709      -0.11960682      -0.88896549
H       -2.04360040       0.07974976       0.89754276
H        0.79269129      -1.67810287       0.82184558
H        1.95094859       0.78680902      -0.46091928
10
Frame=15 idx=000136 GeodesicLength=0.8915223350394719 rxn_smarts="[O:1]=[C:2]1[C:3]([H:7])([H:8])[C@@:4]2([H:9])[O:5][C@@:6]12[H:10]>>[O:1]1[C:2](=[C:3]([H:7])[H:8])[C@@:6]1([C:4](=[O:5])[H:9])[H:10]"
O        0.27619620       1.66428023       0.95278151
C       -0.31434046       1.00793498       0.05597932
C       -1.36118885       0.04552431       0.04037948
C        0.53676412      -1.03800990      -0.03264404
O        1.06412430      -1.12568965      -1.20615942
C        0.99295718       0.35844641      -0.19729965
H       -1.90938531      -0.09121193      -0.88526445
H       -2.02263869       0.05328346       0.90294731
H        0.78461750      -1.66149852       0.82743399
H        1.95289401       0.78694060      -0.45815404
10
Frame=16 idx=000136 GeodesicLength=0.9510979557655441 rxn_smarts="[O:1]=[C:2]1[C:3]([H:7])([H:8])[C@@:4]2([H:9])[O:5][C@@:6]12[H:10]>>[O:1]1[C:2](=[C:3]([H:7])[H:8])[C@@:6]1([C:4](=[O:5])[H:9])[H:10]"
O        0.28356526       1.65408519       0.94544515
C       -0.31667508       1.00939110       0.04489385
C       -1.35765938       0.03589955       0.03043262
C        0.52123582      -1.03575058      -0.03700904
O        1.08807795      -1.13258633      -1.19455374
C        0.99334896       0.36207142      -0.19402381
H       -1.94096319      -0.06254653      -0.87902325
H       -2.00143713       0.02696236       0.90686607
H        0.77571746      -1.64488290       0.83256956
H        1.95478931       0.78735672      -0.45559741
