11
Frame=0 idx=006343 GeodesicLength=0.0 rxn_smarts="[O:1]=[c:2]1[o:3][c:4]([H:8])[c:5]([H:9])[c:6]([H:10])[c:7]1[H:11]>>[O:1]([C:2]1=[O+:3][C-:4]([H:8])[C:5]([H:9])=[C:6]=[C:7]1[H:11])[H:10]"
O        1.38639766      -0.25545154      -1.17072508
C        0.97608990      -0.46032033       0.03870933
O        0.09283520      -1.50448309       0.29754789
C       -1.15975370      -1.02440856       0.12743216
C       -1.23098768       0.30283968      -0.00371787
C        0.04576929       0.99479367       0.13485283
C        1.14455317       0.65731545       0.91360277
H       -1.94681515      -1.76655675       0.10137447
H       -2.13295639       0.84596319      -0.23947531
H        0.77344525       0.96053103      -1.09089187
H        2.05142246       1.24977727       0.89129070
11
Frame=1 idx=006343 GeodesicLength=0.29801477584332353 rxn_smarts="[O:1]=[c:2]1[o:3][c:4]([H:8])[c:5]([H:9])[c:6]([H:10])[c:7]1[H:11]>>[O:1]([C:2]1=[O+:3][C-:4]([H:8])[C:5]([H:9])=[C:6]=[C:7]1[H:11])[H:10]"
O        1.46081535      -0.29216054      -1.13591693
C        0.97250738      -0.48170944       0.04513551
O        0.07880631      -1.51919684       0.26428275
C       -1.17193494      -1.03077083       0.11190917
C       -1.24677957       0.29787759      -0.00289828
C        0.02249018       0.99449356       0.13689216
C        1.14342384       0.66107406       0.87915387
H       -1.96508190      -1.76629372       0.14448389
H       -2.15492126       0.83565311      -0.22835657
H        0.80760738       1.05140400      -1.07523605
H        2.05306723       1.24962905       0.86055049
11
Frame=2 idx=006343 GeodesicLength=0.5955514026258102 rxn_smarts="[O:1]=[c:2]1[o:3][c:4]([H:8])[c:5]([H:9])[c:6]([H:10])[c:7]1[H:11]>>[O:1]([C:2]1=[O+:3][C-:4]([H:8])[C:5]([H:9])=[C:6]=[C:7]1[H:11])[H:10]"
O        1.53996604      -0.34438233      -1.09273039
C        0.96829157      -0.50366896       0.05301008
O        0.06401698      -1.53250400       0.23600170
C       -1.18473416      -1.03646503       0.09966342
C       -1.26297742       0.29336519       0.00031701
C       -0.00028346       0.99444861       0.13509862
C        1.14292008       0.66698103       0.83923515
H       -1.98004772      -1.76705296       0.17175646
H       -2.17837672       0.82598108      -0.20890339
H        0.83521345       1.15285487      -1.05753250
H        2.05601137       1.25044249       0.82408383
11
Frame=3 idx=006343 GeodesicLength=0.8923987880272006 rxn_smarts="[O:1]=[c:2]1[o:3][c:4]([H:8])[c:5]([H:9])[c:6]([H:10])[c:7]1[H:11]>>[O:1]([C:2]1=[O+:3][C-:4]([H:8])[C:5]([H:9])=[C:6]=[C:7]1[H:11])[H:10]"
O        1.62668073      -0.41793064      -1.03546005
C        0.96342848      -0.52628394       0.06368080
O        0.04842309      -1.54434503       0.21682591
C       -1.19781754      -1.04149759       0.09045737
C       -1.27929218       0.28916596       0.00437574
C       -0.02242132       0.99462746       0.12750130
C        1.14377627       0.67629340       0.79088369
H       -1.99371256      -1.77031210       0.17505073
H       -2.20425867       0.81730497      -0.17326503
H        0.85410901       1.26974346      -1.03788383
H        2.06108469       1.25323404       0.77783337
11
Frame=4 idx=006343 GeodesicLength=1.1879619931356795 rxn_smarts="[O:1]=[c:2]1[o:3][c:4]([H:8])[c:5]([H:9])[c:6]([H:10])[c:7]1[H:11]>>[O:1]([C:2]1=[O+:3][C-:4]([H:8])[C:5]([H:9])=[C:6]=[C:7]1[H:11])[H:10]"
O        1.72429049      -0.51641180      -0.95741928
C        0.95768207      -0.55026985       0.07444066
O        0.03187077      -1.55599523       0.20363147
C       -1.21107109      -1.04698976       0.07733283
C       -1.29567236       0.28446352       0.00623453
C       -0.04416586       0.99387642       0.11370191
C        1.14656297       0.68657868       0.73047665
H       -2.00760736      -1.77465081       0.16756421
H       -2.23091089       0.80851813      -0.12573928
H        0.86004833       1.41556730      -1.00978032
H        2.06897293       1.25531340       0.71955660
11
Frame=5 idx=006343 GeodesicLength=1.4799560154899631 rxn_smarts="[O:1]=[c:2]1[o:3][c:4]([H:8])[c:5]([H:9])[c:6]([H:10])[c:7]1[H:11]>>[O:1]([C:2]1=[O+:3][C-:4]([H:8])[C:5]([H:9])=[C:6]=[C:7]1[H:11])[H:10]"
O        1.83254266      -0.64728942      -0.84844803
C        0.95111836      -0.57736267       0.08134933
O        0.01402873      -1.56858986       0.19786804
C       -1.22433601      -1.05371270       0.05823248
C       -1.31169100       0.27864994       0.00747129
C       -0.06486457       0.99084177       0.09465860
C        1.15482553       0.69512290       0.64972488
H       -2.02224569      -1.77923898       0.15578048
H       -2.25521896       0.79793842      -0.07946847
H        0.84214430       1.61065655      -0.95623866
H        2.08369665       1.25298404       0.63907007
11
Frame=6 idx=006343 GeodesicLength=1.7597643507073033 rxn_smarts="[O:1]=[c:2]1[o:3][c:4]([H:8])[c:5]([H:9])[c:6]([H:10])[c:7]1[H:11]>>[O:1]([C:2]1=[O+:3][C-:4]([H:8])[C:5]([H:9])=[C:6]=[C:7]1[H:11])[H:10]"
O        1.94911005      -0.82297694      -0.68311519
C        0.94548376      -0.61056610       0.08279903
O       -0.00565848      -1.58164054       0.21397200
C       -1.23634668      -1.06168277       0.03530125
C       -1.32542583       0.27156525       0.00674492
C       -0.08204189       0.98462929       0.06203942
C        1.17292026       0.70153727       0.52838563
H       -2.03802075      -1.78509877       0.12100854
H       -2.27556498       0.78593758      -0.03053106
H        0.78563427       1.87319379      -0.84425409
H        2.10991027       1.24510195       0.50764955
11
Frame=7 idx=006343 GeodesicLength=1.9941037951384981 rxn_smarts="[O:1]=[c:2]1[o:3][c:4]([H:8])[c:5]([H:9])[c:6]([H:10])[c:7]1[H:11]>>[O:1]([C:2]1=[O+:3][C-:4]([H:8])[C:5]([H:9])=[C:6]=[C:7]1[H:11])[H:10]"
O        2.05280484      -1.02426576      -0.43871515
C        0.94264883      -0.64846926       0.07208535
O       -0.02529806      -1.58807178       0.26769753
C       -1.24666764      -1.06698698       0.03604069
C       -1.33556233       0.26640971      -0.00344092
C       -0.09415488       0.97946490      -0.01047497
C        1.19643051       0.70245666       0.34107668
H       -2.04448539      -1.79979273       0.03507892
H       -2.28922314       0.77530106       0.02836796
H        0.70110156       2.17560577      -0.61684384
H        2.14240570       1.22834842       0.28912777
11
Frame=8 idx=006343 GeodesicLength=2.140952978732436 rxn_smarts="[O:1]=[c:2]1[o:3][c:4]([H:8])[c:5]([H:9])[c:6]([H:10])[c:7]1[H:11]>>[O:1]([C:2]1=[O+:3][C-:4]([H:8])[C:5]([H:9])=[C:6]=[C:7]1[H:11])[H:10]"
O        2.12899891      -1.14131414      -0.15391671
C        0.95309522      -0.68601538       0.05502786
O       -0.03628695      -1.59021643       0.28680786
C       -1.24987298      -1.06919767       0.02172088
C       -1.33917037       0.26363046      -0.03326425
C       -0.10219035       0.97363589      -0.11008617
C        1.21141171       0.68860271       0.10552436
H       -2.05465599      -1.79364038       0.02731436
H       -2.29047988       0.77366039       0.03531727
H        0.62231175       2.37237550      -0.24825681
H        2.15683893       1.20847905       0.01381135
11
Frame=9 idx=006343 GeodesicLength=2.2391468485582395 rxn_smarts="[O:1]=[c:2]1[o:3][c:4]([H:8])[c:5]([H:9])[c:6]([H:10])[c:7]1[H:11]>>[O:1]([C:2]1=[O+:3][C-:4]([H:8])[C:5]([H:9])=[C:6]=[C:7]1[H:11])[H:10]"
O        2.15963802      -1.13777847       0.13586551
C        0.96509754      -0.69297816       0.05972721
O       -0.03918346      -1.57040989       0.31669826
C       -1.24563234      -1.06445066      -0.00582164
C       -1.34757549       0.26791523      -0.06798530
C       -0.12150386       0.99413226      -0.14869261
C        1.19818034       0.66768704      -0.16600896
H       -2.04686139      -1.79248794       0.01206004
H       -2.30395695       0.76546757       0.01949295
H        0.64484650       2.37693125       0.15864429
H        2.13695109       1.18597178      -0.31397976
11
Frame=10 idx=006343 GeodesicLength=2.374820817848177 rxn_smarts="[O:1]=[c:2]1[o:3][c:4]([H:8])[c:5]([H:9])[c:6]([H:10])[c:7]1[H:11]>>[O:1]([C:2]1=[O+:3][C-:4]([H:8])[C:5]([H:9])=[C:6]=[C:7]1[H:11])[H:10]"
O        2.15086437      -1.01694786       0.40642454
C        0.97979303      -0.68166257       0.03068138
O       -0.02820910      -1.54692304       0.30510905
C       -1.23993893      -1.05248912      -0.01807782
C       -1.35581833       0.27841714      -0.10677260
C       -0.14183878       1.02480099      -0.21427234
C        1.15423831       0.64140474      -0.39129847
H       -2.03266547      -1.78798796       0.03191081
H       -2.31704002       0.76066434       0.01093274
H        0.74602296       2.21042488       0.50055171
H        2.08459194       1.17029845      -0.55518900
11
Frame=11 idx=006343 GeodesicLength=2.558121922034274 rxn_smarts="[O:1]=[c:2]1[o:3][c:4]([H:8])[c:5]([H:9])[c:6]([H:10])[c:7]1[H:11]>>[O:1]([C:2]1=[O+:3][C-:4]([H:8])[C:5]([H:9])=[C:6]=[C:7]1[H:11])[H:10]"
O        2.10988990      -0.84861974       0.61651209
C        1.00344240      -0.67195390       0.01069789
O       -0.01149586      -1.52420982       0.29610332
C       -1.22911836      -1.03739057      -0.01998734
C       -1.35984392       0.29222319      -0.12326588
C       -0.15638094       1.05890630      -0.23993599
C        1.09915003       0.61308515      -0.54689816
H       -2.01286418      -1.78229775       0.01862300
H       -2.32624439       0.76095955       0.00460902
H        0.86369328       1.98753664       0.71949326
H        2.01977202       1.15176094      -0.73595122
11
Frame=12 idx=006343 GeodesicLength=2.7597217446918685 rxn_smarts="[O:1]=[c:2]1[o:3][c:4]([H:8])[c:5]([H:9])[c:6]([H:10])[c:7]1[H:11]>>[O:1]([C:2]1=[O+:3][C-:4]([H:8])[C:5]([H:9])=[C:6]=[C:7]1[H:11])[H:10]"
O        2.05282078      -0.70554810       0.76090954
C        1.03402292      -0.66588453      -0.00230096
O        0.00806066      -1.50789402       0.27443316
C       -1.21468884      -1.02353654      -0.03035538
C       -1.35793951       0.30633094      -0.13214895
C       -0.16423206       1.09364405      -0.25013910
C        1.04956663       0.58893229      -0.64430161
H       -1.99323931      -1.77221550       0.02766105
H       -2.33201237       0.75958358      -0.00711294
H        0.95483232       1.79009450       0.85190031
H        1.96280878       1.13649332      -0.84854513
11
Frame=13 idx=006343 GeodesicLength=2.9661639834385616 rxn_smarts="[O:1]=[c:2]1[o:3][c:4]([H:8])[c:5]([H:9])[c:6]([H:10])[c:7]1[H:11]>>[O:1]([C:2]1=[O+:3][C-:4]([H:8])[C:5]([H:9])=[C:6]=[C:7]1[H:11])[H:10]"
O        1.99543913      -0.59844250       0.86118597
C        1.06800784      -0.66123078      -0.00972636
O        0.02896319      -1.49464658       0.24647376
C       -1.19865469      -1.01041119      -0.04373365
C       -1.35287872       0.31999928      -0.14207669
C       -0.16854391       1.12729052      -0.25926425
C        1.00759772       0.56841063      -0.70911252
H       -1.97382780      -1.75793686       0.05652931
H       -2.33432143       0.75826091      -0.02140725
H        1.01341861       1.62391465       0.94285278
H        1.91480006       1.12479193      -0.92172110
11
Frame=14 idx=006343 GeodesicLength=3.1740067638451546 rxn_smarts="[O:1]=[c:2]1[o:3][c:4]([H:8])[c:5]([H:9])[c:6]([H:10])[c:7]1[H:11]>>[O:1]([C:2]1=[O+:3][C-:4]([H:8])[C:5]([H:9])=[C:6]=[C:7]1[H:11])[H:10]"
O        1.94139089      -0.51925793       0.93697571
C        1.10325561      -0.65670431      -0.01275651
O        0.05060408      -1.48289962       0.21559907
C       -1.18220964      -0.99728797      -0.05504604
C       -1.34630335       0.33359692      -0.15193014
C       -0.17109940       1.15986872      -0.27023629
C        0.97080003       0.54917893      -0.75627412
H       -1.95288017      -1.74178253       0.09107787
H       -2.33427119       0.75768417      -0.03370604
H        1.04790175       1.48407405       1.01155967
H        1.87281139       1.11352957      -0.97526316
11
Frame=15 idx=006343 GeodesicLength=3.3824743016838332 rxn_smarts="[O:1]=[c:2]1[o:3][c:4]([H:8])[c:5]([H:9])[c:6]([H:10])[c:7]1[H:11]>>[O:1]([C:2]1=[O+:3][C-:4]([H:8])[C:5]([H:9])=[C:6]=[C:7]1[H:11])[H:10]"
O        1.89102053      -0.46084997       0.99764665
C        1.13892630      -0.65167808      -0.01339591
O        0.07289418      -1.47170724       0.18251751
C       -1.16560814      -0.98392176      -0.06325095
C       -1.33888590       0.34727645      -0.16171994
C       -0.17259754       1.19164587      -0.28342189
C        0.93741170       0.53057538      -0.79306170
H       -1.92989865      -1.72440352       0.12889535
H       -2.33275878       0.75784320      -0.04492769
H        1.06473429       1.36321100       1.06881834
H        1.83476202       1.10200868      -1.01809977
11
Frame=16 idx=006343 GeodesicLength=3.5913477489341434 rxn_smarts="[O:1]=[c:2]1[o:3][c:4]([H:8])[c:5]([H:9])[c:6]([H:10])[c:7]1[H:11]>>[O:1]([C:2]1=[O+:3][C-:4]([H:8])[C:5]([H:9])=[C:6]=[C:7]1[H:11])[H:10]"
O        1.84393289      -0.41854657       1.04795272
C        1.17451535      -0.64561134      -0.01300695
O        0.09574998      -1.46038675       0.14723669
C       -1.14884213      -0.97029926      -0.06901020
C       -1.33097167       0.36101915      -0.17244487
C       -0.17337607       1.22285232      -0.29886785
C        0.90652778       0.51272588      -0.82326290
H       -1.90435985      -1.70553319       0.17139744
H       -2.33024309       0.75853660      -0.05612718
H        1.06745896       1.25480021       1.12055530
H        1.79960784       1.09044296      -1.05442218
