14
Frame=0 idx=004871 GeodesicLength=0.0 rxn_smarts="[C:1]([C@@:2]([C:3]([O:4][H:13])([H:11])[H:12])([C:5](=[O:6])[H:14])[H:10])([H:7])([H:8])[H:9]>>[C:1]([C@@:2]1([H:10])[C@:5]([C:3]([O:4][H:13])([H:11])[H:12])([H:14])[O:6]1)([H:7])([H:8])[H:9]"
C       -1.53356160      -1.16356311       0.61969208
C       -0.69662496       0.02396943       0.70795560
C        1.35079881       0.38414329      -0.72329156
O        2.08680843       0.74865576       0.43011713
C       -0.14542713       0.67119965      -0.49402801
O       -0.96403552       0.38343751      -1.48363903
H       -2.58851955      -0.86548605       0.56180934
H       -1.43425533      -1.76468056       1.52769855
H       -1.32944528      -1.69835168      -0.31053538
H       -0.66323305       0.54932940       1.66291950
H        1.45600066      -0.68172299      -0.95758899
H        1.64320293       0.96384533      -1.60489410
H        3.02260011       0.70039021       0.23412101
H       -0.20430855       1.74883375      -0.17033610
14
Frame=1 idx=004871 GeodesicLength=0.10863353662265247 rxn_smarts="[C:1]([C@@:2]([C:3]([O:4][H:13])([H:11])[H:12])([C:5](=[O:6])[H:14])[H:10])([H:7])([H:8])[H:9]>>[C:1]([C@@:2]1([H:10])[C@:5]([C:3]([O:4][H:13])([H:11])[H:12])([H:14])[O:6]1)([H:7])([H:8])[H:9]"
C       -1.51756680      -1.16895773       0.59703230
C       -0.69712736       0.03282933       0.69174267
C        1.33682769       0.35264843      -0.69905013
O        2.09020217       0.78897044       0.41701414
C       -0.15972186       0.71996710      -0.49099081
O       -1.00970902       0.44596024      -1.45431706
H       -2.57755997      -0.88784120       0.55802183
H       -1.39557777      -1.78306425       1.49335250
H       -1.31643048      -1.69052913      -0.34110216
H       -0.67106333       0.54600884       1.65371074
H        1.44857525      -0.72519633      -0.86523232
H        1.63416097       0.85598735      -1.62512412
H        3.02333951       0.72311226       0.21356423
H       -0.18834900       1.79010466      -0.14862182
14
Frame=2 idx=004871 GeodesicLength=0.2174778139615668 rxn_smarts="[C:1]([C@@:2]([C:3]([O:4][H:13])([H:11])[H:12])([C:5](=[O:6])[H:14])[H:10])([H:7])([H:8])[H:9]>>[C:1]([C@@:2]1([H:10])[C@:5]([C:3]([O:4][H:13])([H:11])[H:12])([H:14])[O:6]1)([H:7])([H:8])[H:9]"
C       -1.50309319      -1.17374323       0.57328674
C       -0.69723757       0.04057746       0.67605967
C        1.32282148       0.32149393      -0.67213806
O        2.09646448       0.82839936       0.39893339
C       -0.17160644       0.76592410      -0.48623440
O       -1.05235620       0.50654085      -1.42245701
H       -2.56710234      -0.90814606       0.55144875
H       -1.36065622      -1.80043286       1.45765207
H       -1.30450897      -1.68224735      -0.37234503
H       -0.68048279       0.54209119       1.64456647
H        1.44559485      -0.76361504      -0.76894863
H        1.61835088       0.74618144      -1.63768346
H        3.02612243       0.74885789       0.18464221
H       -0.17231041       1.82811831      -0.12678271
14
Frame=3 idx=004871 GeodesicLength=0.3265800030139706 rxn_smarts="[C:1]([C@@:2]([C:3]([O:4][H:13])([H:11])[H:12])([C:5](=[O:6])[H:14])[H:10])([H:7])([H:8])[H:9]>>[C:1]([C@@:2]1([H:10])[C@:5]([C:3]([O:4][H:13])([H:11])[H:12])([H:14])[O:6]1)([H:7])([H:8])[H:9]"
C       -1.48978275      -1.17804426       0.54847010
C       -0.69730033       0.04762991       0.66086402
C        1.30889468       0.29086698      -0.64235403
O        2.10514057       0.86667656       0.37579882
C       -0.18140635       0.80946624      -0.47990657
O       -1.09210384       0.56541526      -1.38825939
H       -2.55706600      -0.92711434       0.54187155
H       -1.32893995      -1.81684576       1.42077290
H       -1.29277133      -1.67360235      -0.40414816
H       -0.69184624       0.53786980       1.63545195
H        1.44672705      -0.79656371      -0.66866873
H        1.59627063       0.63485953      -1.64217275
H        3.03034773       0.77597516       0.14708801
H       -0.15616386       1.86341099      -0.10480771
14
Frame=4 idx=004871 GeodesicLength=0.435942517724273 rxn_smarts="[C:1]([C@@:2]([C:3]([O:4][H:13])([H:11])[H:12])([C:5](=[O:6])[H:14])[H:10])([H:7])([H:8])[H:9]>>[C:1]([C@@:2]1([H:10])[C@:5]([C:3]([O:4][H:13])([H:11])[H:12])([H:14])[O:6]1)([H:7])([H:8])[H:9]"
C       -1.47723951      -1.18196290       0.52262555
C       -0.69755032       0.05431658       0.64614163
C        1.29518669       0.26111434      -0.60959259
O        2.11582667       0.90343994       0.34753743
C       -0.18946399       0.85094221      -0.47218354
O       -1.12909708       0.62262631      -1.35200158
H       -2.54730389      -0.94531765       0.52905319
H       -1.29990426      -1.83227149       1.38299185
H       -1.28031021      -1.66473115      -0.43638365
H       -0.70536459       0.53358037       1.62636258
H        1.45145326      -0.82345428      -0.56458432
H        1.56839244       0.52271792      -1.63819953
H        3.03540318       0.80255545       0.10097029
H       -0.14002839       1.89644434      -0.08273733
14
Frame=5 idx=004871 GeodesicLength=0.5455726254696966 rxn_smarts="[C:1]([C@@:2]([C:3]([O:4][H:13])([H:11])[H:12])([C:5](=[O:6])[H:14])[H:10])([H:7])([H:8])[H:9]>>[C:1]([C@@:2]1([H:10])[C@:5]([C:3]([O:4][H:13])([H:11])[H:12])([H:14])[O:6]1)([H:7])([H:8])[H:9]"
C       -1.46502329      -1.18557670       0.49581579
C       -0.69810652       0.06090480       0.63183613
C        1.28179612       0.23268122      -0.57380933
O        2.12800972       0.93831488       0.31408351
C       -0.19610796       0.89065859      -0.46328617
O       -1.16352291       0.67815019      -1.31394986
H       -2.53753850      -0.96322012       0.51293172
H       -1.27286615      -1.84671175       1.34450924
H       -1.26638690      -1.65572614      -0.46892136
H       -0.72106575       0.52942244       1.61719831
H        1.45898518      -0.84365816      -0.45715146
H        1.53529326       0.41053658      -1.62534417
H        3.04053745       0.82660443       0.04677540
H       -0.12400376       1.92761974      -0.06068774
14
Frame=6 idx=004871 GeodesicLength=0.655434009622575 rxn_smarts="[C:1]([C@@:2]([C:3]([O:4][H:13])([H:11])[H:12])([C:5](=[O:6])[H:14])[H:10])([H:7])([H:8])[H:9]>>[C:1]([C@@:2]1([H:10])[C@:5]([C:3]([O:4][H:13])([H:11])[H:12])([H:14])[O:6]1)([H:7])([H:8])[H:9]"
C       -1.45266430      -1.18892897       0.46818848
C       -0.69900588       0.06761871       0.61788035
C        1.26881934       0.20611246      -0.53522783
O        2.14109519       0.97070944       0.27551432
C       -0.20175196       0.92887119      -0.45352544
O       -1.19569557       0.73179525      -1.27443055
H       -2.52744813      -0.98117643       0.49362344
H       -1.24705645      -1.86007534       1.30563182
H       -1.25036228      -1.64669527      -0.50157135
H       -0.73877778       0.52556541       1.60786421
H        1.46843367      -0.85658762      -0.34731796
H        1.49769948       0.29959408      -1.60338200
H        3.04504472       0.84591272      -0.01431864
H       -0.10833005       1.95728436      -0.03892885
14
Frame=7 idx=004871 GeodesicLength=0.7655143623254775 rxn_smarts="[C:1]([C@@:2]([C:3]([O:4][H:13])([H:11])[H:12])([C:5](=[O:6])[H:14])[H:10])([H:7])([H:8])[H:9]>>[C:1]([C@@:2]1([H:10])[C@:5]([C:3]([O:4][H:13])([H:11])[H:12])([H:14])[O:6]1)([H:7])([H:8])[H:9]"
C       -1.43975283      -1.19205752       0.43995645
C       -0.70018368       0.07461504       0.60415923
C        1.25631813       0.18189911      -0.49424066
O        2.15438481       0.99984456       0.23225036
C       -0.20679984       0.96579285      -0.44329495
O       -1.22608175       0.78338316      -1.23374814
H       -2.51669212      -0.99942854       0.47150701
H       -1.22164957      -1.87233516       1.26664061
H       -1.23193207      -1.63771361      -0.53411046
H       -0.75808474       0.52213445       1.59819925
H        1.47883384      -0.86194922      -0.23641317
H        1.45654899       0.19134564      -1.57234557
H        3.04821472       0.85873386      -0.08067791
H       -0.09312390       1.98573538      -0.01788205
14
Frame=8 idx=004871 GeodesicLength=0.8757680428036786 rxn_smarts="[C:1]([C@@:2]([C:3]([O:4][H:13])([H:11])[H:12])([C:5](=[O:6])[H:14])[H:10])([H:7])([H:8])[H:9]>>[C:1]([C@@:2]1([H:10])[C@:5]([C:3]([O:4][H:13])([H:11])[H:12])([H:14])[O:6]1)([H:7])([H:8])[H:9]"
C       -1.42592476      -1.19496121       0.41141074
C       -0.70150089       0.08199992       0.59055341
C        1.24428094       0.16043692      -0.45156731
O        2.16708155       1.02486941       0.18497997
C       -0.21170837       1.00157107      -0.43305241
O       -1.25522744       0.83266454      -1.19216055
H       -2.50493632      -1.01809241       0.44719894
H       -1.19583932      -1.88340503       1.22785993
H       -1.21099551      -1.62884211      -0.56627792
H       -0.77835169       0.51919713       1.58808404
H        1.48925153      -0.85977003      -0.12607924
H        1.41294877       0.08758074      -1.53282050
H        3.04947121       0.86353911      -0.15000446
H       -0.07854970       2.01321196       0.00187536
14
Frame=9 idx=004871 GeodesicLength=0.986228821023974 rxn_smarts="[C:1]([C@@:2]([C:3]([O:4][H:13])([H:11])[H:12])([C:5](=[O:6])[H:14])[H:10])([H:7])([H:8])[H:9]>>[C:1]([C@@:2]1([H:10])[C@:5]([C:3]([O:4][H:13])([H:11])[H:12])([H:14])[O:6]1)([H:7])([H:8])[H:9]"
C       -1.41096149      -1.19761144       0.38289133
C       -0.70275225       0.08981717       0.57691817
C        1.23266949       0.14186072      -0.40806461
O        2.17839855       1.04487519       0.13496859
C       -0.21689677       1.03628192      -0.42330970
O       -1.28381389       0.87943461      -1.14982903
H       -2.49194212      -1.03711503       0.42149353
H       -1.16893780      -1.89320783       1.18960627
H       -1.18779953      -1.62012235      -0.59778037
H       -0.79872331       0.51679706       1.57739545
H        1.49895191      -0.85065810      -0.01823043
H        1.36815252      -0.00999622      -1.48591826
H        3.04833720       0.85973831      -0.21978839
H       -0.06468250       2.03990598       0.01964746
14
Frame=10 idx=004871 GeodesicLength=1.0968697123179094 rxn_smarts="[C:1]([C@@:2]([C:3]([O:4][H:13])([H:11])[H:12])([C:5](=[O:6])[H:14])[H:10])([H:7])([H:8])[H:9]>>[C:1]([C@@:2]1([H:10])[C@:5]([C:3]([O:4][H:13])([H:11])[H:12])([H:14])[O:6]1)([H:7])([H:8])[H:9]"
C       -1.39477310      -1.19996986       0.35474326
C       -0.70371856       0.09804083       0.56315747
C        1.22135997       0.12610685      -0.36470599
O        2.18762839       1.05930348       0.08352915
C       -0.22271595       1.06994049      -0.41452313
O       -1.31236781       0.92356055      -1.10677730
H       -2.47756047      -1.05637145       0.39527552
H       -1.14048804      -1.90169964       1.15214511
H       -1.16274452      -1.61155002      -0.62837178
H       -0.81835412       0.51487212       1.56611895
H        1.50726972      -0.83547666       0.08547892
H        1.32339312      -0.09995972      -1.43332138
H        3.04460357       0.84728230      -0.28746886
H       -0.05153220       2.06592072       0.03472005
14
Frame=11 idx=004871 GeodesicLength=1.2077398662351055 rxn_smarts="[C:1]([C@@:2]([C:3]([O:4][H:13])([H:11])[H:12])([C:5](=[O:6])[H:14])[H:10])([H:7])([H:8])[H:9]>>[C:1]([C@@:2]1([H:10])[C@:5]([C:3]([O:4][H:13])([H:11])[H:12])([H:14])[O:6]1)([H:7])([H:8])[H:9]"
C       -1.37743277      -1.20198966       0.32725448
C       -0.70418904       0.10660185       0.54920541
C        1.21024237       0.11285696      -0.32233751
O        2.19430999       1.06790796       0.03216905
C       -0.22942260       1.10251872      -0.40707531
O       -1.34135370       0.96500938      -1.06292087
H       -2.46179873      -1.07562721       0.36932670
H       -1.11029365      -1.90886995       1.11567762
H       -1.13640512      -1.60311107      -0.65787252
H       -0.83640779       0.51333345       1.55431065
H        1.51384352      -0.81544695       0.18371108
H        1.27971020      -0.18150478      -1.37695548
H        3.03826118       0.82699832      -0.35094161
H       -0.03906388       2.09132298       0.04644832
14
Frame=12 idx=004871 GeodesicLength=1.3188876605538147 rxn_smarts="[C:1]([C@@:2]([C:3]([O:4][H:13])([H:11])[H:12])([C:5](=[O:6])[H:14])[H:10])([H:7])([H:8])[H:9]>>[C:1]([C@@:2]1([H:10])[C@:5]([C:3]([O:4][H:13])([H:11])[H:12])([H:14])[O:6]1)([H:7])([H:8])[H:9]"
C       -1.35915828      -1.20364414       0.30061896
C       -0.70402178       0.11540462       0.53504743
C        1.19925331       0.10165803      -0.28159803
O        2.19827247       1.07088857      -0.01783122
C       -0.23717629       1.13398072      -0.40120684
O       -1.37106196       1.00384299      -1.01805985
H       -2.44484071      -1.09463000       0.34423953
H       -1.07844281      -1.91477160       1.08029646
H       -1.10938344      -1.59479886      -0.68619648
H       -0.85223971       0.51206025       1.54210742
H        1.51857508      -0.79184131       0.27568063
H        1.23788732      -0.25451496      -1.31869117
H        3.02956462       0.80020320      -0.40876899
H       -0.02722783       2.11616248       0.05436215
14
Frame=13 idx=004871 GeodesicLength=1.430340252956509 rxn_smarts="[C:1]([C@@:2]([C:3]([O:4][H:13])([H:11])[H:12])([C:5](=[O:6])[H:14])[H:10])([H:7])([H:8])[H:9]>>[C:1]([C@@:2]1([H:10])[C@:5]([C:3]([O:4][H:13])([H:11])[H:12])([H:14])[O:6]1)([H:7])([H:8])[H:9]"
C       -1.34019771      -1.20488372       0.27493971
C       -0.70310955       0.12435921       0.52069572
C        1.18833599       0.09199745      -0.24288227
O        2.19950764       1.06871141      -0.06535305
C       -0.24603959       1.16425168      -0.39702609
O       -1.40151699       1.04009286      -0.97194318
H       -2.42687883      -1.11307769       0.32037526
H       -1.04522988      -1.91939943       1.04602997
H       -1.08216960      -1.58661180      -0.71331379
H       -0.86536279       0.51096438       1.52967001
H        1.52152837      -0.76590427       0.36093884
H        1.19838504      -0.31937602      -1.26013314
H        3.01874689       0.76845235      -0.46016135
H       -0.01599898       2.14042358       0.05816338
14
Frame=14 idx=004871 GeodesicLength=1.5420799235904614 rxn_smarts="[C:1]([C@@:2]([C:3]([O:4][H:13])([H:11])[H:12])([C:5](=[O:6])[H:14])[H:10])([H:7])([H:8])[H:9]>>[C:1]([C@@:2]1([H:10])[C@:5]([C:3]([O:4][H:13])([H:11])[H:12])([H:14])[O:6]1)([H:7])([H:8])[H:9]"
C       -1.32083891      -1.20571320       0.25020452
C       -0.70145150       0.13334967       0.50620837
C        1.17746983       0.08344507      -0.20632805
O        2.19820626       1.06208901      -0.11000789
C       -0.25601251       1.19333413      -0.39449909
O       -1.43257304       1.07397636      -0.92429233
H       -2.40820454      -1.13081234       0.29782979
H       -1.01103469      -1.92290075       1.01278128
H       -1.05512676      -1.57848179      -0.73930868
H       -0.87561320       0.50981509       1.51720674
H        1.52279588      -0.73838903       0.43987467
H        1.16140320      -0.37694693      -1.20236830
H        3.00625630       0.73313943      -0.50508105
H       -0.00527632       2.16409528       0.05778002
14
Frame=15 idx=004871 GeodesicLength=1.6541192139829506 rxn_smarts="[C:1]([C@@:2]([C:3]([O:4][H:13])([H:11])[H:12])([C:5](=[O:6])[H:14])[H:10])([H:7])([H:8])[H:9]>>[C:1]([C@@:2]1([H:10])[C@:5]([C:3]([O:4][H:13])([H:11])[H:12])([H:14])[O:6]1)([H:7])([H:8])[H:9]"
C       -1.30131669      -1.20612030       0.22636783
C       -0.69905730       0.14231307       0.49163242
C        1.16664232       0.07560983      -0.17193473
O        2.19459577       1.05173466      -0.15145590
C       -0.26708624       1.22122074      -0.39353889
O       -1.46397226       1.10561388      -0.87485516
H       -2.38904566      -1.14765640       0.27657861
H       -0.97624100      -1.92533664       0.98046070
H       -1.02848744      -1.57039568      -0.76425588
H       -0.88289532       0.50851069       1.50487841
H        1.52255875      -0.71001335       0.51281082
H        1.12694022      -0.42813443      -1.14617521
H        2.99241642       0.69549896      -0.54370662
H        0.00494843       2.18715496       0.05319360
14
Frame=16 idx=004871 GeodesicLength=1.7664432492956543 rxn_smarts="[C:1]([C@@:2]([C:3]([O:4][H:13])([H:11])[H:12])([C:5](=[O:6])[H:14])[H:10])([H:7])([H:8])[H:9]>>[C:1]([C@@:2]1([H:10])[C@:5]([C:3]([O:4][H:13])([H:11])[H:12])([H:14])[O:6]1)([H:7])([H:8])[H:9]"
C       -1.28185170      -1.20611793       0.20336123
C       -0.69596837       0.15120022       0.47701512
C        1.15586826       0.06817706      -0.13959842
O        2.18894797       1.03834635      -0.18956588
C       -0.27924026       1.24794079      -0.39401687
O       -1.49538000       1.13513662      -0.82343183
H       -2.36964403      -1.16348587       0.25649645
H       -0.94124276      -1.92679905       0.94898916
H       -1.00239431      -1.56236398      -0.78822875
H       -0.88722493       0.50695586       1.49281944
H        1.52101775      -0.68132145       0.58020185
H        1.09489044      -0.47385114      -1.09202219
H        2.97755019       0.65658313      -0.57646449
H        0.01467174       2.20959940       0.04444518
