10
Frame=0 idx=007762 GeodesicLength=0.0 rxn_smarts="[O:1]=[C:2]([n:3]1[c:4]([H:9])[n:5][c:6]([H:10])[n:7]1)[H:8]>>[O+:1]#[C-:2].[n:3]1[c:4]([H:9])[n:5]([H:8])[c:6]([H:10])[n:7]1"
O        2.51234616      -0.93489783       0.12927755
C        1.49699244      -0.59526203      -0.19772681
N        0.00489726       0.89030188       1.08871259
C       -0.33507558       1.24015225      -0.13315894
N       -0.94587480       0.24445634      -0.83646976
C       -1.07546106      -0.70467671       0.13387888
N       -0.48171541      -0.38687774       1.26427084
H        0.45321779      -0.28823632      -0.84654014
H       -0.08022616       2.19645387      -0.56665418
H       -1.54910065      -1.66141370      -0.03559004
10
Frame=1 idx=007762 GeodesicLength=0.10302179737888538 rxn_smarts="[O:1]=[C:2]([n:3]1[c:4]([H:9])[n:5][c:6]([H:10])[n:7]1)[H:8]>>[O+:1]#[C-:2].[n:3]1[c:4]([H:9])[n:5]([H:8])[c:6]([H:10])[n:7]1"
O        2.54708607      -0.88908877       0.13666417
C        1.51470417      -0.59265110      -0.18673510
N        0.03158249       0.86405943       1.07707142
C       -0.33661110       1.23576445      -0.13127607
N       -0.94923210       0.24395991      -0.83484140
C       -1.09705526      -0.70259544       0.13564125
N       -0.49267370      -0.39590705       1.26235191
H        0.45778786      -0.31055273      -0.86848587
H       -0.07632525       2.19223225      -0.56085989
H       -1.59926317      -1.64522095      -0.02953042
10
Frame=2 idx=007762 GeodesicLength=0.20572985809092473 rxn_smarts="[O:1]=[C:2]([n:3]1[c:4]([H:9])[n:5][c:6]([H:10])[n:7]1)[H:8]>>[O+:1]#[C-:2].[n:3]1[c:4]([H:9])[n:5]([H:8])[c:6]([H:10])[n:7]1"
O        2.58088114      -0.84206849       0.14311566
C        1.53297768      -0.58992675      -0.17578659
N        0.05645047       0.83720987       1.06515837
C       -0.33799830       1.23109628      -0.12907233
N       -0.95196216       0.24304066      -0.83327446
C       -1.11913005      -0.70008694       0.13771691
N       -0.50329258      -0.40512868       1.26030573
H        0.46279251      -0.33368894      -0.89023104
H       -0.07146301       2.18741813      -0.55482386
H       -1.64925571      -1.62786515      -0.02310839
10
Frame=3 idx=007762 GeodesicLength=0.3080803469905429 rxn_smarts="[O:1]=[C:2]([n:3]1[c:4]([H:9])[n:5][c:6]([H:10])[n:7]1)[H:8]>>[O+:1]#[C-:2].[n:3]1[c:4]([H:9])[n:5]([H:8])[c:6]([H:10])[n:7]1"
O        2.61340989      -0.79443523       0.14901797
C        1.55193081      -0.58676382      -0.16504193
N        0.07968126       0.80984038       1.05295721
C       -0.33933151       1.22620329      -0.12656696
N       -0.95413324       0.24170200      -0.83173923
C       -1.14158238      -0.69712549       0.14011839
N       -0.51338639      -0.41462556       1.25806712
H        0.46823862      -0.35751066      -0.91191316
H       -0.06595056       2.18211405      -0.54857578
H       -1.69887648      -1.60939896      -0.01632362
10
Frame=4 idx=007762 GeodesicLength=0.410133827675571 rxn_smarts="[O:1]=[C:2]([n:3]1[c:4]([H:9])[n:5][c:6]([H:10])[n:7]1)[H:8]>>[O+:1]#[C-:2].[n:3]1[c:4]([H:9])[n:5]([H:8])[c:6]([H:10])[n:7]1"
O        2.64472267      -0.74608892       0.15448060
C        1.57157976      -0.58315006      -0.15451269
N        0.10142515       0.78193233       1.04048258
C       -0.34058675       1.22106025      -0.12376695
N       -0.95578360       0.23993637      -0.83022182
C       -1.16446550      -0.69364729       0.14285366
N       -0.52296470      -0.42449894       1.25559730
H        0.47410675      -0.38207360      -0.93359155
H       -0.05983820       2.17630436      -0.54211949
H       -1.74819558      -1.58977450      -0.00920163
10
Frame=5 idx=007762 GeodesicLength=0.5119147701987705 rxn_smarts="[O:1]=[C:2]([n:3]1[c:4]([H:9])[n:5][c:6]([H:10])[n:7]1)[H:8]>>[O+:1]#[C-:2].[n:3]1[c:4]([H:9])[n:5]([H:8])[c:6]([H:10])[n:7]1"
O        2.67480988      -0.69703496       0.15961754
C        1.59193401      -0.57903606      -0.14421010
N        0.12181730       0.75347787       1.02773089
C       -0.34175521       1.21565860      -0.12068075
N       -0.95695595       0.23774186      -0.82870272
C       -1.18781440      -0.68958051       0.14594095
N       -0.53202917      -0.43483348       1.25285483
H        0.48037559      -0.40740551      -0.95532439
H       -0.05318858       2.16999284      -0.53546237
H       -1.79719348      -1.56898065      -0.00176386
10
Frame=6 idx=007762 GeodesicLength=0.613460309303981 rxn_smarts="[O:1]=[C:2]([n:3]1[c:4]([H:9])[n:5][c:6]([H:10])[n:7]1)[H:8]>>[O+:1]#[C-:2].[n:3]1[c:4]([H:9])[n:5]([H:8])[c:6]([H:10])[n:7]1"
O        2.70370685      -0.64707349       0.16443726
C        1.61297848      -0.57445763      -0.13409040
N        0.14097126       0.72443015       1.01470614
C       -0.34278815       1.20996265      -0.11731142
N       -0.95767799       0.23511028      -0.82716165
C       -1.21169539      -0.68483466       0.14940138
N       -0.54064199      -0.44571203       1.24980451
H        0.48702413      -0.43358584      -0.97714046
H       -0.04597636       2.16314126      -0.52860135
H       -1.84590084      -1.54698068       0.00595600
10
Frame=7 idx=007762 GeodesicLength=0.7147838133814756 rxn_smarts="[O:1]=[C:2]([n:3]1[c:4]([H:9])[n:5][c:6]([H:10])[n:7]1)[H:8]>>[O+:1]#[C-:2].[n:3]1[c:4]([H:9])[n:5]([H:8])[c:6]([H:10])[n:7]1"
O        2.73136467      -0.59619564       0.16902083
C        1.63470463      -0.56937943      -0.12414816
N        0.15899703       0.69476613       1.00139082
C       -0.34366568       1.20396299      -0.11366546
N       -0.95799855       0.23204410      -0.82556999
C       -1.23613609      -0.67931585       0.15326909
N       -0.54882739      -0.45719984       1.24640580
H        0.49402771      -0.46063517      -0.99909519
H       -0.03822373       2.15574473      -0.52154332
H       -1.89424259      -1.52379202       0.01393558
10
Frame=8 idx=007762 GeodesicLength=0.8160003380965989 rxn_smarts="[O:1]=[C:2]([n:3]1[c:4]([H:9])[n:5][c:6]([H:10])[n:7]1)[H:8]>>[O+:1]#[C-:2].[n:3]1[c:4]([H:9])[n:5]([H:8])[c:6]([H:10])[n:7]1"
O        2.75784697      -0.54375299       0.17313344
C        1.65709784      -0.56398095      -0.11419931
N        0.17597591       0.66435415       0.98784243
C       -0.34424831       1.19757250      -0.10973681
N       -0.95791212       0.22850769      -0.82393081
C       -1.26124765      -0.67293740       0.15755375
N       -0.55675502      -0.46941628       1.24265474
H        0.50138949      -0.48873284      -1.02116698
H       -0.02970272       2.14769690      -0.51427377
H       -1.94244438      -1.49931077       0.02212333
10
Frame=9 idx=007762 GeodesicLength=0.916889062684354 rxn_smarts="[O:1]=[C:2]([n:3]1[c:4]([H:9])[n:5][c:6]([H:10])[n:7]1)[H:8]>>[O+:1]#[C-:2].[n:3]1[c:4]([H:9])[n:5]([H:8])[c:6]([H:10])[n:7]1"
O        2.78282478      -0.49075355       0.17733612
C        1.68011383      -0.55793137      -0.10450390
N        0.19201039       0.63332026       0.97387230
C       -0.34470195       1.19089020      -0.10554618
N       -0.95757035       0.22457796      -0.82212148
C       -1.28685717      -0.66554085       0.16235218
N       -0.56423744      -0.48227933       1.23841741
H        0.50903845      -0.51761676      -1.04353051
H       -0.02080090       2.13910054      -0.50682237
H       -1.98981963      -1.47376710       0.03054645
10
Frame=10 idx=007762 GeodesicLength=1.0176791057303016 rxn_smarts="[O:1]=[C:2]([n:3]1[c:4]([H:9])[n:5][c:6]([H:10])[n:7]1)[H:8]>>[O+:1]#[C-:2].[n:3]1[c:4]([H:9])[n:5]([H:8])[c:6]([H:10])[n:7]1"
O        2.80637080      -0.43635323       0.18133004
C        1.70377001      -0.55145336      -0.09483204
N        0.20719004       0.60149212       0.95957838
C       -0.34481746       1.18380973      -0.10109078
N       -0.95698261       0.22020662      -0.82017405
C       -1.31308477      -0.65707762       0.16767763
N       -0.57149215      -0.49594085       1.23373789
H        0.51698839      -0.54747699      -1.06620416
H       -0.01118192       2.12985166      -0.49918203
H       -2.03676034      -1.44705808       0.03915912
10
Frame=11 idx=007762 GeodesicLength=1.1183197308400192 rxn_smarts="[O:1]=[C:2]([n:3]1[c:4]([H:9])[n:5][c:6]([H:10])[n:7]1)[H:8]>>[O+:1]#[C-:2].[n:3]1[c:4]([H:9])[n:5]([H:8])[c:6]([H:10])[n:7]1"
O        2.82831228      -0.38075218       0.18529537
C        1.72803054      -0.54446318      -0.08520582
N        0.22158494       0.56885395       0.94487483
C       -0.34460142       1.17633159      -0.09638156
N       -0.95624673       0.21541975      -0.81802312
C       -1.33983564      -0.64744597       0.17359147
N       -0.57851790      -0.51040651       1.22854394
H        0.52521269      -0.57821596      -1.08930611
H       -0.00089810       2.11993398      -0.49137340
H       -2.08304065      -1.41925548       0.04798439
10
Frame=12 idx=007762 GeodesicLength=1.2188227108825747 rxn_smarts="[O:1]=[C:2]([n:3]1[c:4]([H:9])[n:5][c:6]([H:10])[n:7]1)[H:8]>>[O+:1]#[C-:2].[n:3]1[c:4]([H:9])[n:5]([H:8])[c:6]([H:10])[n:7]1"
O        2.84848536      -0.32378320       0.18922931
C        1.75287783      -0.53699766      -0.07553274
N        0.23525518       0.53532230       0.92972224
C       -0.34397826       1.16840227      -0.09142449
N       -0.95543069       0.21021862      -0.81562828
C       -1.36703260      -0.63657649       0.18013291
N       -0.58539186      -0.52571445       1.22279054
H        0.53371801      -0.60981156      -1.11293109
H        0.01013214       2.10927553      -0.48339858
H       -2.12863511      -1.39033535       0.05704015
10
Frame=13 idx=007762 GeodesicLength=1.3192210170435894 rxn_smarts="[O:1]=[C:2]([n:3]1[c:4]([H:9])[n:5][c:6]([H:10])[n:7]1)[H:8]>>[O+:1]#[C-:2].[n:3]1[c:4]([H:9])[n:5]([H:8])[c:6]([H:10])[n:7]1"
O        2.86677845      -0.26570742       0.19338463
C        1.77827106      -0.52896682      -0.06581289
N        0.24828136       0.50088918       0.91402001
C       -0.34294977       1.16003593      -0.08625140
N       -0.95468700       0.20464409      -0.81294863
C       -1.39453483      -0.62444174       0.18736978
N       -0.59211806      -0.54185767       1.21644250
H        0.54246918      -0.64207767      -1.13729050
H        0.02186712       2.09789430      -0.47531815
H       -2.17337752      -1.36041219       0.06640466
10
Frame=14 idx=007762 GeodesicLength=1.4194919027887172 rxn_smarts="[O:1]=[C:2]([n:3]1[c:4]([H:9])[n:5][c:6]([H:10])[n:7]1)[H:8]>>[O+:1]#[C-:2].[n:3]1[c:4]([H:9])[n:5]([H:8])[c:6]([H:10])[n:7]1"
O        2.88293197      -0.20634929       0.19780098
C        1.80420325      -0.52042334      -0.05593783
N        0.26071347       0.46545288       0.89769018
C       -0.34142949       1.15115228      -0.08087507
N       -0.95409275       0.19870175      -0.80994375
C       -1.42217488      -0.61103135       0.19532856
N       -0.59875621      -0.55885372       1.20944156
H        0.55149548      -0.67494938      -1.16253208
H        0.03437678       2.08568787      -0.46713203
H       -2.21726762      -1.32938769       0.07615948
10
Frame=15 idx=007762 GeodesicLength=1.519707254122134 rxn_smarts="[O:1]=[C:2]([n:3]1[c:4]([H:9])[n:5][c:6]([H:10])[n:7]1)[H:8]>>[O+:1]#[C-:2].[n:3]1[c:4]([H:9])[n:5]([H:8])[c:6]([H:10])[n:7]1"
O        2.89684277      -0.14589548       0.20274458
C        1.83065376      -0.51129328      -0.04585105
N        0.27262562       0.42898241       0.88061271
C       -0.33940067       1.14173950      -0.07534029
N       -0.95381214       0.19243002      -0.80660545
C       -1.44976269      -0.59641456       0.20405863
N       -0.60532111      -0.57669339       1.20177369
H        0.56078363      -0.70820703      -1.18893851
H        0.04765290       2.07265154      -0.45891781
H       -2.26026207      -1.29729974       0.08646351
10
Frame=16 idx=007762 GeodesicLength=1.6198552798789947 rxn_smarts="[O:1]=[C:2]([n:3]1[c:4]([H:9])[n:5][c:6]([H:10])[n:7]1)[H:8]>>[O+:1]#[C-:2].[n:3]1[c:4]([H:9])[n:5]([H:8])[c:6]([H:10])[n:7]1"
O        2.90821131      -0.08413303       0.20822265
C        1.85759963      -0.50164880      -0.03534778
N        0.28404735       0.39134588       0.86267094
C       -0.33677570       1.13169856      -0.06966765
N       -0.95391584       0.18585073      -0.80291311
C       -1.47707082      -0.58065239       0.21356035
N       -0.61186862      -0.59538787       1.19337493
H        0.57037530      -0.74176274      -1.21668127
H        0.06177903       2.05865540      -0.45068046
H       -2.30238166      -1.26396575       0.09746141
