15
Frame=0 idx=011738 GeodesicLength=0.0 rxn_smarts="[C:1]([C@:2]12[C:3]([H:11])([H:12])[O:4][C@@:5]1([H:13])[C@:6]2([O:7][H:15])[H:14])([H:8])([H:9])[H:10]>>[C:1]([C@:2]1([O:7][H:15])[C:3]([H:11])([H:12])[O:4][C:5]([H:13])=[C:6]1[H:14])([H:8])([H:9])[H:10]"
C       -1.36100875       0.96505115      -0.30122283
C       -0.18902716       0.27045697       0.23131921
C        0.10509897      -0.37669658       1.53717370
O        1.50646670      -0.30166325       1.28395558
C        1.24917218       0.28404267      -0.05521491
C        1.26164828      -0.67871502      -1.16475164
O       -0.16598192      -1.25597297      -1.07227432
H       -1.60740178       1.77717799       0.39084196
H       -1.15928767       1.37884192      -1.28736566
H       -2.21899417       0.29401652      -0.35716397
H       -0.25397128      -1.39874682       1.69092307
H       -0.23293628       0.24828822       2.37714326
H        1.78943694       1.21078542      -0.24257032
H        1.33204375      -0.22839817      -2.15681054
H       -0.05525781      -2.18846801      -0.87398260
15
Frame=1 idx=011738 GeodesicLength=0.13032276939508303 rxn_smarts="[C:1]([C@:2]12[C:3]([H:11])([H:12])[O:4][C@@:5]1([H:13])[C@:6]2([O:7][H:15])[H:14])([H:8])([H:9])[H:10]>>[C:1]([C@:2]1([O:7][H:15])[C:3]([H:11])([H:12])[O:4][C:5]([H:13])=[C:6]1[H:14])([H:8])([H:9])[H:10]"
C       -1.35989571       0.96401670      -0.30814617
C       -0.18887210       0.24946592       0.20578679
C        0.09955665      -0.38141329       1.52334386
O        1.50451389      -0.32501862       1.28017060
C        1.27454553       0.28991652      -0.04296637
C        1.23108304      -0.64359649      -1.16619565
O       -0.17732046      -1.28701568      -1.06130631
H       -1.58224249       1.78480677       0.38144403
H       -1.17255893       1.37000357      -1.30044959
H       -2.22895297       0.30588217      -0.34637169
H       -0.26696478      -1.39878602       1.68825267
H       -0.23498954       0.25576729       2.35480868
H        1.82602923       1.21277909      -0.21238809
H        1.29068516      -0.19014272      -2.15650982
H       -0.01461652      -2.20666520      -0.83947294
15
Frame=2 idx=011738 GeodesicLength=0.26073872469734605 rxn_smarts="[C:1]([C@:2]12[C:3]([H:11])([H:12])[O:4][C@@:5]1([H:13])[C@:6]2([O:7][H:15])[H:14])([H:8])([H:9])[H:10]>>[C:1]([C@:2]1([O:7][H:15])[C:3]([H:11])([H:12])[O:4][C:5]([H:13])=[C:6]1[H:14])([H:8])([H:9])[H:10]"
C       -1.35943018       0.96267437      -0.31457080
C       -0.18904305       0.22952538       0.18084938
C        0.09428351      -0.38561094       1.50951078
O        1.50247736      -0.34649859       1.27607487
C        1.29888945       0.29466852      -0.03129280
C        1.20071411      -0.60981733      -1.16550409
O       -0.18744308      -1.31681051      -1.05135700
H       -1.55818309       1.79176101       0.37192924
H       -1.18730272       1.36098896      -1.31283201
H       -2.23859292       0.31701768      -0.33452180
H       -0.27928099      -1.39834675       1.68517670
H       -0.23670077       0.26315025       2.33272240
H        1.86280702       1.21225335      -0.18404862
H        1.25222316      -0.15389376      -2.15414325
H        0.02458217      -2.22106164      -0.80799300
15
Frame=3 idx=011738 GeodesicLength=0.39128564244077085 rxn_smarts="[C:1]([C@:2]12[C:3]([H:11])([H:12])[O:4][C@@:5]1([H:13])[C@:6]2([O:7][H:15])[H:14])([H:8])([H:9])[H:10]>>[C:1]([C@:2]1([O:7][H:15])[C:3]([H:11])([H:12])[O:4][C:5]([H:13])=[C:6]1[H:14])([H:8])([H:9])[H:10]"
C       -1.35964265       0.96109785      -0.32054018
C       -0.18973174       0.21051597       0.15660834
C        0.08926121      -0.38935685       1.49575525
O        1.50036783      -0.36609326       1.27175295
C        1.32221880       0.29836981      -0.02026626
C        1.17087375      -0.57731265      -1.16287288
O       -0.19632319      -1.34528904      -1.04231202
H       -1.53525389       1.79813192       0.36226526
H       -1.20335363       1.35182256      -1.32451320
H       -2.24798749       0.32756343      -0.32177317
H       -0.29082503      -1.39755184       1.68175769
H       -0.23816547       0.27035753       2.31096393
H        1.89974118       1.20930704      -0.15758173
H        1.21662813      -0.11953534      -2.14997329
H        0.06219221      -2.23202711      -0.77927069
15
Frame=4 idx=011738 GeodesicLength=0.5219429088572728 rxn_smarts="[C:1]([C@:2]12[C:3]([H:11])([H:12])[O:4][C@@:5]1([H:13])[C@:6]2([O:7][H:15])[H:14])([H:8])([H:9])[H:10]>>[C:1]([C@:2]1([O:7][H:15])[C:3]([H:11])([H:12])[O:4][C:5]([H:13])=[C:6]1[H:14])([H:8])([H:9])[H:10]"
C       -1.36054525       0.95935240      -0.32610299
C       -0.19108870       0.19230831       0.13313113
C        0.08446904      -0.39271045       1.48214578
O        1.49819874      -0.38385689       1.26727823
C        1.34457233       0.30110919      -0.00991834
C        1.14180295      -0.54599579      -1.15851096
O       -0.20394763      -1.37243598      -1.03406502
H       -1.51345950       1.80399393       0.35241849
H       -1.22053864       1.34252506      -1.33550675
H       -2.25719858       0.33764490      -0.30829313
H       -0.30155605      -1.39650128       1.67806776
H       -0.23945581       0.27735522       2.28958656
H        1.93682353       1.20403975      -0.13296552
H        1.18374723      -0.08689498      -2.14423070
H        0.09817633      -2.23993338      -0.75303454
15
Frame=5 idx=011738 GeodesicLength=0.6526331019180757 rxn_smarts="[C:1]([C@:2]12[C:3]([H:11])([H:12])[O:4][C@@:5]1([H:13])[C@:6]2([O:7][H:15])[H:14])([H:8])([H:9])[H:10]>>[C:1]([C@:2]1([O:7][H:15])[C:3]([H:11])([H:12])[O:4][C:5]([H:13])=[C:6]1[H:14])([H:8])([H:9])[H:10]"
C       -1.36214227       0.95748460      -0.33130935
C       -0.19323677       0.17478274       0.11045835
C        0.07988492      -0.39572065       1.46873759
O        1.49599584      -0.39987853       1.26270612
C        1.36600308       0.30297761      -0.00026304
C        1.11367244      -0.51578436      -1.15259894
O       -0.21029360      -1.39827789      -1.02652042
H       -1.49279326       1.80942068       0.34235284
H       -1.23868925       1.33310662      -1.34583380
H       -2.26629872       0.34737242      -0.29422898
H       -0.31146569      -1.39528161       1.67418393
H       -0.24063596       0.28414055       2.26862595
H        1.97407363       1.19654214      -0.11014589
H        1.15335673      -0.05579546      -2.13710398
H        0.13256889      -2.24508885      -0.72906038
15
Frame=6 idx=011738 GeodesicLength=0.7833267321084914 rxn_smarts="[C:1]([C@:2]12[C:3]([H:11])([H:12])[O:4][C@@:5]1([H:13])[C@:6]2([O:7][H:15])[H:14])([H:8])([H:9])[H:10]>>[C:1]([C@:2]1([O:7][H:15])[C:3]([H:11])([H:12])[O:4][C:5]([H:13])=[C:6]1[H:14])([H:8])([H:9])[H:10]"
C       -1.36440909       0.95552939      -0.33621792
C       -0.19625707       0.15779996       0.08859242
C        0.07547460      -0.39842605       1.45556866
O        1.49375266      -0.41430419       1.25809577
C        1.38658729       0.30407508       0.00873583
C        1.08657636      -0.48652288      -1.14535239
O       -0.21538693      -1.42289079      -1.01959909
H       -1.47319212       1.81446267       0.33203078
H       -1.25765103       1.32356023      -1.35554034
H       -2.27532184       0.35685722      -0.27972076
H       -0.32060022      -1.39393922       1.67017706
H       -0.24174340       0.29073713       2.24808036
H        2.01153960       1.18689200      -0.08902596
H        1.12512627      -0.02593759      -2.12877231
H        0.16550492      -2.24789297      -0.70705214
15
Frame=7 idx=011738 GeodesicLength=0.9139928053384435 rxn_smarts="[C:1]([C@:2]12[C:3]([H:11])([H:12])[O:4][C@@:5]1([H:13])[C@:6]2([O:7][H:15])[H:14])([H:8])([H:9])[H:10]>>[C:1]([C@:2]1([O:7][H:15])[C:3]([H:11])([H:12])[O:4][C:5]([H:13])=[C:6]1[H:14])([H:8])([H:9])[H:10]"
C       -1.36731615       0.95350572      -0.34087939
C       -0.20020066       0.14123767       0.06751554
C        0.07120898      -0.40085478       1.44266144
O        1.49147669      -0.42725722       1.25349342
C        1.40640787       0.30449798       0.01712539
C        1.06054877      -0.45807770      -1.13692634
O       -0.21925491      -1.44636751      -1.01323257
H       -1.45460176       1.81915470       0.32142359
H       -1.27728624       1.31387812      -1.36467107
H       -2.28430840       0.36618090      -0.26488691
H       -0.32900238      -1.39251168       1.66610897
H       -0.24282203       0.29717548       2.22793695
H        2.04928760       1.17514594      -0.06952192
H        1.09874424       0.00292893      -2.11935704
H        0.19711838      -2.24863655      -0.68679004
15
Frame=8 idx=011738 GeodesicLength=1.0446136452737855 rxn_smarts="[C:1]([C@:2]12[C:3]([H:11])([H:12])[O:4][C@@:5]1([H:13])[C@:6]2([O:7][H:15])[H:14])([H:8])([H:9])[H:10]>>[C:1]([C@:2]1([O:7][H:15])[C:3]([H:11])([H:12])[O:4][C:5]([H:13])=[C:6]1[H:14])([H:8])([H:9])[H:10]"
C       -1.37083786       0.95142306      -0.34533634
C       -0.20510062       0.12497945       0.04719566
C        0.06705553      -0.40303065       1.43003148
O        1.48916929      -0.43885158       1.24895619
C        1.42554969       0.30433910       0.02496485
C        1.03558675      -0.43030700      -1.12743670
O       -0.22191528      -1.46880964      -1.00736228
H       -1.43696918       1.82351173       0.31050404
H       -1.29748114       1.30405438      -1.37326499
H       -2.29327267       0.37540446      -0.24983634
H       -0.33672475      -1.39102529       1.66203283
H       -0.24391609       0.30349081       2.20817060
H        2.08741486       1.16133192      -0.05159565
H        1.07390185       0.03105354      -2.10893548
H        0.22753962      -2.24756427      -0.66808788
15
Frame=9 idx=011738 GeodesicLength=1.1754378330189283 rxn_smarts="[C:1]([C@:2]12[C:3]([H:11])([H:12])[O:4][C@@:5]1([H:13])[C@:6]2([O:7][H:15])[H:14])([H:8])([H:9])[H:10]>>[C:1]([C@:2]1([O:7][H:15])[C:3]([H:11])([H:12])[O:4][C:5]([H:13])=[C:6]1[H:14])([H:8])([H:9])[H:10]"
C       -1.37488327       0.94924672      -0.34964411
C       -0.21085331       0.10888687       0.02747789
C        0.06305112      -0.40494515       1.41756541
O        1.48684509      -0.44917720       1.24435242
C        1.44416548       0.30378303       0.03234238
C        1.01160652      -0.40310075      -1.11705404
O       -0.22362756      -1.49032189      -1.00195592
H       -1.42012701       1.82752815       0.29927377
H       -1.31816099       1.29402819      -1.38143633
H       -2.30222916       0.38460248      -0.23461055
H       -0.34375062      -1.38944401       1.65793231
H       -0.24494730       0.30977267       2.18865379
H        2.12570485       1.14549011      -0.03463289
H        1.05030418       0.05863054      -2.09763498
H        0.25690197      -2.24497978      -0.65062916
15
Frame=10 idx=011738 GeodesicLength=1.3062267088931503 rxn_smarts="[C:1]([C@:2]12[C:3]([H:11])([H:12])[O:4][C@@:5]1([H:13])[C@:6]2([O:7][H:15])[H:14])([H:8])([H:9])[H:10]>>[C:1]([C@:2]1([O:7][H:15])[C:3]([H:11])([H:12])[O:4][C:5]([H:13])=[C:6]1[H:14])([H:8])([H:9])[H:10]"
C       -1.37948617       0.94700641      -0.35381361
C       -0.21757044       0.09290751       0.00840942
C        0.05910268      -0.40660913       1.40535853
O        1.48449081      -0.45834202       1.23987691
C        1.46227458       0.30283006       0.03928450
C        0.98860086      -0.37625085      -1.10578543
O       -0.22417693      -1.51099376      -0.99698688
H       -1.40415132       1.83121108       0.28772462
H       -1.33923343       1.28385936      -1.38915455
H       -2.31119513       0.39376793      -0.21931181
H       -0.35020937      -1.38779403       1.65388646
H       -0.24606685       0.31603022       2.16943251
H        2.16452349       1.12747087      -0.01910790
H        1.02772327       0.08592350      -2.08545960
H        0.28537395      -2.24101716      -0.63435316
15
Frame=11 idx=011738 GeodesicLength=1.4369503125815466 rxn_smarts="[C:1]([C@:2]12[C:3]([H:11])([H:12])[O:4][C@@:5]1([H:13])[C@:6]2([O:7][H:15])[H:14])([H:8])([H:9])[H:10]>>[C:1]([C@:2]1([O:7][H:15])[C:3]([H:11])([H:12])[O:4][C:5]([H:13])=[C:6]1[H:14])([H:8])([H:9])[H:10]"
C       -1.38462673       0.94469904      -0.35786181
C       -0.22525336       0.07696648      -0.01006500
C        0.05517739      -0.40801979       1.39339766
O        1.48209164      -0.46638229       1.23557288
C        1.47995092       0.30153991       0.04583742
C        0.96648763      -0.34964106      -1.09364872
O       -0.22355880      -1.53089072      -0.99244461
H       -1.38901632       1.83455197       0.27586248
H       -1.36064778       1.27356149      -1.39642507
H       -2.32017595       0.40293130      -0.20399374
H       -0.35614280      -1.38607591       1.64990965
H       -0.24732482       0.32230073       2.15046278
H        2.20394140       1.10718541      -0.00503914
H        1.00597805       0.11307162      -2.07241366
H        0.31311954      -2.23579817      -0.61915112
15
Frame=12 idx=011738 GeodesicLength=1.5676348777209126 rxn_smarts="[C:1]([C@:2]12[C:3]([H:11])([H:12])[O:4][C@@:5]1([H:13])[C@:6]2([O:7][H:15])[H:14])([H:8])([H:9])[H:10]>>[C:1]([C@:2]1([O:7][H:15])[C:3]([H:11])([H:12])[O:4][C:5]([H:13])=[C:6]1[H:14])([H:8])([H:9])[H:10]"
C       -1.39028791       0.94231223      -0.36180005
C       -0.23387909       0.06099844      -0.02800688
C        0.05124297      -0.40916438       1.38165824
O        1.47962989      -0.47333160       1.23148348
C        1.49727330       0.29997499       0.05206150
C        0.94516329      -0.32312000      -1.08065087
O       -0.22177407      -1.55007168      -0.98832582
H       -1.37471027       1.83753356       0.26371031
H       -1.38237010       1.26314195      -1.40326673
H       -2.32918090       0.41208839      -0.18870220
H       -0.36160067      -1.38427114       1.64599970
H       -0.24877086       0.32862554       2.13169805
H        2.24405544       1.08448937       0.00753663
H        0.98491555       0.14022700      -2.05849987
H        0.34029345      -2.22943266      -0.60489550
15
Frame=13 idx=011738 GeodesicLength=1.6982869155084732 rxn_smarts="[C:1]([C@:2]12[C:3]([H:11])([H:12])[O:4][C@@:5]1([H:13])[C@:6]2([O:7][H:15])[H:14])([H:8])([H:9])[H:10]>>[C:1]([C@:2]1([O:7][H:15])[C:3]([H:11])([H:12])[O:4][C:5]([H:13])=[C:6]1[H:14])([H:8])([H:9])[H:10]"
C       -1.39645659       0.93983161      -0.36563880
C       -0.24342132       0.04495938      -0.04548113
C        0.04727079      -0.41002115       1.37011493
O        1.47709288      -0.47920496       1.22765193
C        1.51432446       0.29817631       0.05799181
C        0.92453547      -0.29655756      -1.06676239
O       -0.21879820      -1.56857822      -0.98463289
H       -1.36124782       1.84012643       0.25129599
H       -1.40436933       1.25262408      -1.40968308
H       -2.33821967       0.42122787      -0.17347793
H       -0.36662767      -1.38235690       1.64215223
H       -0.25044849       0.33504667       2.11309014
H        2.28491712       1.05921147       0.01856297
H        0.96441454       0.16750383      -2.04369353
H        0.36703383      -2.22198885      -0.59149026
15
Frame=14 idx=011738 GeodesicLength=1.8289745129726267 rxn_smarts="[C:1]([C@:2]12[C:3]([H:11])([H:12])[O:4][C@@:5]1([H:13])[C@:6]2([O:7][H:15])[H:14])([H:8])([H:9])[H:10]>>[C:1]([C@:2]1([O:7][H:15])[C:3]([H:11])([H:12])[O:4][C:5]([H:13])=[C:6]1[H:14])([H:8])([H:9])[H:10]"
C       -1.40313302       0.93722687      -0.36937916
C       -0.25383125       0.02881494      -0.06255658
C        0.04323385      -0.41055700       1.35873627
O        1.47446648      -0.48398771       1.22412360
C        1.53118329       0.29620030       0.06368097
C        0.90448550      -0.26979226      -1.05194173
O       -0.21461567      -1.58643425      -0.98136451
H       -1.34866145       1.84230282       0.23866531
H       -1.42663147       1.24201918      -1.41569645
H       -2.34729932       0.43028566      -0.15836565
H       -0.37126056      -1.38029560       1.63835495
H       -0.25240462       0.34161549       2.09459474
H        2.32661376       1.03107630       0.02796993
H        0.94438595       0.19501841      -2.02796943
H        0.39346852      -2.21349315      -0.57885224
15
Frame=15 idx=011738 GeodesicLength=1.9597600196132936 rxn_smarts="[C:1]([C@:2]12[C:3]([H:11])([H:12])[O:4][C@@:5]1([H:13])[C@:6]2([O:7][H:15])[H:14])([H:8])([H:9])[H:10]>>[C:1]([C@:2]1([O:7][H:15])[C:3]([H:11])([H:12])[O:4][C:5]([H:13])=[C:6]1[H:14])([H:8])([H:9])[H:10]"
C       -1.41032554       0.93446580      -0.37301986
C       -0.26505214       0.01255496      -0.07930085
C        0.03910530      -0.41072974       1.34749300
O        1.47173874      -0.48764251       1.22095426
C        1.54792995       0.29408922       0.06916922
C        0.88490555      -0.24266642      -1.03611057
O       -0.20917584      -1.60363544      -0.97852450
H       -1.33702395       1.84402679       0.22587031
H       -1.44915114       1.23134451      -1.42131763
H       -2.35643479       0.43917523      -0.14341710
H       -0.37553407      -1.37804461       1.63458941
H       -0.25468823       0.34838803       2.07617137
H        2.36922628       0.99973416       0.03563523
H        0.92476537       0.22287142      -2.01127293
H        0.41971450      -2.20393140      -0.56691937
15
Frame=16 idx=011738 GeodesicLength=2.0906709451236605 rxn_smarts="[C:1]([C@:2]12[C:3]([H:11])([H:12])[O:4][C@@:5]1([H:13])[C@:6]2([O:7][H:15])[H:14])([H:8])([H:9])[H:10]>>[C:1]([C@:2]1([O:7][H:15])[C:3]([H:11])([H:12])[O:4][C:5]([H:13])=[C:6]1[H:14])([H:8])([H:9])[H:10]"
C       -1.41804410       0.93151780      -0.37656064
C       -0.27701305      -0.00380800      -0.09577991
C        0.03486433      -0.41048816       1.33635782
O        1.46890095      -0.49011214       1.21820394
C        1.56464919       0.29187238       0.07447994
C        0.86570331      -0.21503374      -1.01916840
O       -0.20240782      -1.62014992      -0.97612086
H       -1.32645324       1.84524832       0.21298033
H       -1.47190430       1.22064467      -1.42653416
H       -2.36563535       0.44779307      -0.12870367
H       -0.37947548      -1.37555685       1.63083074
H       -0.25734300       0.35542156       2.05778348
H        2.41276604       0.96479533       0.04139926
H        0.90551857       0.25113181      -1.99353629
H        0.44587396      -2.19327613      -0.55563158
