12
Frame=0 idx=005667 GeodesicLength=0.0 rxn_smarts="[N:1]([c:2]1[c:3]([H:9])[n:4]([H:10])[c:5]([H:11])[c:6]1[H:12])([H:7])[H:8]>>[N:1]([C:2]1=[C:6]([H:12])[C:5]([H:11])=[N:4][C:3]1([H:9])[H:10])([H:7])[H:8]"
N       -1.91248494       0.33340293      -0.28250198
C       -0.56433380       0.09405097      -0.05175372
C        0.42405154       1.06282504       0.16205783
N        1.71239207       0.40709987       0.34101487
C        1.44095400      -0.89404301       0.14626370
C        0.08932537      -1.13886961      -0.05608402
H       -2.27137374       1.17734340       0.13106318
H       -2.51325265      -0.45287946      -0.10194375
H        0.31599515       2.08764116       0.48509737
H        1.39919472       1.04010879      -0.68186516
H        2.24837627      -1.61259901       0.12939869
H       -0.36884403      -2.10408107      -0.22074705
12
Frame=1 idx=005667 GeodesicLength=0.03918762956240365 rxn_smarts="[N:1]([c:2]1[c:3]([H:9])[n:4]([H:10])[c:5]([H:11])[c:6]1[H:12])([H:7])[H:8]>>[N:1]([C:2]1=[C:6]([H:12])[C:5]([H:11])=[N:4][C:3]1([H:9])[H:10])([H:7])[H:8]"
N       -1.91257445       0.33132345      -0.28539373
C       -0.56471129       0.09145301      -0.05502773
C        0.42454145       1.06214073       0.15857851
N        1.70889473       0.40544834       0.33670986
C        1.44069350      -0.89514534       0.14501057
C        0.08759038      -1.14149418      -0.05546590
H       -2.26911023       1.18095738       0.11837725
H       -2.51513712      -0.45125405      -0.09483062
H        0.31165166       2.08006148       0.50167779
H        1.41041805       1.05715991      -0.68636978
H        2.24924217      -1.61243902       0.12433404
H       -0.37149886      -2.10821172      -0.20760027
12
Frame=2 idx=005667 GeodesicLength=0.07837404048309152 rxn_smarts="[N:1]([c:2]1[c:3]([H:9])[n:4]([H:10])[c:5]([H:11])[c:6]1[H:12])([H:7])[H:8]>>[N:1]([C:2]1=[C:6]([H:12])[C:5]([H:11])=[N:4][C:3]1([H:9])[H:10])([H:7])[H:8]"
N       -1.91265369       0.32923165      -0.28837877
C       -0.56510798       0.08881305      -0.05824818
C        0.42500889       1.06144629       0.15514184
N        1.70542014       0.40377199       0.33217383
C        1.44040260      -0.89629075       0.14379432
C        0.08577854      -1.14417815      -0.05447659
H       -2.26684002       1.18446243       0.10546644
H       -2.51702383      -0.44949919      -0.08788182
H        0.30731652       2.07209371       0.51810368
H        1.42180019       1.07467208      -0.69038454
H        2.25009768      -1.61225584       0.11867262
H       -0.37419902      -2.11226728      -0.19398283
12
Frame=3 idx=005667 GeodesicLength=0.11756336629489464 rxn_smarts="[N:1]([c:2]1[c:3]([H:9])[n:4]([H:10])[c:5]([H:11])[c:6]1[H:12])([H:7])[H:8]>>[N:1]([C:2]1=[C:6]([H:12])[C:5]([H:11])=[N:4][C:3]1([H:9])[H:10])([H:7])[H:8]"
N       -1.91278252       0.32715019      -0.29111537
C       -0.56554531       0.08614955      -0.06130199
C        0.42547934       1.06079555       0.15148578
N        1.70196579       0.40213046       0.32736228
C        1.44001686      -0.89747626       0.14306776
C        0.08382953      -1.14691816      -0.05267973
H       -2.26460680       1.18773321       0.09301514
H       -2.51892454      -0.44768668      -0.08096370
H        0.30308759       2.06396721       0.53367718
H        1.43336178       1.09235768      -0.69417140
H        2.25082951      -1.61211431       0.11330573
H       -0.37671122      -2.11608844      -0.18168168
12
Frame=4 idx=005667 GeodesicLength=0.15667557518823277 rxn_smarts="[N:1]([c:2]1[c:3]([H:9])[n:4]([H:10])[c:5]([H:11])[c:6]1[H:12])([H:7])[H:8]>>[N:1]([C:2]1=[C:6]([H:12])[C:5]([H:11])=[N:4][C:3]1([H:9])[H:10])([H:7])[H:8]"
N       -1.91305154       0.32509114      -0.29304561
C       -0.56606508       0.08348269      -0.06391326
C        0.42599267       1.06027433       0.14717702
N        1.69853891       0.40063579       0.32216145
C        1.43944115      -0.89868619       0.14360708
C        0.08163772      -1.14971254      -0.04918791
H       -2.26248126       1.19063989       0.08195749
H       -2.52085813      -0.44592151      -0.07370979
H        0.29912654       2.05607517       0.54734861
H        1.44508696       1.10969544      -0.69823105
H        2.25126433      -1.61209678       0.10970464
H       -0.37863228      -2.11947743      -0.17386868
12
Frame=5 idx=005667 GeodesicLength=0.1957945208005373 rxn_smarts="[N:1]([c:2]1[c:3]([H:9])[n:4]([H:10])[c:5]([H:11])[c:6]1[H:12])([H:7])[H:8]>>[N:1]([C:2]1=[C:6]([H:12])[C:5]([H:11])=[N:4][C:3]1([H:9])[H:10])([H:7])[H:8]"
N       -1.91338122       0.32307359      -0.29462752
C       -0.56663137       0.08080263      -0.06630889
C        0.42652509       1.05981099       0.14255305
N        1.69514051       0.39918937       0.31662736
C        1.43875547      -0.89992362       0.14478205
C        0.07929406      -1.15253289      -0.04473404
H       -2.26043398       1.19325724       0.07171544
H       -2.52280702      -0.44416427      -0.06659612
H        0.29533597       2.04818644       0.55995701
H        1.45701066       1.12713457      -0.70218233
H        2.25153020      -1.61215154       0.10671161
H       -0.38033836      -2.12268249      -0.16789762
12
Frame=6 idx=005667 GeodesicLength=0.23490735526802423 rxn_smarts="[N:1]([c:2]1[c:3]([H:9])[n:4]([H:10])[c:5]([H:11])[c:6]1[H:12])([H:7])[H:8]>>[N:1]([C:2]1=[C:6]([H:12])[C:5]([H:11])=[N:4][C:3]1([H:9])[H:10])([H:7])[H:8]"
N       -1.91374409       0.32106419      -0.29605311
C       -0.56722993       0.07809196      -0.06859287
C        0.42705670       1.05936689       0.13774935
N        1.69176646       0.39774983       0.31076996
C        1.43799395      -0.90119218       0.14634577
C        0.07683370      -1.15537501      -0.03956568
H       -2.25842853       1.19567385       0.06183989
H       -2.52476604      -0.44237636      -0.05959491
H        0.29166169       2.04018874       0.57189555
H        1.46913709       1.14486938      -0.70582523
H        2.25167667      -1.61224802       0.10382569
H       -0.38195768      -2.12581327      -0.16279440
12
Frame=7 idx=005667 GeodesicLength=0.2740232877109575 rxn_smarts="[N:1]([c:2]1[c:3]([H:9])[n:4]([H:10])[c:5]([H:11])[c:6]1[H:12])([H:7])[H:8]>>[N:1]([C:2]1=[C:6]([H:12])[C:5]([H:11])=[N:4][C:3]1([H:9])[H:10])([H:7])[H:8]"
N       -1.91408890       0.31905441      -0.29763664
C       -0.56783458       0.07533620      -0.07093036
C        0.42756592       1.05889320       0.13298811
N        1.68842182       0.39625470       0.30458127
C        1.43722035      -0.90250084       0.14783294
C        0.07431957      -1.15823697      -0.03416024
H       -2.25642283       1.19797183       0.05181905
H       -2.52672469      -0.44051301      -0.05291641
H        0.28802209       2.03186899       0.58377370
H        1.48146725       1.16322866      -0.70884600
H        2.25177873      -1.61235648       0.10027651
H       -0.38372473      -2.12900069      -0.15678194
12
Frame=8 idx=005667 GeodesicLength=0.31314286089298093 rxn_smarts="[N:1]([c:2]1[c:3]([H:9])[n:4]([H:10])[c:5]([H:11])[c:6]1[H:12])([H:7])[H:8]>>[N:1]([C:2]1=[C:6]([H:12])[C:5]([H:11])=[N:4][C:3]1([H:9])[H:10])([H:7])[H:8]"
N       -1.91436351       0.31702379      -0.29964842
C       -0.56842384       0.07251967      -0.07343176
C        0.42803898       1.05835006       0.12845731
N        1.68511280       0.39466443       0.29803758
C        1.43647797      -0.90384856       0.14889071
C        0.07178727      -1.16111954      -0.02875533
H       -2.25436926       1.20021792       0.04115934
H       -2.52866965      -0.43852572      -0.04671158
H        0.28436550       2.02302318       0.59608707
H        1.49398569       1.18247779      -0.71096264
H        2.25188505      -1.61243159       0.09534456
H       -0.38582699      -2.13235145      -0.14846685
12
Frame=9 idx=005667 GeodesicLength=0.3522566959975715 rxn_smarts="[N:1]([c:2]1[c:3]([H:9])[n:4]([H:10])[c:5]([H:11])[c:6]1[H:12])([H:7])[H:8]>>[N:1]([C:2]1=[C:6]([H:12])[C:5]([H:11])=[N:4][C:3]1([H:9])[H:10])([H:7])[H:8]"
N       -1.91468056       0.31499817      -0.30139675
C       -0.56905632       0.06966046      -0.07571968
C        0.42852199       1.05783538       0.12363402
N        1.68184155       0.39309276       0.29101648
C        1.43564454      -0.90522512       0.15049201
C        0.06910629      -1.16401232      -0.02232422
H       -2.25237077       1.20222491       0.03108677
H       -2.53064219      -0.43655827      -0.04061511
H        0.28089533       2.01416194       0.60752157
H        1.50668071       1.20196378      -0.71283871
H        2.25179056      -1.61259457       0.09085435
H       -0.38773112      -2.13554712      -0.14171074
12
Frame=10 idx=005667 GeodesicLength=0.3913803513940681 rxn_smarts="[N:1]([c:2]1[c:3]([H:9])[n:4]([H:10])[c:5]([H:11])[c:6]1[H:12])([H:7])[H:8]>>[N:1]([C:2]1=[C:6]([H:12])[C:5]([H:11])=[N:4][C:3]1([H:9])[H:10])([H:7])[H:8]"
N       -1.91499828       0.31295550      -0.30320913
C       -0.56970143       0.06674686      -0.07803082
C        0.42898842       1.05730026       0.11874182
N        1.67860787       0.39147751       0.28349412
C        1.43478548      -0.90663093       0.15211013
C        0.06634778      -1.16691138      -0.01540672
H       -2.25037560       1.20409825       0.02100718
H       -2.53262465      -0.43454846      -0.03473220
H        0.27752014       2.00502440       0.61873315
H        1.51956210       1.22207076      -0.71410263
H        2.25156981      -1.61283141       0.08605560
H       -0.38968166      -2.13875136      -0.13466051
12
Frame=11 idx=005667 GeodesicLength=0.4305141017088421 rxn_smarts="[N:1]([c:2]1[c:3]([H:9])[n:4]([H:10])[c:5]([H:11])[c:6]1[H:12])([H:7])[H:8]>>[N:1]([C:2]1=[C:6]([H:12])[C:5]([H:11])=[N:4][C:3]1([H:9])[H:10])([H:7])[H:8]"
N       -1.91529755       0.31084825      -0.30524347
C       -0.57034108       0.06375680      -0.08050646
C        0.42941818       1.05671166       0.11389232
N        1.67540268       0.38978497       0.27547393
C        1.43392967      -0.90808076       0.15351307
C        0.06354416      -1.16982266      -0.00823028
H       -2.24833519       1.20590070       0.01046410
H       -2.53460378      -0.43243258      -0.02894100
H        0.27417295       1.99546513       0.63002827
H        1.53264882       1.24299061      -0.71448863
H        2.25125393      -1.61311092       0.08049739
H       -0.39179281      -2.14201118      -0.12645925
12
Frame=12 idx=005667 GeodesicLength=0.46966144909676943 rxn_smarts="[N:1]([c:2]1[c:3]([H:9])[n:4]([H:10])[c:5]([H:11])[c:6]1[H:12])([H:7])[H:8]>>[N:1]([C:2]1=[C:6]([H:12])[C:5]([H:11])=[N:4][C:3]1([H:9])[H:10])([H:7])[H:8]"
N       -1.91555673       0.30862266      -0.30767581
C       -0.57095511       0.06066700      -0.08328451
C        0.42979335       1.05604701       0.10920653
N        1.67222776       0.38800050       0.26694211
C        1.43311165      -0.90958404       0.15447357
C        0.06071585      -1.17276272      -0.00089690
H       -2.24618871       1.20771121      -0.00107033
H       -2.53657034      -0.43013543      -0.02310580
H        0.27079000       1.98532072       0.64173814
H        1.54593982       1.26492862      -0.71371216
H        2.25087225      -1.61340422       0.07365098
H       -0.39417978      -2.14541130      -0.11626582
12
Frame=13 idx=005667 GeodesicLength=0.5088363421672468 rxn_smarts="[N:1]([c:2]1[c:3]([H:9])[n:4]([H:10])[c:5]([H:11])[c:6]1[H:12])([H:7])[H:8]>>[N:1]([C:2]1=[C:6]([H:12])[C:5]([H:11])=[N:4][C:3]1([H:9])[H:10])([H:7])[H:8]"
N       -1.91573823       0.30626277      -0.31068832
C       -0.57151560       0.05746954      -0.08648488
C        0.43010487       1.05528734       0.10475994
N        1.66906380       0.38607726       0.25781652
C        1.43236651      -0.91114288       0.15477121
C        0.05789968      -1.17569635       0.00655811
H       -2.24390240       1.20951663      -0.01387361
H       -2.53850499      -0.42762188      -0.01739032
H        0.26732687       1.97440803       0.65416074
H        1.55944751       1.28807914      -0.71149029
H        2.25038850      -1.61371089       0.06497145
H       -0.39693652      -2.14892871      -0.10311057
12
Frame=14 idx=005667 GeodesicLength=0.548037745905763 rxn_smarts="[N:1]([c:2]1[c:3]([H:9])[n:4]([H:10])[c:5]([H:11])[c:6]1[H:12])([H:7])[H:8]>>[N:1]([C:2]1=[C:6]([H:12])[C:5]([H:11])=[N:4][C:3]1([H:9])[H:10])([H:7])[H:8]"
N       -1.91590495       0.30377791      -0.31396518
C       -0.57205498       0.05416473      -0.08997629
C        0.43036863       1.05446974       0.10032552
N        1.66592512       0.38407722       0.24800816
C        1.43163476      -0.91275023       0.15479030
C        0.05504806      -1.17862903       0.01433747
H       -2.24152100       1.21124427      -0.02741174
H       -2.54042116      -0.42494331      -0.01156922
H        0.26388298       1.96294415       0.66671939
H        1.57316618       1.31218936      -0.70804737
H        2.24973627      -1.61408321       0.05537174
H       -0.39985991      -2.15246160      -0.08858279
12
Frame=15 idx=005667 GeodesicLength=0.587251904216123 rxn_smarts="[N:1]([c:2]1[c:3]([H:9])[n:4]([H:10])[c:5]([H:11])[c:6]1[H:12])([H:7])[H:8]>>[N:1]([C:2]1=[C:6]([H:12])[C:5]([H:11])=[N:4][C:3]1([H:9])[H:10])([H:7])[H:8]"
N       -1.91607941       0.30118418      -0.31738628
C       -0.57258383       0.05075796      -0.09371909
C        0.43059214       1.05361321       0.09578661
N        1.66280450       0.38201494       0.23740625
C        1.43089454      -0.91439796       0.15466539
C        0.05216279      -1.18153756       0.02243606
H       -2.23907389       1.21283791      -0.04139030
H       -2.54231489      -0.42213672      -0.00564194
H        0.26051356       1.95100094       0.67919459
H        1.58709870       1.33717816      -0.70341541
H        2.24885991      -1.61456219       0.04524368
H       -0.40287412      -2.15595287      -0.07317956
12
Frame=16 idx=005667 GeodesicLength=0.6264755495513755 rxn_smarts="[N:1]([c:2]1[c:3]([H:9])[n:4]([H:10])[c:5]([H:11])[c:6]1[H:12])([H:7])[H:8]>>[N:1]([C:2]1=[C:6]([H:12])[C:5]([H:11])=[N:4][C:3]1([H:9])[H:10])([H:7])[H:8]"
N       -1.91629172       0.29850252      -0.32081688
C       -0.57311798       0.04725819      -0.09767308
C        0.43078179       1.05273585       0.09101655
N        1.65969460       0.37990074       0.22587008
C        1.43012542      -0.91606992       0.15452761
C        0.04924800      -1.18439654       0.03078849
H       -2.23659895       1.21424973      -0.05548383
H       -2.54418537      -0.41924577       0.00040786
H        0.25728581       1.93865116       0.69137363
H        1.60124154       1.36296291      -0.69765093
H        2.24772275      -1.61519630       0.03508445
H       -0.40590590      -2.15935258      -0.05744395
