12
Frame=0 idx=005238 GeodesicLength=0.0 rxn_smarts="[C:1]([c:2]1[c:3]([H:10])[n:4]([H:11])[n:5][c:6]1[H:12])([H:7])([H:8])[H:9]>>[C:1]([C@@:6]1([H:12])[C+:2]=[C:3]([H:10])[N:4]([H:11])[N-:5]1)([H:7])([H:8])[H:9]"
C       -1.45415676       0.18808225      -0.08324391
C       -0.05462923      -0.87295553       0.78962680
C        0.94976469      -1.09818140      -0.19259194
N        1.52707397       0.06479563      -0.51184148
N        1.03711913       1.12455515       0.07486761
C        0.02025315       0.57519851       0.83394335
H       -1.39209476       1.03656706      -0.76240531
H       -1.63306440      -0.71842145      -0.64548288
H       -2.23821025       0.31515597       0.65199286
H        1.32349464      -2.01939133      -0.61464229
H        2.29986187       0.19536328      -1.15012452
H       -0.38541208       1.20923185       1.60990167
12
Frame=1 idx=005238 GeodesicLength=0.05086653004163232 rxn_smarts="[C:1]([c:2]1[c:3]([H:10])[n:4]([H:11])[n:5][c:6]1[H:12])([H:7])([H:8])[H:9]>>[C:1]([C@@:6]1([H:12])[C+:2]=[C:3]([H:10])[N:4]([H:11])[N-:5]1)([H:7])([H:8])[H:9]"
C       -1.46802476       0.18505237      -0.08062755
C       -0.05543602      -0.86355484       0.77770467
C        0.95364579      -1.09802278      -0.19242865
N        1.54040421       0.06318832      -0.51074606
N        1.04261485       1.12668526       0.06038476
C        0.02309707       0.58366654       0.82073324
H       -1.43156783       1.04245262      -0.75076079
H       -1.64826673      -0.71195630      -0.65861271
H       -2.24701763       0.29520674       0.66343190
H        1.32229197      -2.02174748      -0.61337571
H        2.33386156       0.18563364      -1.12473397
H       -0.36560248       1.21339591       1.60903089
12
Frame=2 idx=005238 GeodesicLength=0.10150148668002959 rxn_smarts="[C:1]([c:2]1[c:3]([H:10])[n:4]([H:11])[n:5][c:6]1[H:12])([H:7])([H:8])[H:9]>>[C:1]([C@@:6]1([H:12])[C+:2]=[C:3]([H:10])[N:4]([H:11])[N-:5]1)([H:7])([H:8])[H:9]"
C       -1.48190333       0.18197576      -0.07810283
C       -0.05627515      -0.85391773       0.76550938
C        0.95764248      -1.09782897      -0.19210564
N        1.55434890       0.06144407      -0.50897845
N        1.04841896       1.12872684       0.04565182
C        0.02584760       0.59240299       0.80697145
H       -1.47142169       1.04809229      -0.73825169
H       -1.66377930      -0.70509149      -0.67185373
H       -2.25553064       0.27472546       0.67464827
H        1.32092979      -2.02401414      -0.61223111
H        2.36709498       0.17591894      -1.09877763
H       -0.34537261       1.21756598       1.60752017
12
Frame=3 idx=005238 GeodesicLength=0.15188858603946484 rxn_smarts="[C:1]([c:2]1[c:3]([H:10])[n:4]([H:11])[n:5][c:6]1[H:12])([H:7])([H:8])[H:9]>>[C:1]([C@@:6]1([H:12])[C+:2]=[C:3]([H:10])[N:4]([H:11])[N-:5]1)([H:7])([H:8])[H:9]"
C       -1.49580984       0.17881352      -0.07562916
C       -0.05709923      -0.84400418       0.75304644
C        0.96175481      -1.09757061      -0.19163278
N        1.56882427       0.05959342      -0.50662936
N        1.05451052       1.13069269       0.03055796
C        0.02851735       0.60144688       0.79259390
H       -1.51167320       1.05335278      -0.72487761
H       -1.67966566      -0.69790129      -0.68507042
H       -2.26371269       0.25371892       0.68569196
H        1.31920966      -2.02611780      -0.61148357
H        2.39984777       0.16618058      -1.07183356
H       -0.32470376       1.22179510       1.60526620
12
Frame=4 idx=005238 GeodesicLength=0.20199633093971048 rxn_smarts="[C:1]([c:2]1[c:3]([H:10])[n:4]([H:11])[n:5][c:6]1[H:12])([H:7])([H:8])[H:9]>>[C:1]([C@@:6]1([H:12])[C+:2]=[C:3]([H:10])[N:4]([H:11])[N-:5]1)([H:7])([H:8])[H:9]"
C       -1.50971430       0.17561578      -0.07324125
C       -0.05794847      -0.83384381       0.74029023
C        0.96597371      -1.09726613      -0.19096758
N        1.58379555       0.05762079      -0.50360601
N        1.06095224       1.13253000       0.01526375
C        0.03109816       0.61075491       0.77765536
H       -1.55219782       1.05824228      -0.71062075
H       -1.69593513      -0.69030882      -0.69831115
H       -2.27153717       0.23224764       0.69646358
H        1.31733217      -2.02809061      -0.61091410
H        2.43182827       0.15649641      -1.04429850
H       -0.30364722       1.22600155       1.60228641
12
Frame=5 idx=005238 GeodesicLength=0.2517498281943296 rxn_smarts="[C:1]([c:2]1[c:3]([H:10])[n:4]([H:11])[n:5][c:6]1[H:12])([H:7])([H:8])[H:9]>>[C:1]([C@@:6]1([H:12])[C+:2]=[C:3]([H:10])[N:4]([H:11])[N-:5]1)([H:7])([H:8])[H:9]"
C       -1.52343605       0.17229741      -0.07102694
C       -0.05880315      -0.82341058       0.72756317
C        0.97054306      -1.09695231      -0.18952150
N        1.59942049       0.05551259      -0.49942742
N        1.06791765       1.13423358       0.00013486
C        0.03358011       0.62038379       0.76233770
H       -1.59259245       1.06255689      -0.69574189
H       -1.71227667      -0.68250039      -0.71153314
H       -2.27902137       0.21036094       0.70670294
H        1.31465623      -2.02980060      -0.61110948
H        2.46245613       0.14700315      -1.01699888
H       -0.28244397       1.23031555       1.59862059
12
Frame=6 idx=005238 GeodesicLength=0.30137122177851894 rxn_smarts="[C:1]([c:2]1[c:3]([H:10])[n:4]([H:11])[n:5][c:6]1[H:12])([H:7])([H:8])[H:9]>>[C:1]([C@@:6]1([H:12])[C+:2]=[C:3]([H:10])[N:4]([H:11])[N-:5]1)([H:7])([H:8])[H:9]"
C       -1.53715060       0.16896287      -0.06892608
C       -0.05970756      -0.81272754       0.71457400
C        0.97524439      -1.09664160      -0.18776518
N        1.61543552       0.05329140      -0.49454710
N        1.07539256       1.13584692      -0.01493787
C        0.03598095       0.63031783       0.74658714
H       -1.63315980       1.06634650      -0.68000971
H       -1.72909466      -0.67435330      -0.72479026
H       -2.28613084       0.18810390       0.71655429
H        1.31182478      -2.03140351      -0.61154158
H        2.49233191       0.13760513      -0.98946453
H       -0.26096665       1.23465141       1.59426689
12
Frame=7 idx=005238 GeodesicLength=0.3502279899172413 rxn_smarts="[C:1]([c:2]1[c:3]([H:10])[n:4]([H:11])[n:5][c:6]1[H:12])([H:7])([H:8])[H:9]>>[C:1]([C@@:6]1([H:12])[C+:2]=[C:3]([H:10])[N:4]([H:11])[N-:5]1)([H:7])([H:8])[H:9]"
C       -1.55050577       0.16564474      -0.06717065
C       -0.06076478      -0.80199379       0.70162041
C        0.98030299      -1.09635797      -0.18487184
N        1.63188686       0.05092065      -0.48815533
N        1.08352415       1.13705090      -0.02910344
C        0.03824937       0.64027201       0.73068682
H       -1.67287525       1.06985663      -0.66390062
H       -1.74566737      -0.66565491      -0.73826883
H       -2.29293825       0.16564732       0.72554812
H        1.30887409      -2.03259543      -0.61156018
H        2.51953230       0.12865557      -0.96432876
H       -0.23961833       1.23855430       1.58950431
12
Frame=8 idx=005238 GeodesicLength=0.3988498957817033 rxn_smarts="[C:1]([c:2]1[c:3]([H:10])[n:4]([H:11])[n:5][c:6]1[H:12])([H:7])([H:8])[H:9]>>[C:1]([C@@:6]1([H:12])[C+:2]=[C:3]([H:10])[N:4]([H:11])[N-:5]1)([H:7])([H:8])[H:9]"
C       -1.56379311       0.16240106      -0.06562925
C       -0.06199894      -0.79117916       0.68841963
C        0.98549484      -1.09616211      -0.18146505
N        1.64855839       0.04844186      -0.48093342
N        1.09231148       1.13808840      -0.04266202
C        0.04041056       0.65039069       0.71458179
H       -1.71231566       1.07302263      -0.64713945
H       -1.76260039      -0.65647831      -0.75192162
H       -2.29949458       0.14299899       0.73397143
H        1.30623136      -2.03375895      -0.61111212
H        2.54546723       0.12000932      -0.94044230
H       -0.21827118       1.24222558       1.58433238
12
Frame=9 idx=005238 GeodesicLength=0.4468885820170268 rxn_smarts="[C:1]([c:2]1[c:3]([H:10])[n:4]([H:11])[n:5][c:6]1[H:12])([H:7])([H:8])[H:9]>>[C:1]([C@@:6]1([H:12])[C+:2]=[C:3]([H:10])[N:4]([H:11])[N-:5]1)([H:7])([H:8])[H:9]"
C       -1.57663771       0.15918665      -0.06458154
C       -0.06347955      -0.78019176       0.67535517
C        0.99118523      -1.09602620      -0.17647855
N        1.66590665       0.04578331      -0.47137135
N        1.10209667       1.13881618      -0.05432466
C        0.04242673       0.66056044       0.69885544
H       -1.75050460       1.07549197      -0.63028435
H       -1.77912255      -0.64671122      -0.76592548
H       -2.30579294       0.12032897       0.74088714
H        1.30341250      -2.03452897      -0.61002550
H        2.56793237       0.11182103      -0.92131799
H       -0.19742280       1.24546961       1.57921166
12
Frame=10 idx=005238 GeodesicLength=0.49458528416397907 rxn_smarts="[C:1]([c:2]1[c:3]([H:10])[n:4]([H:11])[n:5][c:6]1[H:12])([H:7])([H:8])[H:9]>>[C:1]([C@@:6]1([H:12])[C+:2]=[C:3]([H:10])[N:4]([H:11])[N-:5]1)([H:7])([H:8])[H:9]"
C       -1.58908906       0.15597623      -0.06395840
C       -0.06506102      -0.76910275       0.66256041
C        0.99731328      -1.09599049      -0.16991890
N        1.68389757       0.04295591      -0.45972150
N        1.11273045       1.13931036      -0.06472745
C        0.04438366       0.67091292       0.68323744
H       -1.78796766       1.07757812      -0.61315598
H       -1.79537460      -0.63657558      -0.78025361
H       -2.31187478       0.09733627       0.74679460
H        1.30009979      -2.03489218      -0.60899745
H        2.58801376       0.10390461      -0.90563766
H       -0.17707141       1.24858657       1.57377849
12
Frame=11 idx=005238 GeodesicLength=0.5420086148518879 rxn_smarts="[C:1]([c:2]1[c:3]([H:10])[n:4]([H:11])[n:5][c:6]1[H:12])([H:7])([H:8])[H:9]>>[C:1]([C@@:6]1([H:12])[C+:2]=[C:3]([H:10])[N:4]([H:11])[N-:5]1)([H:7])([H:8])[H:9]"
C       -1.60129975       0.15286823      -0.06372078
C       -0.06681798      -0.75788971       0.64969374
C        1.00366166      -1.09601104      -0.16219267
N        1.70239468       0.03996519      -0.44607553
N        1.12414490       1.13955019      -0.07389130
C        0.04629492       0.68137336       0.66769276
H       -1.82488134       1.07934257      -0.59548498
H       -1.81159470      -0.62573158      -0.79500582
H       -2.31773095       0.07399985       0.75166174
H        1.29706189      -2.03500036      -0.60724690
H        2.60591444       0.09613567      -0.89352974
H       -0.15714777       1.25139765       1.56809948
12
Frame=12 idx=005238 GeodesicLength=0.5892062459294852 rxn_smarts="[C:1]([c:2]1[c:3]([H:10])[n:4]([H:11])[n:5][c:6]1[H:12])([H:7])([H:8])[H:9]>>[C:1]([C@@:6]1([H:12])[C+:2]=[C:3]([H:10])[N:4]([H:11])[N-:5]1)([H:7])([H:8])[H:9]"
C       -1.61334810       0.14986313      -0.06379196
C       -0.06868809      -0.74655116       0.63659191
C        1.01013571      -1.09602812      -0.15359448
N        1.72137674       0.03686007      -0.43064472
N        1.13621603       1.13955270      -0.08218721
C        0.04820725       0.69196581       0.65203795
H       -1.86147164       1.08082342      -0.57709940
H       -1.82794054      -0.61413766      -0.81008864
H       -2.32332049       0.05020613       0.75570002
H        1.29438494      -2.03483033      -0.60483802
H        2.62201754       0.08831159      -0.88408694
H       -0.13756937       1.25396442       1.56200148
12
Frame=13 idx=005238 GeodesicLength=0.6362444982477728 rxn_smarts="[C:1]([c:2]1[c:3]([H:10])[n:4]([H:11])[n:5][c:6]1[H:12])([H:7])([H:8])[H:9]>>[C:1]([C@@:6]1([H:12])[C+:2]=[C:3]([H:10])[N:4]([H:11])[N-:5]1)([H:7])([H:8])[H:9]"
C       -1.62551179       0.14698088      -0.06391876
C       -0.07062305      -0.73505284       0.62277843
C        1.01645728      -1.09595758      -0.14497603
N        1.74037795       0.03374362      -0.41457562
N        1.14864476       1.13937484      -0.09049957
C        0.05016783       0.70271504       0.63581870
H       -1.89824963       1.08204263      -0.55751791
H       -1.84498514      -0.60166275      -0.82522134
H       -2.32854061       0.02585069       0.75940791
H        1.29245548      -2.03456939      -0.60173574
H        2.63780097       0.08023501      -0.87467756
H       -0.11799405       1.25629985       1.55511750
12
Frame=14 idx=005238 GeodesicLength=0.6832355486965079 rxn_smarts="[C:1]([c:2]1[c:3]([H:10])[n:4]([H:11])[n:5][c:6]1[H:12])([H:7])([H:8])[H:9]>>[C:1]([C@@:6]1([H:12])[C+:2]=[C:3]([H:10])[N:4]([H:11])[N-:5]1)([H:7])([H:8])[H:9]"
C       -1.63807613       0.14419704      -0.06381233
C       -0.07256188      -0.72334110       0.60781366
C        1.02241025      -1.09574164      -0.13714612
N        1.75897094       0.03069909      -0.39913686
N        1.16112436       1.13910219      -0.09985243
C        0.05220191       0.71370041       0.61851541
H       -1.93576602       1.08296475      -0.53616251
H       -1.86332644      -0.58825945      -0.84005208
H       -2.33327559       0.00075885       0.76333849
H        1.29132544      -2.03432525      -0.59824703
H        2.65506471       0.07169798      -0.86219458
H       -0.09809154       1.25854712       1.54693636
12
Frame=15 idx=005238 GeodesicLength=0.7301749968293286 rxn_smarts="[C:1]([c:2]1[c:3]([H:10])[n:4]([H:11])[n:5][c:6]1[H:12])([H:7])([H:8])[H:9]>>[C:1]([C@@:6]1([H:12])[C+:2]=[C:3]([H:10])[N:4]([H:11])[N-:5]1)([H:7])([H:8])[H:9]"
C       -1.65099089       0.14145786      -0.06342991
C       -0.07448231      -0.71136647       0.59174770
C        1.02804754      -1.09539759      -0.12993104
N        1.77714584       0.02771250      -0.38423186
N        1.17364946       1.13871253      -0.11040885
C        0.05432455       0.72496229       0.60002037
H       -1.97397639       1.08343519      -0.51291322
H       -1.88290560      -0.57391937      -0.85450628
H       -2.33742838      -0.02520210       0.76746072
H        1.29056348      -2.03398732      -0.59479511
H        2.67395149       0.06271112      -0.84628567
H       -0.07789880       1.26088136       1.53727315
12
Frame=16 idx=005238 GeodesicLength=0.7768791435541447 rxn_smarts="[C:1]([c:2]1[c:3]([H:10])[n:4]([H:11])[n:5][c:6]1[H:12])([H:7])([H:8])[H:9]>>[C:1]([C@@:6]1([H:12])[C+:2]=[C:3]([H:10])[N:4]([H:11])[N-:5]1)([H:7])([H:8])[H:9]"
C       -1.66409999       0.13891688      -0.06296305
C       -0.07646383      -0.69925168       0.57448491
C        1.03336551      -1.09491357      -0.12319660
N        1.79477639       0.02478928      -0.36975322
N        1.18630951       1.13812496      -0.12144336
C        0.05653124       0.73629564       0.58066648
H       -2.01235936       1.08363616      -0.48786236
H       -1.90360592      -0.55829914      -0.86881044
H       -2.34094777      -0.05186932       0.77132470
H        1.29092631      -2.03383179      -0.59014927
H        2.69326227       0.05353893      -0.82876844
H       -0.05769436       1.26286365       1.52647065
