18
Frame=0 idx=004841 GeodesicLength=0.0 rxn_smarts="[C:1]([C:2]1([H:10])[C:3]([H:11])([H:12])[C:4]([H:13])([H:14])[C:5]([H:15])([H:16])[C:6]1([H:17])[H:18])([H:7])([H:8])[H:9]>>[C:1]([C:2]1=[C:6]([H:18])[C:5]([H:15])([H:16])[C:4]([H:13])([H:14])[C:3]1([H:11])[H:12])([H:7])([H:8])[H:9].[H:10][H:17]"
C        1.56534665      -0.41462963       1.04812501
C        0.76708331       0.12253493      -0.12481507
C       -0.12016633       1.29799689       0.27407024
C       -1.50669456       0.61555709       0.34009826
C       -1.49694218      -0.56442502      -0.66828719
C       -0.03081767      -0.66117471      -1.04428912
H        0.90601960      -0.51895899       1.91851964
H        2.36075324       0.27747566       1.33273988
H        2.00795745      -1.38518621       0.82676502
H        1.84572916      -0.40562422      -1.04605066
H       -0.10735312       2.06255689      -0.50495431
H        0.14961605       1.77083471       1.21941497
H       -1.67225725       0.24100457       1.35156882
H       -2.30810834       1.31974449       0.11986295
H       -1.86284839      -1.47900071      -0.19729922
H       -2.13445479      -0.37500108      -1.53545469
H        1.46288993      -1.28441485      -1.20832373
H        0.17424730      -0.61928986      -2.10169074
18
Frame=1 idx=004841 GeodesicLength=0.0819157233601036 rxn_smarts="[C:1]([C:2]1([H:10])[C:3]([H:11])([H:12])[C:4]([H:13])([H:14])[C:5]([H:15])([H:16])[C:6]1([H:17])[H:18])([H:7])([H:8])[H:9]>>[C:1]([C:2]1=[C:6]([H:18])[C:5]([H:15])([H:16])[C:4]([H:13])([H:14])[C:3]1([H:11])[H:12])([H:7])([H:8])[H:9].[H:10][H:17]"
C        1.58231646      -0.41358363       1.04801954
C        0.75971063       0.11188706      -0.11312305
C       -0.12264704       1.28720847       0.28982427
C       -1.51922860       0.62748954       0.32783244
C       -1.50278404      -0.56203190      -0.66664256
C       -0.03358963      -0.67997144      -1.02688581
H        0.93655412      -0.53627424       1.92580779
H        2.36988780       0.29073802       1.32479228
H        2.04505343      -1.37322887       0.81995820
H        1.84257004      -0.36705329      -1.06266429
H       -0.08450923       2.06712374      -0.47318906
H        0.13460341       1.74249571       1.24758264
H       -1.71661129       0.26515390       1.33815579
H       -2.30420004       1.34162963       0.08126503
H       -1.88746362      -1.46946855      -0.19680356
H       -2.12684672      -0.37088191      -1.54352288
H        1.47936718      -1.27340216      -1.22999557
H        0.14781715      -0.68783007      -2.09041121
18
Frame=2 idx=004841 GeodesicLength=0.16368526143147846 rxn_smarts="[C:1]([C:2]1([H:10])[C:3]([H:11])([H:12])[C:4]([H:13])([H:14])[C:5]([H:15])([H:16])[C:6]1([H:17])[H:18])([H:7])([H:8])[H:9]>>[C:1]([C:2]1=[C:6]([H:18])[C:5]([H:15])([H:16])[C:4]([H:13])([H:14])[C:3]1([H:11])[H:12])([H:7])([H:8])[H:9].[H:10][H:17]"
C        1.60007039      -0.41219440       1.04739436
C        0.75224660       0.10092794      -0.10085233
C       -0.12543078       1.27584593       0.30663665
C       -1.53156086       0.63986279       0.31465701
C       -1.50860062      -0.55938909      -0.66536181
C       -0.03655225      -0.69909181      -1.00875083
H        0.96925663      -0.55353892       1.93286420
H        2.37935236       0.30460095       1.31594935
H        2.08285199      -1.36018401       0.81188391
H        1.83646615      -0.32697141      -1.07960319
H       -0.06125009       2.07138165      -0.43851906
H        0.11836521       1.71211669       1.27706795
H       -1.76208691       0.29061449       1.32267649
H       -2.29841325       1.36398566       0.04102611
H       -1.91268764      -1.45918220      -0.19710354
H       -2.11825954      -0.36667956      -1.55233760
H        1.49447206      -1.26134396      -1.25236642
H        0.12176053      -0.76076074      -2.07526125
18
Frame=3 idx=004841 GeodesicLength=0.2452834329446411 rxn_smarts="[C:1]([C:2]1([H:10])[C:3]([H:11])([H:12])[C:4]([H:13])([H:14])[C:5]([H:15])([H:16])[C:6]1([H:17])[H:18])([H:7])([H:8])[H:9]>>[C:1]([C:2]1=[C:6]([H:18])[C:5]([H:15])([H:16])[C:4]([H:13])([H:14])[C:3]1([H:11])[H:12])([H:7])([H:8])[H:9].[H:10][H:17]"
C        1.61867499      -0.41037580       1.04615402
C        0.74470814       0.08966556      -0.08798716
C       -0.12857199       1.26383933       0.32460888
C       -1.54362182       0.65270168       0.30050848
C       -1.51438461      -0.55643080      -0.66454162
C       -0.03973624      -0.71863182      -0.98973747
H        1.00430786      -0.57069014       1.93957307
H        2.38913220       0.31919408       1.30611898
H        2.12143193      -1.34589638       0.80235723
H        1.82712568      -0.28542549      -1.09684035
H       -0.03766620       2.07525545      -0.40062248
H        0.10074236       1.67941445       1.30795470
H       -1.80864207       0.31746328       1.30490439
H       -2.29049706       1.38683169      -0.00087997
H       -1.93866975      -1.44800398      -0.19841193
H       -2.10845163      -0.36227000      -1.56208119
H        1.50797335      -1.24822936      -1.27557597
H        0.09614485      -0.83841173      -2.05550162
18
Frame=4 idx=004841 GeodesicLength=0.3266517040035989 rxn_smarts="[C:1]([C:2]1([H:10])[C:3]([H:11])([H:12])[C:4]([H:13])([H:14])[C:5]([H:15])([H:16])[C:6]1([H:17])[H:18])([H:7])([H:8])[H:9]>>[C:1]([C:2]1=[C:6]([H:18])[C:5]([H:15])([H:16])[C:4]([H:13])([H:14])[C:3]1([H:11])[H:12])([H:7])([H:8])[H:9].[H:10][H:17]"
C        1.63820526      -0.40801325       1.04418165
C        0.73711944       0.07811687      -0.07451371
C       -0.13213660       1.25110582       0.34385736
C       -1.55532705       0.66602430       0.28532373
C       -1.52011865      -0.55307727      -0.66431400
C       -0.04317926      -0.73870879      -0.96964568
H        1.04192141      -0.58762063       1.94580100
H        2.39921586       0.33467309       1.29517551
H        2.16085898      -1.33017877       0.79116720
H        1.81422384      -0.24252198      -1.11434658
H       -0.01387534       2.07865425      -0.35912955
H        0.08154914       1.64405750       1.34032125
H       -1.85620076       0.34575388       1.28459174
H       -2.28017433       1.41017644      -0.04444603
H       -1.96559675      -1.43577038      -0.20103297
H       -2.09709654      -0.35749418      -1.57298686
H        1.51953867      -1.23406997      -1.29980802
H        0.07107266      -0.92110693      -2.03019605
18
Frame=5 idx=004841 GeodesicLength=0.4077850878059616 rxn_smarts="[C:1]([C:2]1([H:10])[C:3]([H:11])([H:12])[C:4]([H:13])([H:14])[C:5]([H:15])([H:16])[C:6]1([H:17])[H:18])([H:7])([H:8])[H:9]>>[C:1]([C:2]1=[C:6]([H:18])[C:5]([H:15])([H:16])[C:4]([H:13])([H:14])[C:3]1([H:11])[H:12])([H:7])([H:8])[H:9].[H:10][H:17]"
C        1.65876783      -0.40496645       1.04133349
C        0.72951383       0.06630971      -0.06040783
C       -0.13620901       1.23754050       0.36454014
C       -1.56658214       0.67985544       0.26901841
C       -1.52576834      -0.54923568      -0.66484830
C       -0.04692338      -0.75948850      -0.94819880
H        1.08238487      -0.60420978       1.95138665
H        2.40958691       0.35124698       1.28296787
H        2.20124809      -1.31278923       0.77803132
H        1.79738464      -0.19841581      -1.13209002
H        0.00997287       2.08147752      -0.31357788
H        0.06054801       1.60561442       1.37428771
H       -1.90471623       0.37555482       1.26144334
H       -2.26710613       1.43405001      -0.08969379
H       -1.99369816      -1.42226522      -0.20535085
H       -2.08373041      -0.35217789      -1.58536904
H        1.52871013      -1.21891734      -1.32532797
H        0.04661662      -1.00918351      -1.99814445
18
Frame=6 idx=004841 GeodesicLength=0.48859938825329985 rxn_smarts="[C:1]([C:2]1([H:10])[C:3]([H:11])([H:12])[C:4]([H:13])([H:14])[C:5]([H:15])([H:16])[C:6]1([H:17])[H:18])([H:7])([H:8])[H:9]>>[C:1]([C:2]1=[C:6]([H:18])[C:5]([H:15])([H:16])[C:4]([H:13])([H:14])[C:3]1([H:11])[H:12])([H:7])([H:8])[H:9].[H:10][H:17]"
C        1.68047206      -0.40104857       1.03746175
C        0.72193743       0.05427184      -0.04565718
C       -0.14088974       1.22302128       0.38681598
C       -1.57726348       0.69419709       0.25151955
C       -1.53127323      -0.54483344      -0.66635007
C       -0.05103885      -0.78118317      -0.92504279
H        1.12601305      -0.62022433       1.95618323
H        2.42024800       0.36915706       1.26930690
H        2.24265339      -1.29346561       0.76269216
H        1.77621881      -0.15346193      -1.15003012
H        0.03367031       2.08358661      -0.26347803
H        0.03748396       1.56361877       1.40992318
H       -1.95404961       0.40689678       1.23515844
H       -2.25093013       1.45845081      -0.13658687
H       -2.02319657      -1.40729247      -0.21188097
H       -2.06780157      -0.34616688      -1.59955598
H        1.53479454      -1.20296518      -1.35242426
H        0.02295161      -1.10255865      -1.95805491
18
Frame=7 idx=004841 GeodesicLength=0.5690859564002053 rxn_smarts="[C:1]([C:2]1([H:10])[C:3]([H:11])([H:12])[C:4]([H:13])([H:14])[C:5]([H:15])([H:16])[C:6]1([H:17])[H:18])([H:7])([H:8])[H:9]>>[C:1]([C:2]1=[C:6]([H:18])[C:5]([H:15])([H:16])[C:4]([H:13])([H:14])[C:3]1([H:11])[H:12])([H:7])([H:8])[H:9].[H:10][H:17]"
C        1.70341078      -0.39604393       1.03240181
C        0.71446613       0.04204245      -0.03024720
C       -0.14628611       1.20738357       0.41084568
C       -1.58720957       0.70902639       0.23273366
C       -1.53651439      -0.53984419      -0.66898540
C       -0.05559122      -0.80406223      -0.89971379
H        1.17310139      -0.63538018       1.95999278
H        2.43114597       0.38869302       1.25400000
H        2.28511846      -1.27188940       0.74485786
H        1.75039284      -0.10820264      -1.16806027
H        0.05697573       2.08476133      -0.20831351
H        0.01205605       1.51749723       1.44725222
H       -2.00408288       0.43985649       1.20538490
H       -2.23117605       1.48332333      -0.18512913
H       -2.05424993      -1.39062772      -0.22109482
H       -2.04862131      -0.33944668      -1.61581619
H        1.53690658      -1.18662241      -1.38138802
H        0.00015750      -1.20046445      -1.90872059
18
Frame=8 idx=004841 GeodesicLength=0.6490847174924779 rxn_smarts="[C:1]([C:2]1([H:10])[C:3]([H:11])([H:12])[C:4]([H:13])([H:14])[C:5]([H:15])([H:16])[C:6]1([H:17])[H:18])([H:7])([H:8])[H:9]>>[C:1]([C:2]1=[C:6]([H:18])[C:5]([H:15])([H:16])[C:4]([H:13])([H:14])[C:3]1([H:11])[H:12])([H:7])([H:8])[H:9].[H:10][H:17]"
C        1.72761499      -0.38969069       1.02601900
C        0.70720997       0.02969389      -0.01422131
C       -0.15252440       1.19047118       0.43670766
C       -1.59619863       0.72426414       0.21261787
C       -1.54129842      -0.53428369      -0.67289795
C       -0.06065703      -0.82835391      -0.87171291
H        1.22385664      -0.64924151       1.96261653
H        2.44218694       0.41012392       1.23688391
H        2.32854023      -1.24776309       0.72437462
H        1.71964601      -0.06355082      -1.18604711
H        0.07948554       2.08474327      -0.14765569
H       -0.01600167       1.46671113       1.48610207
H       -2.05443658       0.47440304       1.17181730
H       -2.20741523       1.50851062      -0.23516526
H       -2.08680326      -1.37213020      -0.23353908
H       -2.02552178      -0.33206077      -1.63425167
H        1.53388321      -1.17067631      -1.41230161
H       -0.02156652      -1.30117019      -1.84934638
18
Frame=9 idx=004841 GeodesicLength=0.7285969028492272 rxn_smarts="[C:1]([C:2]1([H:10])[C:3]([H:11])([H:12])[C:4]([H:13])([H:14])[C:5]([H:15])([H:16])[C:6]1([H:17])[H:18])([H:7])([H:8])[H:9]>>[C:1]([C:2]1=[C:6]([H:18])[C:5]([H:15])([H:16])[C:4]([H:13])([H:14])[C:3]1([H:11])[H:12])([H:7])([H:8])[H:9].[H:10][H:17]"
C        1.75294274      -0.38173363       1.01825856
C        0.70032660       0.01734700       0.00232432
C       -0.15967623       1.17218297       0.46436693
C       -1.60393658       0.73977258       0.19120095
C       -1.54534870      -0.52834296      -0.67804395
C       -0.06628700      -0.85421374      -0.84059842
H        1.27815039      -0.66130328       1.96387376
H        2.45313070       0.43369085       1.21793600
H        2.37261651      -1.22084662       0.70124987
H        1.68403712      -0.02068246      -1.20383643
H        0.10079720       2.08323921      -0.08129060
H       -0.04687976       1.41084651       1.52609361
H       -2.10461168       0.51053559       1.13429124
H       -2.17916733       1.53371312      -0.28646817
H       -2.12047909      -1.35187048      -0.24941496
H       -1.99798302      -0.32442692      -1.65462300
H        1.52458972      -1.15638301      -1.44496302
H       -0.04222159      -1.40152473      -1.78035668
18
Frame=10 idx=004841 GeodesicLength=0.807499254454146 rxn_smarts="[C:1]([C:2]1([H:10])[C:3]([H:11])([H:12])[C:4]([H:13])([H:14])[C:5]([H:15])([H:16])[C:6]1([H:17])[H:18])([H:7])([H:8])[H:9]>>[C:1]([C:2]1=[C:6]([H:18])[C:5]([H:15])([H:16])[C:4]([H:13])([H:14])[C:3]1([H:11])[H:12])([H:7])([H:8])[H:9].[H:10][H:17]"
C        1.77893163      -0.37203767       1.00926443
C        0.69400125       0.00519905       0.01913752
C       -0.16772843       1.15259390       0.49343844
C       -1.61005368       0.75530625       0.16874438
C       -1.54831237      -0.52230026      -0.68410339
C       -0.07243956      -0.88140715      -0.80636412
H        1.33519933      -0.67102988       1.96365088
H        2.46354327       0.45932882       1.19747403
H        2.41661769      -1.19120776       0.67596945
H        1.64411040       0.01916097      -1.22116335
H        0.12031688       2.07995384      -0.00972214
H       -0.08040948       1.35007361       1.56628904
H       -2.15357677       0.54803800       1.09304340
H       -2.14625229       1.55838480      -0.33836364
H       -2.15427199      -1.33022644      -0.26846097
H       -1.96610088      -0.31709892      -1.67606326
H        1.50838145      -1.14528375      -1.47855349
H       -0.06195646      -1.49744743      -1.70421723
18
Frame=11 idx=004841 GeodesicLength=0.8858548188298984 rxn_smarts="[C:1]([C:2]1([H:10])[C:3]([H:11])([H:12])[C:4]([H:13])([H:14])[C:5]([H:15])([H:16])[C:6]1([H:17])[H:18])([H:7])([H:8])[H:9]>>[C:1]([C:2]1=[C:6]([H:18])[C:5]([H:15])([H:16])[C:4]([H:13])([H:14])[C:3]1([H:11])[H:12])([H:7])([H:8])[H:9].[H:10][H:17]"
C        1.80485633      -0.36068418       0.99933893
C        0.68839825      -0.00647563       0.03586114
C       -0.17653780       1.13203720       0.52334000
C       -1.61421086       0.77063289       0.14569727
C       -1.54989296      -0.51650902      -0.69056905
C       -0.07896588      -0.90927366      -0.76961335
H        1.39360682      -0.67813092       1.96194970
H        2.47286771       0.48668119       1.17613430
H        2.45956174      -1.15925894       0.64925447
H        1.60089807       0.05529544      -1.23782203
H        0.13755947       2.07480160       0.06597915
H       -0.11611174       1.28518681       1.60554581
H       -2.20014695       0.58662028       1.04877041
H       -2.10877405       1.58196255      -0.38993918
H       -2.18686108      -1.30790957      -0.28983071
H       -1.93059749      -0.31078477      -1.69743597
H        1.48552570      -1.13865219      -1.51208987
H       -0.08117529      -1.58553907      -1.62457102
18
Frame=12 idx=004841 GeodesicLength=0.9637159317432107 rxn_smarts="[C:1]([C:2]1([H:10])[C:3]([H:11])([H:12])[C:4]([H:13])([H:14])[C:5]([H:15])([H:16])[C:6]1([H:17])[H:18])([H:7])([H:8])[H:9]>>[C:1]([C:2]1=[C:6]([H:18])[C:5]([H:15])([H:16])[C:4]([H:13])([H:14])[C:3]1([H:11])[H:12])([H:7])([H:8])[H:9].[H:10][H:17]"
C        1.82992027      -0.34798445       0.98886800
C        0.68361556      -0.01739728       0.05208270
C       -0.18588207       1.11100263       0.55335157
C       -1.61620138       0.78556060       0.12260565
C       -1.54994523      -0.51121910      -0.69691934
C       -0.08562404      -0.93682107      -0.73149576
H        1.45169690      -0.68265187       1.95885085
H        2.48058819       0.51509518       1.15473189
H        2.50045544      -1.12569809       0.62193419
H        1.55568060       0.08781216      -1.25360736
H        0.15215609       2.06784592       0.14427607
H       -0.15324161       1.21749405       1.64263540
H       -2.24313670       0.62585335       1.00248560
H       -2.06725462       1.60396624      -0.44013052
H       -2.21694725      -1.28570601      -0.31239738
H       -1.89269710      -0.30598824      -1.71763202
H        1.45712158      -1.13704690      -1.54471660
H       -0.10030462      -1.66411711      -1.54492295
18
Frame=13 idx=004841 GeodesicLength=1.0410416870141226 rxn_smarts="[C:1]([C:2]1([H:10])[C:3]([H:11])([H:12])[C:4]([H:13])([H:14])[C:5]([H:15])([H:16])[C:6]1([H:17])[H:18])([H:7])([H:8])[H:9]>>[C:1]([C:2]1=[C:6]([H:18])[C:5]([H:15])([H:16])[C:4]([H:13])([H:14])[C:3]1([H:11])[H:12])([H:7])([H:8])[H:9].[H:10][H:17]"
C        1.85345769      -0.33435399       0.97820076
C        0.67967598      -0.02736655       0.06742926
C       -0.19551218       1.08993624       0.58275797
C       -1.61599490       0.79993135       0.09996173
C       -1.54850713      -0.50651540      -0.70274727
C       -0.09213692      -0.96304820      -0.69332251
H        1.50793310      -0.68486324       1.95445599
H        2.48637135       0.54380077       1.13400085
H        2.53853515      -1.09126954       0.59476324
H        1.50970218       0.11737813      -1.26830522
H        0.16395756       2.05916170       0.22353098
H       -0.19098116       1.14842669       1.67645717
H       -2.28164464       0.66521120       0.95524033
H       -2.02249907       1.62402771      -0.48797615
H       -2.24365600      -1.26423139      -0.33508384
H       -1.85376001      -0.30286262      -1.73580640
H        1.42466256      -1.14031615      -1.57590611
H       -0.11960356      -1.73304672      -1.46765077
18
Frame=14 idx=004841 GeodesicLength=1.118002406348312 rxn_smarts="[C:1]([C:2]1([H:10])[C:3]([H:11])([H:12])[C:4]([H:13])([H:14])[C:5]([H:15])([H:16])[C:6]1([H:17])[H:18])([H:7])([H:8])[H:9]>>[C:1]([C:2]1=[C:6]([H:18])[C:5]([H:15])([H:16])[C:4]([H:13])([H:14])[C:3]1([H:11])[H:12])([H:7])([H:8])[H:9].[H:10][H:17]"
C        1.87514742      -0.32014252       0.96764239
C        0.67654290      -0.03631370       0.08165791
C       -0.20521867       1.06916517       0.61103997
C       -1.61374481       0.81364746       0.07815504
C       -1.54576429      -0.50232564      -0.70789314
C       -0.09830524      -0.98738095      -0.65619672
H        1.56136818      -0.68525862       1.94894051
H        2.49010611       0.57231530       1.11456884
H        2.57356841      -1.05646169       0.56827589
H        1.46387342       0.14489779      -1.28181028
H        0.17299228       2.04883602       0.30230740
H       -0.22858982       1.07926450       1.70631886
H       -2.31526792       0.70415987       0.90795874
H       -1.97541785       1.64203336      -0.53269746
H       -2.26672437      -1.24376174      -0.35724956
H       -1.81480472      -0.30116571      -1.75164288
H        1.38953471      -1.14804798      -1.60546176
H       -0.13929575      -1.79346090      -1.39391374
18
Frame=15 idx=004841 GeodesicLength=1.1947067077940672 rxn_smarts="[C:1]([C:2]1([H:10])[C:3]([H:11])([H:12])[C:4]([H:13])([H:14])[C:5]([H:15])([H:16])[C:6]1([H:17])[H:18])([H:7])([H:8])[H:9]>>[C:1]([C:2]1=[C:6]([H:18])[C:5]([H:15])([H:16])[C:4]([H:13])([H:14])[C:3]1([H:11])[H:12])([H:7])([H:8])[H:9].[H:10][H:17]"
C        1.89487863      -0.30563280       0.95739738
C        0.67414847      -0.04426194       0.09464728
C       -0.21483704       1.04889501       0.63786674
C       -1.60969008       0.82665876       0.05742332
C       -1.54194832      -0.49856047      -0.71233793
C       -0.10397582      -1.00954117      -0.62086516
H        1.61150354      -0.68427793       1.94250302
H        2.49184547       0.60028084       1.09679613
H        2.60557987      -1.02162799       0.54282097
H        1.41879648       0.17122152      -1.29409120
H        0.17946307       2.03698314       0.37954134
H       -0.26550590       1.01100770       1.73191410
H       -2.34396728       0.74225837       0.86136841
H       -1.92686664       1.65800682      -0.57387082
H       -2.28626117      -1.22445475      -0.37852872
H       -1.77656862      -0.30058507      -1.76514661
H        1.35286338      -1.15980755      -1.63341638
H       -0.15945803      -1.84656249      -1.32402186
18
Frame=16 idx=004841 GeodesicLength=1.2712466069408004 rxn_smarts="[C:1]([C:2]1([H:10])[C:3]([H:11])([H:12])[C:4]([H:13])([H:14])[C:5]([H:15])([H:16])[C:6]1([H:17])[H:18])([H:7])([H:8])[H:9]>>[C:1]([C:2]1=[C:6]([H:18])[C:5]([H:15])([H:16])[C:4]([H:13])([H:14])[C:3]1([H:11])[H:12])([H:7])([H:8])[H:9].[H:10][H:17]"
C        1.91271474      -0.29101250       0.94758503
C        0.67241488      -0.05128966       0.10636948
C       -0.22425524       1.02922217       0.66307730
C       -1.60410475       0.83895168       0.03788577
C       -1.53728107      -0.49510889      -0.71616680
C       -0.10906000      -1.02950614      -0.58774232
H        1.65823292      -0.68231455       1.93531929
H        2.49173193       0.62751725       1.08086352
H        2.63480904      -0.98693009       0.51856824
H        1.37478388       0.19706843      -1.30516020
H        0.18365206       2.02371024       0.45452693
H       -0.30134172       0.94433902       1.75323897
H       -2.36797406       0.77917434       0.81597905
H       -1.87758449       1.67207501      -0.61132456
H       -2.30258933      -1.20631707      -0.39882281
H       -1.73945353      -0.30076635      -1.77653664
H        1.31545605      -1.17528617      -1.65987394
H       -0.18015130      -1.89352670      -1.25778631
