13
Frame=0 idx=004574 GeodesicLength=0.0 rxn_smarts="[C:1]([C@@:2]1([H:10])[C:3]([H:11])([H:12])[N:4]1[C:5](=[O:6])[H:13])([H:7])([H:8])[H:9]>>[C:1]([C:2][C:3]([N:4]([C:5](=[O:6])[H:13])[H:10])([H:11])[H:12])([H:7])([H:8])[H:9]"
C       -1.47418874      -0.03132324       0.49799850
C       -0.55580025      -0.94666794      -0.24365914
C        0.27582894      -0.31171049      -1.29933631
N        1.17712303      -0.45460374      -0.15814246
C        1.43819390       0.64605842       0.65280133
O        1.30908501       1.79443810       0.32707834
H       -1.61031444      -0.32817761       1.53795800
H       -2.44334696      -0.16714460       0.00388658
H       -1.22888125       1.03516918       0.43999013
H        0.63273033      -1.40541364       0.29439329
H        0.58379265      -0.90469571      -2.15529179
H        0.07634776       0.72922498      -1.53916208
H        1.81943008       0.34484626       1.64148559
13
Frame=1 idx=004574 GeodesicLength=0.06433885396406751 rxn_smarts="[C:1]([C@@:2]1([H:10])[C:3]([H:11])([H:12])[N:4]1[C:5](=[O:6])[H:13])([H:7])([H:8])[H:9]>>[C:1]([C:2][C:3]([N:4]([C:5](=[O:6])[H:13])[H:10])([H:11])[H:12])([H:7])([H:8])[H:9]"
C       -1.48696868      -0.03663650       0.49573929
C       -0.55817626      -0.94476045      -0.24049111
C        0.27121837      -0.30592686      -1.29641631
N        1.16468846      -0.44416979      -0.15123134
C        1.45971058       0.64981547       0.65060022
O        1.34383086       1.79850573       0.32041072
H       -1.63045160      -0.33548654       1.53415404
H       -2.45133384      -0.17728576      -0.00684186
H       -1.24389582       1.03045496       0.44111445
H        0.63256353      -1.41127291       0.30509480
H        0.59108576      -0.89942184      -2.14760139
H        0.06425020       0.73234447      -1.54142257
H        1.84347844       0.34384002       1.63689106
13
Frame=2 idx=004574 GeodesicLength=0.12873652301222732 rxn_smarts="[C:1]([C@@:2]1([H:10])[C:3]([H:11])([H:12])[N:4]1[C:5](=[O:6])[H:13])([H:7])([H:8])[H:9]>>[C:1]([C:2][C:3]([N:4]([C:5](=[O:6])[H:13])[H:10])([H:11])[H:12])([H:7])([H:8])[H:9]"
C       -1.50022183      -0.04221073       0.49341932
C       -0.56065949      -0.94276185      -0.23716183
C        0.26657407      -0.29984860      -1.29320645
N        1.15190008      -0.43316971      -0.14376488
C        1.48184101       0.65342990       0.64804858
O        1.38020095       1.80217772       0.31278318
H       -1.65118985      -0.34320499       1.53018496
H       -2.45954655      -0.18789594      -0.01780913
H       -1.25966918       1.02555857       0.44231069
H        0.63241805      -1.41679578       0.31605419
H        0.59864654      -0.89365385      -2.13948134
H        0.05193724       0.73563696      -1.54345231
H        1.86776896       0.34273830       1.63207501
13
Frame=3 idx=004574 GeodesicLength=0.1930382142043033 rxn_smarts="[C:1]([C@@:2]1([H:10])[C:3]([H:11])([H:12])[N:4]1[C:5](=[O:6])[H:13])([H:7])([H:8])[H:9]>>[C:1]([C:2][C:3]([N:4]([C:5](=[O:6])[H:13])[H:10])([H:11])[H:12])([H:7])([H:8])[H:9]"
C       -1.51388270      -0.04806975       0.49097752
C       -0.56323486      -0.94061078      -0.23366454
C        0.26183561      -0.29342872      -1.28961867
N        1.13870793      -0.42152947      -0.13567591
C        1.50463661       0.65683798       0.64508440
O        1.41827946       1.80533816       0.30410279
H       -1.67235947      -0.35133186       1.52595963
H       -2.46790607      -0.19901080      -0.02906406
H       -1.27621612       1.02040024       0.44349187
H        0.63232627      -1.42189164       0.32727404
H        0.60636264      -0.88730738      -2.13077992
H        0.03933859       0.73909206      -1.54516248
H        1.89211214       0.34151196       1.62707535
13
Frame=4 idx=004574 GeodesicLength=0.2573499674475235 rxn_smarts="[C:1]([C@@:2]1([H:10])[C:3]([H:11])([H:12])[N:4]1[C:5](=[O:6])[H:13])([H:7])([H:8])[H:9]>>[C:1]([C:2][C:3]([N:4]([C:5](=[O:6])[H:13])[H:10])([H:11])[H:12])([H:7])([H:8])[H:9]"
C       -1.52802358      -0.05422281       0.48847118
C       -0.56591610      -0.93833619      -0.22999472
C        0.25705808      -0.28665127      -1.28570987
N        1.12510683      -0.40917686      -0.12697225
C        1.52814655       0.66001896       0.64168779
O        1.45817770       1.80791630       0.29431061
H       -1.69405805      -0.35986811       1.52158293
H       -2.47647638      -0.21069795      -0.04051839
H       -1.29362990       1.01503157       0.44468094
H        0.63229632      -1.42657914       0.33872777
H        0.61434892      -0.88039590      -2.12159505
H        0.02651907       0.74276889      -1.54661888
H        1.91645053       0.34019250       1.62194796
13
Frame=5 idx=004574 GeodesicLength=0.3216527268456963 rxn_smarts="[C:1]([C@@:2]1([H:10])[C:3]([H:11])([H:12])[N:4]1[C:5](=[O:6])[H:13])([H:7])([H:8])[H:9]>>[C:1]([C:2][C:3]([N:4]([C:5](=[O:6])[H:13])[H:10])([H:11])[H:12])([H:7])([H:8])[H:9]"
C       -1.54266761      -0.06069496       0.48587151
C       -0.56870454      -0.93591190      -0.22613133
C        0.25221880      -0.27947562      -1.28142018
N        1.11105231      -0.39601427      -0.11758364
C        1.55242413       0.66292017       0.63781250
O        1.50001425       1.80979222       0.28330258
H       -1.71630411      -0.36885518       1.51700364
H       -2.48525806      -0.22299703      -0.05222833
H       -1.31197978       1.00942178       0.44586037
H        0.63236370      -1.43079366       0.35042740
H        0.62260050      -0.87285837      -2.11182717
H        0.01343580       0.74668540      -1.54776912
H        1.94080460       0.33878141       1.61668178
13
Frame=6 idx=004574 GeodesicLength=0.38603979220436735 rxn_smarts="[C:1]([C@@:2]1([H:10])[C:3]([H:11])([H:12])[N:4]1[C:5](=[O:6])[H:13])([H:7])([H:8])[H:9]>>[C:1]([C:2][C:3]([N:4]([C:5](=[O:6])[H:13])[H:10])([H:11])[H:12])([H:7])([H:8])[H:9]"
C       -1.55786994      -0.06751909       0.48319996
C       -0.57161841      -0.93335315      -0.22205004
C        0.24733729      -0.27186805      -1.27674053
N        1.09649112      -0.38194049      -0.10745130
C        1.57752607       0.66550566       0.63339885
O        1.54396049       1.81090917       0.27094172
H       -1.73919953      -0.37836489       1.51226982
H       -2.49426975      -0.23596883      -0.06422186
H       -1.33134023       1.00358896       0.44706787
H        0.63252540      -1.43452424       0.36238490
H        0.63118220      -0.86465361      -2.10147903
H        0.00011847       0.75089327      -1.54861103
H        1.96515684       0.33729531       1.61129067
13
Frame=7 idx=004574 GeodesicLength=0.45007588015122046 rxn_smarts="[C:1]([C@@:2]1([H:10])[C:3]([H:11])([H:12])[N:4]1[C:5](=[O:6])[H:13])([H:7])([H:8])[H:9]>>[C:1]([C:2][C:3]([N:4]([C:5](=[O:6])[H:13])[H:10])([H:11])[H:12])([H:7])([H:8])[H:9]"
C       -1.57355064      -0.07467075       0.48034638
C       -0.57457868      -0.93050398      -0.21772360
C        0.24232987      -0.26376719      -1.27156645
N        1.08133987      -0.36677122      -0.09650850
C        1.60343752       0.66757339       0.62845856
O        1.58980456       1.81077122       0.25729173
H       -1.76252497      -0.38828522       1.50716244
H       -2.50342216      -0.24961594      -0.07650810
H       -1.35175648       0.99740533       0.44811881
H        0.63295046      -1.43747742       0.37458912
H        0.64000059      -0.85565981      -2.09026968
H       -0.01362393       0.75529135      -1.54913199
H        1.98959399       0.33571023       1.60574128
13
Frame=8 idx=004574 GeodesicLength=0.5140821721508047 rxn_smarts="[C:1]([C@@:2]1([H:10])[C:3]([H:11])([H:12])[N:4]1[C:5](=[O:6])[H:13])([H:7])([H:8])[H:9]>>[C:1]([C:2][C:3]([N:4]([C:5](=[O:6])[H:13])[H:10])([H:11])[H:12])([H:7])([H:8])[H:9]"
C       -1.58981584      -0.08222193       0.47741194
C       -0.57764783      -0.92744925      -0.21314568
C        0.23730396      -0.25509572      -1.26590613
N        1.06562676      -0.35048852      -0.08469106
C        1.63029648       0.66919868       0.62279403
O        1.63799259       1.80941085       0.24202176
H       -1.78639934      -0.39869923       1.50193677
H       -2.51280134      -0.26415240      -0.08901637
H       -1.37342513       0.99097539       0.44904740
H        0.63354809      -1.43986371       0.38698998
H        0.64917212      -0.84585136      -2.07837367
H       -0.02753567       0.76013437      -1.54920265
H        2.01368515       0.33410283       1.60013367
13
Frame=9 idx=004574 GeodesicLength=0.5780493521252876 rxn_smarts="[C:1]([C@@:2]1([H:10])[C:3]([H:11])([H:12])[N:4]1[C:5](=[O:6])[H:13])([H:7])([H:8])[H:9]>>[C:1]([C:2][C:3]([N:4]([C:5](=[O:6])[H:13])[H:10])([H:11])[H:12])([H:7])([H:8])[H:9]"
C       -1.60672353      -0.09019537       0.47433767
C       -0.58080984      -0.92412993      -0.20824964
C        0.23220207      -0.24582352      -1.25970130
N        1.04920050      -0.33280172      -0.07189580
C        1.65812185       0.67018184       0.61643967
O        1.68854448       1.80660517       0.22510789
H       -1.81098663      -0.40970591       1.49645119
H       -2.52237869      -0.27955831      -0.10190743
H       -1.39638789       0.98422950       0.44988455
H        0.63442218      -1.44142595       0.39965948
H        0.65873806      -0.83515395      -2.06559371
H       -0.04180516       0.76533154      -1.54891488
H        2.03786259       0.33244660       1.59438231
13
Frame=10 idx=004574 GeodesicLength=0.6420277424078747 rxn_smarts="[C:1]([C@@:2]1([H:10])[C:3]([H:11])([H:12])[N:4]1[C:5](=[O:6])[H:13])([H:7])([H:8])[H:9]>>[C:1]([C:2][C:3]([N:4]([C:5](=[O:6])[H:13])[H:10])([H:11])[H:12])([H:7])([H:8])[H:9]"
C       -1.62443910      -0.09866903       0.47103107
C       -0.58407975      -0.92046978      -0.20294277
C        0.22699321      -0.23583874      -1.25278828
N        1.03187777      -0.31341610      -0.05786475
C        1.68693942       0.67042164       0.60937888
O        1.74180095       1.80209460       0.20635997
H       -1.83653036      -0.42141827       1.49054438
H       -2.53220006      -0.29599735      -0.11536280
H       -1.42093072       0.97706015       0.45055018
H        0.63563846      -1.44189086       0.41270954
H        0.66876287      -0.82343817      -2.05167506
H       -0.05653323       0.77092974      -1.54816333
H        2.06270054       0.33063217       1.58822297
13
Frame=11 idx=004574 GeodesicLength=0.7059745372548454 rxn_smarts="[C:1]([C@@:2]1([H:10])[C:3]([H:11])([H:12])[N:4]1[C:5](=[O:6])[H:13])([H:7])([H:8])[H:9]>>[C:1]([C:2][C:3]([N:4]([C:5](=[O:6])[H:13])[H:10])([H:11])[H:12])([H:7])([H:8])[H:9]"
C       -1.64301249      -0.10766914       0.46754382
C       -0.58743779      -0.91644837      -0.19720745
C        0.22175098      -0.22504936      -1.24518213
N        1.01362502      -0.29218382      -0.04256504
C        1.71673063       0.66989756       0.60156435
O        1.79789131       1.79545277       0.18557377
H       -1.86303145      -0.43381477       1.48433069
H       -2.54228904      -0.31364272      -0.12927142
H       -1.44724689       0.96951595       0.45099998
H        0.63725033      -1.44125703       0.42606513
H        0.67935798      -0.81060696      -2.03663784
H       -0.07160452       0.77706626      -1.54696363
H        2.08801595       0.32873963       1.58174977
13
Frame=12 idx=004574 GeodesicLength=0.7699364081900202 rxn_smarts="[C:1]([C@@:2]1([H:10])[C:3]([H:11])([H:12])[N:4]1[C:5](=[O:6])[H:13])([H:7])([H:8])[H:9]>>[C:1]([C:2][C:3]([N:4]([C:5](=[O:6])[H:13])[H:10])([H:11])[H:12])([H:7])([H:8])[H:9]"
C       -1.66250393      -0.11726516       0.46364983
C       -0.59081438      -0.91182494      -0.19080649
C        0.21634348      -0.21327196      -1.23650957
N        0.99422226      -0.26842291      -0.02559546
C        1.74745112       0.66823067       0.59287056
O        1.85683682       1.78623789       0.16259226
H       -1.89062190      -0.44697327       1.47748905
H       -2.55246825      -0.33271017      -0.14406551
H       -1.47561176       0.96141081       0.45095726
H        0.63946065      -1.43889756       0.44001628
H        0.69046491      -0.79645125      -2.01989615
H       -0.08733459       0.78369352      -1.54512286
H        2.11457557       0.32624434       1.57442079
13
Frame=13 idx=004574 GeodesicLength=0.8341885753088734 rxn_smarts="[C:1]([C@@:2]1([H:10])[C:3]([H:11])([H:12])[N:4]1[C:5](=[O:6])[H:13])([H:7])([H:8])[H:9]>>[C:1]([C:2][C:3]([N:4]([C:5](=[O:6])[H:13])[H:10])([H:11])[H:12])([H:7])([H:8])[H:9]"
C       -1.68329667      -0.12753320       0.45943214
C       -0.59427886      -0.90665155      -0.18368687
C        0.21095614      -0.20043030      -1.22682836
N        0.97358656      -0.24185156      -0.00684788
C        1.77915464       0.66552790       0.58336492
O        1.91912457       1.77426737       0.13732854
H       -1.91976661      -0.46090678       1.47020884
H       -2.56308098      -0.35360492      -0.15963009
H       -1.50657800       0.95288177       0.45038633
H        0.64233651      -1.43472969       0.45451273
H        0.70241383      -0.78097461      -2.00155935
H       -0.10351874       0.79097744      -1.54276234
H        2.14294760       0.32302815       1.56608139
13
Frame=14 idx=004574 GeodesicLength=0.8981151918689261 rxn_smarts="[C:1]([C@@:2]1([H:10])[C:3]([H:11])([H:12])[N:4]1[C:5](=[O:6])[H:13])([H:7])([H:8])[H:9]>>[C:1]([C:2][C:3]([N:4]([C:5](=[O:6])[H:13])[H:10])([H:11])[H:12])([H:7])([H:8])[H:9]"
C       -1.70526309      -0.13835065       0.45462201
C       -0.59764360      -0.90056959      -0.17550925
C        0.20559821      -0.18640274      -1.21585002
N        0.95140315      -0.21199871       0.01397554
C        1.81136053       0.66160159       0.57309821
O        1.98318654       1.75928370       0.11057076
H       -1.95016010      -0.47511924       1.46228951
H       -2.57371797      -0.37669800      -0.17614134
H       -1.54048330       0.94393957       0.44838081
H        0.64599723      -1.42807777       0.46996401
H        0.71513397      -0.76407388      -1.98097351
H       -0.12019273       0.79875897      -1.54001213
H        2.17478116       0.31770676       1.55558541
13
Frame=15 idx=004574 GeodesicLength=0.961989018302789 rxn_smarts="[C:1]([C@@:2]1([H:10])[C:3]([H:11])([H:12])[N:4]1[C:5](=[O:6])[H:13])([H:7])([H:8])[H:9]>>[C:1]([C:2][C:3]([N:4]([C:5](=[O:6])[H:13])[H:10])([H:11])[H:12])([H:7])([H:8])[H:9]"
C       -1.72814493      -0.15001218       0.44926359
C       -0.60061192      -0.89325072      -0.16610769
C        0.20013555      -0.17066130      -1.20331514
N        0.92768076      -0.17797856       0.03706591
C        1.84342425       0.65609213       0.56205627
O        2.05105760       1.73937532       0.08026913
H       -1.98149518      -0.49017175       1.45368028
H       -2.58384733      -0.40229095      -0.19364837
H       -1.57736971       0.93414723       0.44515544
H        0.65093190      -1.41826735       0.48631491
H        0.72842252      -0.74502416      -1.95797440
H       -0.13776929       0.80737786      -1.53659313
H        2.20758578       0.31066443       1.54383319
13
Frame=16 idx=004574 GeodesicLength=1.0259000286370192 rxn_smarts="[C:1]([C@@:2]1([H:10])[C:3]([H:11])([H:12])[N:4]1[C:5](=[O:6])[H:13])([H:7])([H:8])[H:9]>>[C:1]([C:2][C:3]([N:4]([C:5](=[O:6])[H:13])[H:10])([H:11])[H:12])([H:7])([H:8])[H:9]"
C       -1.75213442      -0.16239419       0.44342266
C       -0.60312433      -0.88456380      -0.15531984
C        0.19482487      -0.15322672      -1.18934711
N        0.90269150      -0.13959682       0.06216599
C        1.87506715       0.64918851       0.55050382
O        2.12194834       1.71461470       0.04736145
H       -2.01381308      -0.50548909       1.44471372
H       -2.59365936      -0.43099174      -0.21181094
H       -1.61776696       0.92381929       0.44013540
H        0.65737364      -1.40507851       0.50344473
H        0.74238765      -0.72410147      -1.93278168
H       -0.15596983       0.81678968      -1.53281064
H        2.24217483       0.30103016       1.53032243
