14
Frame=0 idx=009000 GeodesicLength=0.0 rxn_smarts="[C:1]([N:2]([C:3](=[O:4])[N:5](/[C:6](=[N:7]/[H:14])[H:13])[H:12])[H:11])([H:8])([H:9])[H:10]>>[C:1]([N:2]([C@@:3]12[O:4][N:7]([H:14])[C@:6]1([H:13])[N:5]2[H:12])[H:11])([H:8])([H:9])[H:10]"
C        2.11681391       0.22773424      -0.23689346
N        1.02151652      -0.03692810       0.66805953
C       -0.26850223       0.14277888       0.35393720
O       -0.55625135       1.17811699      -0.45966652
N       -1.24233450      -0.44987326       1.18262864
C       -1.68483202      -0.73697680      -0.15428507
N       -2.11313036       0.43870637      -0.72195928
H        1.70340604       0.54322243      -1.19261554
H        2.72347438      -0.66916339      -0.38298173
H        2.75531429       1.03090809       0.13474774
H        1.19500395      -0.55996680       1.50863413
H       -1.84225157       0.24188737       1.63374879
H       -1.70077885      -1.72049996      -0.59306565
H       -2.10744819       0.37005391      -1.74028874
14
Frame=1 idx=009000 GeodesicLength=0.06590365874431271 rxn_smarts="[C:1]([N:2]([C:3](=[O:4])[N:5](/[C:6](=[N:7]/[H:14])[H:13])[H:12])[H:11])([H:8])([H:9])[H:10]>>[C:1]([N:2]([C@@:3]12[O:4][N:7]([H:14])[C@:6]1([H:13])[N:5]2[H:12])[H:11])([H:8])([H:9])[H:10]"
C        2.12452890       0.22298089      -0.23130870
N        1.02571413      -0.01382539       0.67687969
C       -0.26421158       0.14511713       0.34399375
O       -0.55721256       1.17323366      -0.47342685
N       -1.23496638      -0.45473287       1.17062729
C       -1.68987019      -0.73723999      -0.16073798
N       -2.14308559       0.43350511      -0.71691097
H        1.72259007       0.56062499      -1.18425072
H        2.70339333      -0.69072179      -0.38726109
H        2.78824020       1.00191537       0.14751454
H        1.19595144      -0.52140631       1.52751146
H       -1.82997474       0.23017466       1.63696813
H       -1.67982746      -1.71424320      -0.61488457
H       -2.16126958       0.36461775      -1.73471398
14
Frame=2 idx=009000 GeodesicLength=0.13168787780192187 rxn_smarts="[C:1]([N:2]([C:3](=[O:4])[N:5](/[C:6](=[N:7]/[H:14])[H:13])[H:12])[H:11])([H:8])([H:9])[H:10]>>[C:1]([N:2]([C@@:3]12[O:4][N:7]([H:14])[C@:6]1([H:13])[N:5]2[H:12])[H:11])([H:8])([H:9])[H:10]"
C        2.13251559       0.21860774      -0.22529083
N        1.02986364       0.00915489       0.68483162
C       -0.25950041       0.14718330       0.33340932
O       -0.55764859       1.16760496      -0.48839509
N       -1.22722703      -0.45910537       1.15840306
C       -1.69507329      -0.73750286      -0.16700229
N       -2.17319829       0.42777458      -0.71143824
H        1.74334030       0.57898708      -1.17511720
H        2.68306450      -0.71089750      -0.39147553
H        2.82045914       0.97196810       0.16176948
H        1.19647194      -0.48353382       1.54486949
H       -1.81680282       0.21908407       1.63979910
H       -1.66052224      -1.70719158      -0.63628091
H       -2.21574244       0.35786640      -1.72808197
14
Frame=3 idx=009000 GeodesicLength=0.19734241069319164 rxn_smarts="[C:1]([N:2]([C:3](=[O:4])[N:5](/[C:6](=[N:7]/[H:14])[H:13])[H:12])[H:11])([H:8])([H:9])[H:10]>>[C:1]([N:2]([C@@:3]12[O:4][N:7]([H:14])[C@:6]1([H:13])[N:5]2[H:12])[H:11])([H:8])([H:9])[H:10]"
C        2.14076675       0.21461985      -0.21888252
N        1.03399201       0.03178419       0.69193416
C       -0.25435927       0.14894282       0.32226454
O       -0.55745276       1.16127756      -0.50444328
N       -1.21921653      -0.46299298       1.14598122
C       -1.70049614      -0.73768885      -0.17309076
N       -2.20338019       0.42165627      -0.70555874
H        1.76550241       0.59776656      -1.16533273
H        2.66295820      -0.72945030      -0.39546793
H        2.85154318       0.94153310       0.17726720
H        1.19662012      -0.44666145       1.56074201
H       -1.80281334       0.20865792       1.64223744
H       -1.64301202      -1.69940052      -0.65726672
H       -2.27065244       0.34995583      -1.72038390
14
Frame=4 idx=009000 GeodesicLength=0.26265509146156013 rxn_smarts="[C:1]([N:2]([C:3](=[O:4])[N:5](/[C:6](=[N:7]/[H:14])[H:13])[H:12])[H:11])([H:8])([H:9])[H:10]>>[C:1]([N:2]([C@@:3]12[O:4][N:7]([H:14])[C@:6]1([H:13])[N:5]2[H:12])[H:11])([H:8])([H:9])[H:10]"
C        2.14912133       0.21093936      -0.21215356
N        1.03799132       0.05420805       0.69818778
C       -0.24885204       0.15050976       0.31070740
O       -0.55669930       1.15430483      -0.52135962
N       -1.21097424      -0.46631738       1.13341959
C       -1.70594965      -0.73777298      -0.17896088
N       -2.23350623       0.41504920      -0.69931365
H        1.78881908       0.61729013      -1.15481759
H        2.64270271      -0.74665326      -0.39959021
H        2.88162567       0.91025637       0.19401275
H        1.19631977      -0.41065105       1.57509005
H       -1.78819316       0.19891559       1.64428289
H       -1.62677088      -1.69082048      -0.67783336
H       -2.32563439       0.34074186      -1.71167160
14
Frame=5 idx=009000 GeodesicLength=0.3276221244515417 rxn_smarts="[C:1]([N:2]([C:3](=[O:4])[N:5](/[C:6](=[N:7]/[H:14])[H:13])[H:12])[H:11])([H:8])([H:9])[H:10]>>[C:1]([N:2]([C@@:3]12[O:4][N:7]([H:14])[C@:6]1([H:13])[N:5]2[H:12])[H:11])([H:8])([H:9])[H:10]"
C        2.15772781       0.20762174      -0.20510729
N        1.04199115       0.07584872       0.70362503
C       -0.24291281       0.15165333       0.29865538
O       -0.55511342       1.14664066      -0.53909740
N       -1.20264785      -0.46922555       1.12057997
C       -1.71166511      -0.73757122      -0.18473343
N       -2.26352212       0.40833795      -0.69255091
H        1.81323954       0.63587305      -1.14392285
H        2.62374886      -0.76180334      -0.40298046
H        2.90964879       0.87955325       0.21139445
H        1.19568046      -0.37604144       1.58805448
H       -1.77291451       0.18975576       1.64586866
H       -1.61255108      -1.68144538      -0.69809374
H       -2.38070970       0.33080246      -1.70169188
14
Frame=6 idx=009000 GeodesicLength=0.39241166038907205 rxn_smarts="[C:1]([N:2]([C:3](=[O:4])[N:5](/[C:6](=[N:7]/[H:14])[H:13])[H:12])[H:11])([H:8])([H:9])[H:10]>>[C:1]([N:2]([C@@:3]12[O:4][N:7]([H:14])[C@:6]1([H:13])[N:5]2[H:12])[H:11])([H:8])([H:9])[H:10]"
C        2.16649275       0.20460085      -0.19778676
N        1.04598223       0.09688940       0.70835847
C       -0.23658372       0.15251000       0.28627433
O       -0.55279714       1.13841509      -0.55749889
N       -1.19424237      -0.47168069       1.10753602
C       -1.71754245      -0.73716115      -0.19041462
N       -2.29344857       0.40143220      -0.68543079
H        1.83853212       0.65408018      -1.13249636
H        2.60555939      -0.77531887      -0.40607104
H        2.93610118       0.84902865       0.22943740
H        1.19476907      -0.34257237       1.59981759
H       -1.75709402       0.18119141       1.64700048
H       -1.59997687      -1.67143887      -0.71807323
H       -2.43575161       0.32002418      -1.69065260
14
Frame=7 idx=009000 GeodesicLength=0.45695119492386876 rxn_smarts="[C:1]([N:2]([C:3](=[O:4])[N:5](/[C:6](=[N:7]/[H:14])[H:13])[H:12])[H:11])([H:8])([H:9])[H:10]>>[C:1]([N:2]([C@@:3]12[O:4][N:7]([H:14])[C@:6]1([H:13])[N:5]2[H:12])[H:11])([H:8])([H:9])[H:10]"
C        2.17542300       0.20184039      -0.19022928
N        1.04997087       0.11725580       0.71244027
C       -0.22987816       0.15305766       0.27358195
O       -0.54976734       1.12972848      -0.57651242
N       -1.18579902      -0.47374292       1.09432981
C       -1.72358186      -0.73648953      -0.19605903
N       -2.32329439       0.39446233      -0.67793532
H        1.86452575       0.67154694      -1.12081052
H        2.58853986      -0.78731677      -0.40870145
H        2.96080409       0.81907392       0.24806872
H        1.19361624      -0.31031545       1.61052076
H       -1.74079750       0.17318275       1.64779043
H       -1.58901325      -1.66085186      -0.73789877
H       -2.49074828       0.30856826      -1.67858516
14
Frame=8 idx=009000 GeodesicLength=0.5211752124278708 rxn_smarts="[C:1]([N:2]([C:3](=[O:4])[N:5](/[C:6](=[N:7]/[H:14])[H:13])[H:12])[H:11])([H:8])([H:9])[H:10]>>[C:1]([N:2]([C@@:3]12[O:4][N:7]([H:14])[C@:6]1([H:13])[N:5]2[H:12])[H:11])([H:8])([H:9])[H:10]"
C        2.18446214       0.19931125      -0.18244687
N        1.05388513       0.13705180       0.71575943
C       -0.22283720       0.15335580       0.26060921
O       -0.54599693       1.12052462      -0.59593661
N       -1.17741425      -0.47535593       1.08084578
C       -1.72971911      -0.73544983      -0.20161991
N       -2.35297842       0.38727273      -0.66997216
H        1.89114133       0.68836555      -1.10881081
H        2.57251037      -0.79787706      -0.41094855
H        2.98391510       0.78950595       0.26732698
H        1.19211549      -0.27917499       1.61991734
H       -1.72419870       0.16564263       1.64801125
H       -1.57941282      -1.64942334      -0.75746223
H       -2.54547212       0.29625082      -1.66527286
14
Frame=9 idx=009000 GeodesicLength=0.5851836567772535 rxn_smarts="[C:1]([N:2]([C:3](=[O:4])[N:5](/[C:6](=[N:7]/[H:14])[H:13])[H:12])[H:11])([H:8])([H:9])[H:10]>>[C:1]([N:2]([C@@:3]12[O:4][N:7]([H:14])[C@:6]1([H:13])[N:5]2[H:12])[H:11])([H:8])([H:9])[H:10]"
C        2.19368338       0.19699054      -0.17444514
N        1.05781554       0.15614209       0.71854006
C       -0.21543306       0.15331765       0.24732673
O       -0.54149056       1.11089861      -0.61585833
N       -1.16906275      -0.47665367       1.06709783
C       -1.73601457      -0.73408187      -0.20725719
N       -2.38260969       0.38010469      -0.66157886
H        1.91827344       0.70408797      -1.09660905
H        2.55792854      -0.80707112      -0.41258875
H        3.00530666       0.76086619       0.28691427
H        1.19039540      -0.24909807       1.62847639
H       -1.70722135       0.15850049       1.64780805
H       -1.57140045      -1.63744802      -0.77701590
H       -2.60017054       0.28344452      -1.65081010
14
Frame=10 idx=009000 GeodesicLength=0.6490222444967471 rxn_smarts="[C:1]([N:2]([C:3](=[O:4])[N:5](/[C:6](=[N:7]/[H:14])[H:13])[H:12])[H:11])([H:8])([H:9])[H:10]>>[C:1]([N:2]([C@@:3]12[O:4][N:7]([H:14])[C@:6]1([H:13])[N:5]2[H:12])[H:11])([H:8])([H:9])[H:10]"
C        2.20306409       0.19484327      -0.16622051
N        1.06172056       0.17471100       0.72073373
C       -0.20767290       0.15299328       0.23370903
O       -0.53625851       1.10079814      -0.63632394
N       -1.16073592      -0.47761333       1.05304133
C       -1.74240791      -0.73237106      -0.21297482
N       -2.41219811       0.37285541      -0.65271025
H        1.94597394       0.71915352      -1.08407402
H        2.54443189      -0.81511894      -0.41391917
H        3.02528226       0.73269037       0.30709305
H        1.18839685      -0.21974585       1.63619355
H       -1.68990230       0.15172388       1.64711569
H       -1.56475568      -1.62486354      -0.79658524
H       -2.65493826       0.26994386      -1.63507843
14
Frame=11 idx=009000 GeodesicLength=0.7126683886563294 rxn_smarts="[C:1]([N:2]([C:3](=[O:4])[N:5](/[C:6](=[N:7]/[H:14])[H:13])[H:12])[H:11])([H:8])([H:9])[H:10]>>[C:1]([N:2]([C@@:3]12[O:4][N:7]([H:14])[C@:6]1([H:13])[N:5]2[H:12])[H:11])([H:8])([H:9])[H:10]"
C        2.21258575       0.19284289      -0.15779833
N        1.06561153       0.19272824       0.72239420
C       -0.19958048       0.15242190       0.21982959
O       -0.53031806       1.09033945      -0.65716567
N       -1.15249684      -0.47823165       1.03868049
C       -1.74887764      -0.73026152      -0.21880448
N       -2.44174783       0.36553608      -0.64338625
H        1.97408971       0.73334810      -1.07133075
H        2.53214667      -0.82210859      -0.41483076
H        3.04381960       0.70522209       0.32769516
H        1.18614390      -0.19124418       1.64308769
H       -1.67235934       0.14527264       1.64592435
H       -1.55938700      -1.61164258      -0.81619708
H       -2.70962998       0.25577713      -1.61809815
14
Frame=12 idx=009000 GeodesicLength=0.7760831639911391 rxn_smarts="[C:1]([N:2]([C:3](=[O:4])[N:5](/[C:6](=[N:7]/[H:14])[H:13])[H:12])[H:11])([H:8])([H:9])[H:10]>>[C:1]([N:2]([C@@:3]12[O:4][N:7]([H:14])[C@:6]1([H:13])[N:5]2[H:12])[H:11])([H:8])([H:9])[H:10]"
C        2.22218872       0.19097155      -0.14920649
N        1.06949774       0.21017033       0.72358219
C       -0.19118164       0.15165158       0.20576313
O       -0.52368688       1.07963966      -0.67823325
N       -1.14438765      -0.47849376       1.02403195
C       -1.75538452      -0.72772072      -0.22476267
N       -2.47126667       0.35810801      -0.63364700
H        2.00247249       0.74657527      -1.05843406
H        2.52108342      -0.82811625      -0.41525979
H        3.06090010       0.67858872       0.34853075
H        1.18367990      -0.16371171       1.64918507
H       -1.65468123       0.13913887       1.64423334
H       -1.55516868      -1.59780760      -0.83582551
H       -2.76406511       0.24100605      -1.59995765
14
Frame=13 idx=009000 GeodesicLength=0.8393121741264173 rxn_smarts="[C:1]([N:2]([C:3](=[O:4])[N:5](/[C:6](=[N:7]/[H:14])[H:13])[H:12])[H:11])([H:8])([H:9])[H:10]>>[C:1]([N:2]([C@@:3]12[O:4][N:7]([H:14])[C@:6]1([H:13])[N:5]2[H:12])[H:11])([H:8])([H:9])[H:10]"
C        2.23192360       0.18919928      -0.14042274
N        1.07337668       0.22710110       0.72429804
C       -0.18246053       0.15066450       0.19144152
O       -0.51635354       1.06868202      -0.69959560
N       -1.13639781      -0.47842877       1.00903027
C       -1.76193487      -0.72471135      -0.23092646
N       -2.50080796       0.35059433      -0.62342016
H        2.03115560       0.75886518      -1.04538600
H        2.51126154      -0.83329343      -0.41521640
H        3.07666369       0.65277218       0.36972126
H        1.18097101      -0.13694094       1.65456140
H       -1.63685952       0.13324972       1.64201892
H       -1.55209450      -1.58331429      -0.85560265
H       -2.81844338       0.22556048      -1.58050138
14
Frame=14 idx=009000 GeodesicLength=0.9024240610703708 rxn_smarts="[C:1]([N:2]([C:3](=[O:4])[N:5](/[C:6](=[N:7]/[H:14])[H:13])[H:12])[H:11])([H:8])([H:9])[H:10]>>[C:1]([N:2]([C@@:3]12[O:4][N:7]([H:14])[C@:6]1([H:13])[N:5]2[H:12])[H:11])([H:8])([H:9])[H:10]"
C        2.24179578       0.18750736      -0.13143294
N        1.07724700       0.24360436       0.72455069
C       -0.17340917       0.14949007       0.17683694
O       -0.50830506       1.05745299      -0.72132756
N       -1.12851254      -0.47800925       0.99364641
C       -1.76850215      -0.72120755      -0.23733096
N       -2.53041735       0.34295122      -0.61269875
H        2.06021667       0.77048229      -1.03205426
H        2.50248924      -0.83774394      -0.41488559
H        3.09128455       0.62748472       0.39139518
H        1.17800424      -0.11075327       1.65927017
H       -1.61889461       0.12761576       1.63925551
H       -1.55007903      -1.56814805      -0.87557664
H       -2.87291758       0.20927328      -1.55964820
14
Frame=15 idx=009000 GeodesicLength=0.9653407717697025 rxn_smarts="[C:1]([N:2]([C:3](=[O:4])[N:5](/[C:6](=[N:7]/[H:14])[H:13])[H:12])[H:11])([H:8])([H:9])[H:10]>>[C:1]([N:2]([C@@:3]12[O:4][N:7]([H:14])[C@:6]1([H:13])[N:5]2[H:12])[H:11])([H:8])([H:9])[H:10]"
C        2.25177548       0.18586603      -0.12224702
N        1.08110801       0.25965551       0.72436761
C       -0.16404083       0.14812462       0.16196943
O       -0.49953870       1.04605234      -0.74328781
N       -1.12076769      -0.47728555       0.97783451
C       -1.77507327      -0.71715126      -0.24404333
N       -2.56010681       0.33516399      -0.60142600
H        2.08951968       0.78108919      -1.01860495
H        2.49492020      -0.84154337      -0.41396298
H        3.10466891       0.60306546       0.41331839
H        1.17477672      -0.08519527       1.66332863
H       -1.60084298       0.12211666       1.63592645
H       -1.54908229      -1.55225085      -0.89582259
H       -2.92731645       0.19229249      -1.53735036
14
Frame=16 idx=009000 GeodesicLength=1.0281494023696278 rxn_smarts="[C:1]([N:2]([C:3](=[O:4])[N:5](/[C:6](=[N:7]/[H:14])[H:13])[H:12])[H:11])([H:8])([H:9])[H:10]>>[C:1]([N:2]([C@@:3]12[O:4][N:7]([H:14])[C@:6]1([H:13])[N:5]2[H:12])[H:11])([H:8])([H:9])[H:10]"
C        2.26189659       0.18426020      -0.11283796
N        1.08496961       0.27531123       0.72374542
C       -0.15433923       0.14658492       0.14679042
O       -0.49004024       1.03446867      -0.76557595
N       -1.11314475      -0.47621457       0.96156075
C       -1.78164934      -0.71249085      -0.25111115
N       -2.58994702       0.32720685      -0.58959103
H        2.11914727       0.79092661      -1.00491559
H        2.48845221      -0.84480151      -0.41261386
H        3.11698516       0.57928691       0.43567847
H        1.17128538      -0.06014361       1.66676508
H       -1.58268847       0.11678984       1.63200766
H       -1.54907726      -1.53558506      -0.91640017
H       -2.98184990       0.17440036      -1.51350210
