14
Frame=0 idx=002824 GeodesicLength=0.0 rxn_smarts="[C:1]([C:2]1([C:5](=[O:6])[H:14])[C:3]([H:10])([H:11])[C:4]1([H:12])[H:13])([H:7])([H:8])[H:9]>>[C:1]([C@:2]12[C:3]([H:10])([H:11])[C:4]([H:12])([H:13])[C@@:5]1([H:14])[O:6]2)([H:7])([H:8])[H:9]"
C        1.76024458       0.39856548       0.25474412
C        0.43497081       0.10581398      -0.30069394
C       -0.25568186      -1.19807392      -0.31679142
C       -1.48896628      -0.38262246       0.11488757
C       -0.77669952       1.02729721      -0.23966164
O       -0.49851750       1.78626863       0.77105146
H        2.48595183      -0.18018964      -0.32919862
H        1.96716792       1.46642057       0.22775314
H        1.85309879       0.05612119       1.28961940
H       -0.36158454      -1.57749250      -1.33586449
H        0.11770402      -1.99024482       0.33232140
H       -1.67841000      -0.40564176       1.18270648
H       -2.38866549      -0.55859160      -0.47009425
H       -1.17061270       1.45236962      -1.18077921
14
Frame=1 idx=002824 GeodesicLength=0.06625821060868894 rxn_smarts="[C:1]([C:2]1([C:5](=[O:6])[H:14])[C:3]([H:10])([H:11])[C:4]1([H:12])[H:13])([H:7])([H:8])[H:9]>>[C:1]([C@:2]12[C:3]([H:10])([H:11])[C:4]([H:12])([H:13])[C@@:5]1([H:14])[O:6]2)([H:7])([H:8])[H:9]"
C        1.75706033       0.39766400       0.26239628
C        0.42324906       0.11401395      -0.27976597
C       -0.25570189      -1.19672814      -0.32674595
C       -1.48461920      -0.39027536       0.12468918
C       -0.78134347       1.03583698      -0.24799234
O       -0.48555165       1.79272913       0.75912631
H        2.47588501      -0.20261517      -0.30736908
H        1.98063540       1.46111872       0.20507561
H        1.84897321       0.08022443       1.30512310
H       -0.36089772      -1.56015597      -1.35120499
H        0.11965032      -1.99622060       0.31175396
H       -1.67308850      -0.42630440       1.19242744
H       -2.38704869      -0.56271431      -0.45714860
H       -1.17720221       1.45342673      -1.19036494
14
Frame=2 idx=002824 GeodesicLength=0.13247393935121532 rxn_smarts="[C:1]([C:2]1([C:5](=[O:6])[H:14])[C:3]([H:10])([H:11])[C:4]1([H:12])[H:13])([H:7])([H:8])[H:9]>>[C:1]([C@:2]12[C:3]([H:10])([H:11])[C:4]([H:12])([H:13])[C@@:5]1([H:14])[O:6]2)([H:7])([H:8])[H:9]"
C        1.75375095       0.39674886       0.26974365
C        0.41130656       0.12190875      -0.25832958
C       -0.25570004      -1.19507685      -0.33629206
C       -1.48039567      -0.39797379       0.13432189
C       -0.78560553       1.04428644      -0.25590234
O       -0.47289693       1.79899817       0.74762673
H        2.46538179      -0.22455998      -0.28552117
H        1.99359338       1.45470577       0.18170434
H        1.84583139       0.10497012       1.31975543
H       -0.36004355      -1.54272025      -1.36580779
H        0.12151681      -2.00166050       0.29167585
H       -1.66862885      -0.44790399       1.20165191
H       -2.38515247      -0.56642141      -0.44507826
H       -1.18295784       1.45469866      -1.19954860
14
Frame=3 idx=002824 GeodesicLength=0.19869069597237288 rxn_smarts="[C:1]([C:2]1([C:5](=[O:6])[H:14])[C:3]([H:10])([H:11])[C:4]1([H:12])[H:13])([H:7])([H:8])[H:9]>>[C:1]([C@:2]12[C:3]([H:10])([H:11])[C:4]([H:12])([H:13])[C@@:5]1([H:14])[O:6]2)([H:7])([H:8])[H:9]"
C        1.75030903       0.39582361       0.27681143
C        0.39914114       0.12952022      -0.23636943
C       -0.25567498      -1.19311013      -0.34546229
C       -1.47630446      -0.40573658       0.14381737
C       -0.78946724       1.05266321      -0.26341596
O       -0.46052897       1.80511357       0.73655160
H        2.45447248      -0.24609443      -0.26351489
H        2.00602735       1.44714622       0.15755173
H        1.84364716       0.13046627       1.33353652
H       -0.35903210      -1.52513884      -1.37973538
H        0.12331475      -2.00660596       0.27200965
H       -1.66498112      -0.47050924       1.21038926
H       -2.38302538      -0.56972721      -0.43380880
H       -1.18789766       1.45618927      -1.20836082
14
Frame=4 idx=002824 GeodesicLength=0.2649078315952662 rxn_smarts="[C:1]([C:2]1([C:5](=[O:6])[H:14])[C:3]([H:10])([H:11])[C:4]1([H:12])[H:13])([H:7])([H:8])[H:9]>>[C:1]([C@:2]12[C:3]([H:10])([H:11])[C:4]([H:12])([H:13])[C@@:5]1([H:14])[O:6]2)([H:7])([H:8])[H:9]"
C        1.74671073       0.39488107       0.28362270
C        0.38674267       0.13685900      -0.21388529
C       -0.25561303      -1.19080023      -0.35428758
C       -1.47233864      -0.41357070       0.15320990
C       -0.79291071       1.06096938      -0.27055961
O       -0.44843025       1.81109394       0.72587814
H        2.44317549      -0.26728096      -0.24120143
H        2.01789742       1.43837284       0.13255100
H        1.84236947       0.15679856       1.34646356
H       -0.35785981      -1.50734655      -1.39302763
H        0.12507161      -2.01106469       0.25266504
H       -1.66207622      -0.49416299       1.21863348
H       -2.38069169      -0.57262947      -0.42324602
H       -1.19204706       1.45788080      -1.21681625
14
Frame=5 idx=002824 GeodesicLength=0.3311188679196028 rxn_smarts="[C:1]([C:2]1([C:5](=[O:6])[H:14])[C:3]([H:10])([H:11])[C:4]1([H:12])[H:13])([H:7])([H:8])[H:9]>>[C:1]([C@:2]12[C:3]([H:10])([H:11])[C:4]([H:12])([H:13])[C@@:5]1([H:14])[O:6]2)([H:7])([H:8])[H:9]"
C        1.74294549       0.39392976       0.29016123
C        0.37411556       0.14394038      -0.19085212
C       -0.25550784      -1.18814551      -0.36272398
C       -1.46852570      -0.42148494       0.16249490
C       -0.79589787       1.06921623      -0.27734271
O       -0.43657515       1.81693610       0.71565066
H        2.43150887      -0.28804128      -0.21862906
H        2.02912033       1.42836233       0.10675602
H        1.84204828       0.18392420       1.35843510
H       -0.35650020      -1.48938246      -1.40565155
H        0.12677608      -2.01502994       0.23371321
H       -1.65996598      -0.51889444       1.22633328
H       -2.37817060      -0.57512326      -0.41341480
H       -1.19537125       1.45979284      -1.22493017
14
Frame=6 idx=002824 GeodesicLength=0.3973089394183551 rxn_smarts="[C:1]([C:2]1([C:5](=[O:6])[H:14])[C:3]([H:10])([H:11])[C:4]1([H:12])[H:13])([H:7])([H:8])[H:9]>>[C:1]([C@:2]12[C:3]([H:10])([H:11])[C:4]([H:12])([H:13])[C@@:5]1([H:14])[O:6]2)([H:7])([H:8])[H:9]"
C        1.73899584       0.39296852       0.29641477
C        0.36124795       0.15078039      -0.16726380
C       -0.25534485      -1.18513782      -0.37073410
C       -1.46488060      -0.42947975       0.17167277
C       -0.79839933       1.07741518      -0.28378646
O       -0.42495221       1.82264081       0.70589001
H        2.41950262      -0.30830103      -0.19584752
H        2.03961073       1.41708075       0.08024932
H        1.84271199       0.21177408       1.36935773
H       -0.35492328      -1.47127991      -1.41756842
H        0.12843368      -2.01848908       0.21521277
H       -1.65867131      -0.54470989       1.23343581
H       -2.37547077      -0.57720034      -0.40431515
H       -1.19786046       1.46193809      -1.23271774
14
Frame=7 idx=002824 GeodesicLength=0.4634417149448151 rxn_smarts="[C:1]([C:2]1([C:5](=[O:6])[H:14])[C:3]([H:10])([H:11])[C:4]1([H:12])[H:13])([H:7])([H:8])[H:9]>>[C:1]([C@:2]12[C:3]([H:10])([H:11])[C:4]([H:12])([H:13])[C@@:5]1([H:14])[O:6]2)([H:7])([H:8])[H:9]"
C        1.73484854       0.39199292       0.30239452
C        0.34814494       0.15737907      -0.14315953
C       -0.25510604      -1.18179189      -0.37831120
C       -1.46140505      -0.43755528       0.18077435
C       -0.80038766       1.08558969      -0.28994393
O       -0.41354102       1.82824376       0.69657760
H        2.40719530      -0.32799938      -0.17291898
H        2.04930480       1.40458180       0.05314615
H        1.84430451       0.24022808       1.37921403
H       -0.35311926      -1.45308600      -1.42878271
H        0.13006723      -2.02147649       0.19718264
H       -1.65816410      -0.57159879       1.23994983
H       -2.37261289      -0.57884601      -0.39588338
H       -1.19952929       1.46433852      -1.24023941
14
Frame=8 idx=002824 GeodesicLength=0.5296313412545146 rxn_smarts="[C:1]([C:2]1([C:5](=[O:6])[H:14])[C:3]([H:10])([H:11])[C:4]1([H:12])[H:13])([H:7])([H:8])[H:9]>>[C:1]([C@:2]12[C:3]([H:10])([H:11])[C:4]([H:12])([H:13])[C@@:5]1([H:14])[O:6]2)([H:7])([H:8])[H:9]"
C        1.73046114       0.39099237       0.30812939
C        0.33477771       0.16384846      -0.11854950
C       -0.25479081      -1.17800866      -0.38547639
C       -1.45806452      -0.44573003       0.18980457
C       -0.80184248       1.09370283      -0.29581523
O       -0.40229532       1.83370464       0.68769141
H        2.39457823      -0.34720144      -0.14956301
H        2.05818311       1.39062315       0.02536181
H        1.84676623       0.26944115       1.38789835
H       -0.35113511      -1.43468891      -1.43929876
H        0.13169760      -2.02386884       0.17951692
H       -1.65831537      -0.59960199       1.24575167
H       -2.36958914      -0.58011691      -0.38802719
H       -1.20043126       1.46690416      -1.24742404
14
Frame=9 idx=002824 GeodesicLength=0.5958046441388418 rxn_smarts="[C:1]([C:2]1([C:5](=[O:6])[H:14])[C:3]([H:10])([H:11])[C:4]1([H:12])[H:13])([H:7])([H:8])[H:9]>>[C:1]([C@:2]12[C:3]([H:10])([H:11])[C:4]([H:12])([H:13])[C@@:5]1([H:14])[O:6]2)([H:7])([H:8])[H:9]"
C        1.72580900       0.38996764       0.31363503
C        0.32116754       0.17017223      -0.09352788
C       -0.25435776      -1.17386663      -0.39225587
C       -1.45485837      -0.45400192       0.19883833
C       -0.80275128       1.10184823      -0.30148448
O       -0.39122897       1.83916809       0.67921217
H        2.38171254      -0.36590377      -0.12584772
H        2.06619148       1.37532548      -0.00295886
H        1.84998457       0.29926881       1.39544785
H       -0.34894163      -1.41620336      -1.44920338
H        0.13338377      -2.02582843       0.16221906
H       -1.65908254      -0.62873321       1.25095992
H       -2.36642846      -0.58097731      -0.38062760
H       -1.20059990       1.46976416      -1.25440657
14
Frame=10 idx=002824 GeodesicLength=0.6618985783291274 rxn_smarts="[C:1]([C:2]1([C:5](=[O:6])[H:14])[C:3]([H:10])([H:11])[C:4]1([H:12])[H:13])([H:7])([H:8])[H:9]>>[C:1]([C@:2]12[C:3]([H:10])([H:11])[C:4]([H:12])([H:13])[C@@:5]1([H:14])[O:6]2)([H:7])([H:8])[H:9]"
C        1.72085037       0.38892121       0.31894781
C        0.30733024       0.17633903      -0.06818452
C       -0.25382935      -1.16924791      -0.39863259
C       -1.45172833      -0.46234163       0.20786150
C       -0.80306779       1.10989076      -0.30701647
O       -0.38022010       1.84445046       0.67099622
H        2.36855395      -0.38394300      -0.10170960
H        2.07324815       1.35860680      -0.03154333
H        1.85390419       0.32960192       1.40172845
H       -0.34668403      -1.39753133      -1.45837599
H        0.13513372      -2.02713494       0.14525403
H       -1.66026054      -0.65893097       1.25541647
H       -2.36313170      -0.58140056      -0.37358314
H       -1.20009880       1.47272017      -1.26115885
14
Frame=11 idx=002824 GeodesicLength=0.7280327812452919 rxn_smarts="[C:1]([C:2]1([C:5](=[O:6])[H:14])[C:3]([H:10])([H:11])[C:4]1([H:12])[H:13])([H:7])([H:8])[H:9]>>[C:1]([C@:2]12[C:3]([H:10])([H:11])[C:4]([H:12])([H:13])[C@@:5]1([H:14])[O:6]2)([H:7])([H:8])[H:9]"
C        1.71555636       0.38782345       0.32411498
C        0.29325273       0.18250726      -0.04269005
C       -0.25315910      -1.16420003      -0.40469730
C       -1.44862984      -0.47077812       0.21696693
C       -0.80282286       1.11797491      -0.31247767
O       -0.36930822       1.84977638       0.66303396
H        2.35517131      -0.40148361      -0.07697161
H        2.07943174       1.34040457      -0.06040011
H        1.85828959       0.36043682       1.40681903
H       -0.34435263      -1.37877441      -1.46700428
H        0.13703951      -2.02792428       0.12851419
H       -1.66170777      -0.69022162       1.25923908
H       -2.35969536      -0.58146111      -0.36669404
H       -1.19906545       1.47591981      -1.26775309
14
Frame=12 idx=002824 GeodesicLength=0.7941976723048796 rxn_smarts="[C:1]([C:2]1([C:5](=[O:6])[H:14])[C:3]([H:10])([H:11])[C:4]1([H:12])[H:13])([H:7])([H:8])[H:9]>>[C:1]([C@:2]12[C:3]([H:10])([H:11])[C:4]([H:12])([H:13])[C@@:5]1([H:14])[O:6]2)([H:7])([H:8])[H:9]"
C        1.70989773       0.38668098       0.32919772
C        0.27896871       0.18869763      -0.01718609
C       -0.25235599      -1.15867501      -0.41050505
C       -1.44549805      -0.47930960       0.22619222
C       -0.80200178       1.12606597      -0.31794489
O       -0.35840351       1.85510877       0.65520776
H        2.34153002      -0.41852323      -0.05142427
H        2.08474116       1.32064796      -0.08939265
H        1.86300030       0.39177053       1.41069919
H       -0.34208220      -1.35987722      -1.47511868
H        0.13914511      -2.02812996       0.11187952
H       -1.66318842      -0.72261239       1.26239720
H       -2.35613729      -0.58115294      -0.35978808
H       -1.19761579       1.47930850      -1.27421390
14
Frame=13 idx=002824 GeodesicLength=0.860356177956134 rxn_smarts="[C:1]([C:2]1([C:5](=[O:6])[H:14])[C:3]([H:10])([H:11])[C:4]1([H:12])[H:13])([H:7])([H:8])[H:9]>>[C:1]([C@:2]12[C:3]([H:10])([H:11])[C:4]([H:12])([H:13])[C@@:5]1([H:14])[O:6]2)([H:7])([H:8])[H:9]"
C        1.70385804       0.38547758       0.33422541
C        0.26448566       0.19496728       0.00812761
C       -0.25140928      -1.15266476      -0.41606354
C       -1.44227574      -0.48791218       0.23556645
C       -0.80062209       1.13417186      -0.32351155
O       -0.34749456       1.86044023       0.64741246
H        2.32766779      -0.43496595      -0.02513650
H        2.08919884       1.29936796      -0.11819425
H        1.86788672       0.42334138       1.41335288
H       -0.33994249      -1.34092191      -1.48270623
H        0.14150656      -2.02770359       0.09536346
H       -1.66453299      -0.75599696       1.26486794
H       -2.35244803      -0.58047537      -0.35272021
H       -1.19587843       1.48287442      -1.28058393
14
Frame=14 idx=002824 GeodesicLength=0.9265767678972943 rxn_smarts="[C:1]([C:2]1([C:5](=[O:6])[H:14])[C:3]([H:10])([H:11])[C:4]1([H:12])[H:13])([H:7])([H:8])[H:9]>>[C:1]([C@:2]12[C:3]([H:10])([H:11])[C:4]([H:12])([H:13])[C@@:5]1([H:14])[O:6]2)([H:7])([H:8])[H:9]"
C        1.69742102       0.38421957       0.33926391
C        0.24982650       0.20139406       0.03306319
C       -0.25033527      -1.14617735      -0.42145699
C       -1.43889022      -0.49660279       0.24514193
C       -0.79869009       1.14232228      -0.32925850
O       -0.33651017       1.86582779       0.63957097
H        2.31355024      -0.45084260       0.00205660
H        2.09288723       1.27653524      -0.14665600
H        1.87278271       0.45512834       1.41483561
H       -0.33805697      -1.32194828      -1.48988128
H        0.14415450      -2.02665688       0.07885379
H       -1.66551253      -0.79036171       1.26669560
H       -2.34863179      -0.57947423      -0.34531491
H       -1.19399517       1.48663654      -1.28691392
14
Frame=15 idx=002824 GeodesicLength=0.9928241334387256 rxn_smarts="[C:1]([C:2]1([C:5](=[O:6])[H:14])[C:3]([H:10])([H:11])[C:4]1([H:12])[H:13])([H:7])([H:8])[H:9]>>[C:1]([C@:2]12[C:3]([H:10])([H:11])[C:4]([H:12])([H:13])[C@@:5]1([H:14])[O:6]2)([H:7])([H:8])[H:9]"
C        1.69058362       0.38288757       0.34436170
C        0.23501298       0.20803392       0.05744405
C       -0.24912255      -1.13917639      -0.42672444
C       -1.43526803      -0.50536360       0.25494015
C       -0.79625083       1.15050482      -0.33525333
O       -0.32545161       1.87122272       0.63155834
H        2.29916060      -0.46616861       0.03028500
H        2.09585071       1.25208069      -0.17460970
H        1.87753204       0.48701562       1.41515090
H       -0.33650523      -1.30293745      -1.49666078
H        0.14717187      -2.02491535       0.06227335
H       -1.66590052      -0.82562005       1.26782055
H       -2.34468459      -0.57813164      -0.33739236
H       -1.19212845       1.49056775      -1.29319343
14
Frame=16 idx=002824 GeodesicLength=1.0591238376298582 rxn_smarts="[C:1]([C:2]1([C:5](=[O:6])[H:14])[C:3]([H:10])([H:11])[C:4]1([H:12])[H:13])([H:7])([H:8])[H:9]>>[C:1]([C@:2]12[C:3]([H:10])([H:11])[C:4]([H:12])([H:13])[C@@:5]1([H:14])[O:6]2)([H:7])([H:8])[H:9]"
C        1.68336074       0.38150012       0.34954979
C        0.22006632       0.21493759       0.08108850
C       -0.24780488      -1.13171988      -0.43189328
C       -1.43136170      -0.51420355       0.26499397
C       -0.79331075       1.15875397      -0.34159787
O       -0.31427017       1.87666860       0.62331016
H        2.28449920      -0.48083489       0.05938796
H        2.09818768       1.22617321      -0.20169344
H        1.88203770       0.51874248       1.41437185
H       -0.33540049      -1.28403727      -1.50309316
H        0.15055277      -2.02251190       0.04564652
H       -1.66556316      -0.86167043       1.26829561
H       -2.34061386      -0.57648980      -0.32884529
H       -1.19037940       1.49469175      -1.29952133
