15
Frame=0 idx=011745 GeodesicLength=0.0 rxn_smarts="[C:1]([C@:2]12[C:3]([H:11])([H:12])[O:4][C@@:5]1([H:13])[C@:6]2([O:7][H:15])[H:14])([H:8])([H:9])[H:10]>>[C:1]([C@:2]1([H:14])[C:3]([H:11])([H:12])[O:4][C@:5]1([C:6][O:7][H:15])[H:13])([H:8])([H:9])[H:10]"
C       -1.26586965       1.34064058      -0.35099701
C       -0.31799493       0.21639619      -0.06884317
C       -0.16033250      -0.56136099       1.22035501
O        1.27781753      -0.49936557       1.12647489
C        1.17072076       0.24241754      -0.11201452
C        0.87815411      -0.66619520      -1.27977585
O        1.05807421      -1.97039785      -1.00100915
H       -1.12536390       2.14835918       0.37251258
H       -1.08409459       1.75047968      -1.34645363
H       -2.30494636       1.01030027      -0.30190032
H       -0.54041412      -1.58785720       1.23191985
H       -0.51052945      -0.02649627       2.10661891
H        1.84682957       1.08654909      -0.19376198
H       -0.36486782      -0.43424732      -1.29450651
H        1.44281710      -2.04922208      -0.10861904
15
Frame=1 idx=011745 GeodesicLength=0.046139533195356415 rxn_smarts="[C:1]([C@:2]12[C:3]([H:11])([H:12])[O:4][C@@:5]1([H:13])[C@:6]2([O:7][H:15])[H:14])([H:8])([H:9])[H:10]>>[C:1]([C@:2]1([H:14])[C:3]([H:11])([H:12])[O:4][C@:5]1([C:6][O:7][H:15])[H:13])([H:8])([H:9])[H:10]"
C       -1.26469406       1.34229720      -0.34732386
C       -0.32226789       0.21013693      -0.07582842
C       -0.16489773      -0.55928911       1.21961172
O        1.27360821      -0.49835503       1.12713744
C        1.16897248       0.23911239      -0.11325344
C        0.88098046      -0.67292523      -1.27734666
O        1.07483436      -1.97522518      -1.00206410
H       -1.11919123       2.14515466       0.38050067
H       -1.08423555       1.75800109      -1.34054589
H       -2.30529389       1.01668237      -0.29757546
H       -0.54500156      -1.58554148       1.23835837
H       -0.51448494      -0.01959054       2.10318919
H        1.83965063       1.08721295      -0.19863043
H       -0.37325691      -0.43604613      -1.30875796
H        1.45527762      -2.05162490      -0.10747117
15
Frame=2 idx=011745 GeodesicLength=0.09225461008498359 rxn_smarts="[C:1]([C@:2]12[C:3]([H:11])([H:12])[O:4][C@@:5]1([H:13])[C@:6]2([O:7][H:15])[H:14])([H:8])([H:9])[H:10]>>[C:1]([C@:2]1([H:14])[C:3]([H:11])([H:12])[O:4][C@:5]1([C:6][O:7][H:15])[H:13])([H:8])([H:9])[H:10]"
C       -1.26347901       1.34389104      -0.34362823
C       -0.32656654       0.20389801      -0.08277727
C       -0.16951184      -0.55719814       1.21885588
O        1.26935011      -0.49741122       1.12777907
C        1.16719377       0.23577141      -0.11447722
C        0.88366020      -0.67969803      -1.27485093
O        1.09179399      -1.97989640      -1.00311736
H       -1.11298287       2.14191247       0.38839166
H       -1.08432008       1.76540067      -1.33459698
H       -2.30558102       1.02301888      -0.29318615
H       -0.54973216      -1.58312096       1.24480157
H       -0.51840958      -0.01270164       2.09976606
H        1.83249416       1.08772389      -0.20356373
H       -0.38177152      -0.43765380      -1.32306820
H        1.46786238      -2.05393616      -0.10632815
15
Frame=3 idx=011745 GeodesicLength=0.13833778770480493 rxn_smarts="[C:1]([C@:2]12[C:3]([H:11])([H:12])[O:4][C@@:5]1([H:13])[C@:6]2([O:7][H:15])[H:14])([H:8])([H:9])[H:10]>>[C:1]([C@:2]1([H:14])[C:3]([H:11])([H:12])[O:4][C@:5]1([C:6][O:7][H:15])[H:13])([H:8])([H:9])[H:10]"
C       -1.26222654       1.34542142      -0.33991433
C       -0.33088689       0.19768593      -0.08968253
C       -0.17417072      -0.55508808       1.21809136
O        1.26504748      -0.49654090       1.12840049
C        1.16538848       0.23239365      -0.11568244
C        0.88619260      -0.68651310      -1.27228587
O        1.10895124      -1.98440123      -1.00417622
H       -1.10674780       2.13863960       0.39617688
H       -1.08435124       1.77266906      -1.32861616
H       -2.30580735       1.02930088      -0.28874024
H       -0.55460442      -1.58059452       1.25124741
H       -0.52229431      -0.00583168       2.09635715
H        1.82536978       1.08807867      -0.20855295
H       -0.39041863      -0.43906100      -1.33742845
H        1.48055832      -2.05615868      -0.10519410
15
Frame=4 idx=011745 GeodesicLength=0.18438193255176166 rxn_smarts="[C:1]([C@:2]12[C:3]([H:11])([H:12])[O:4][C@@:5]1([H:13])[C@:6]2([O:7][H:15])[H:14])([H:8])([H:9])[H:10]>>[C:1]([C@:2]1([H:14])[C:3]([H:11])([H:12])[O:4][C@:5]1([C:6][O:7][H:15])[H:13])([H:8])([H:9])[H:10]"
C       -1.26093869       1.34688765      -0.33618641
C       -0.33522491       0.19150674      -0.09653727
C       -0.17886994      -0.55295864       1.21732222
O        1.26070490      -0.49575060       1.12900252
C        1.16356066       0.22897828      -0.11686571
C        0.88857763      -0.69336985      -1.26964890
O        1.12630411      -1.98872933      -1.00524833
H       -1.10049558       2.13534246       0.40384876
H       -1.08433163       1.77979789      -1.32261246
H       -2.30597264       1.03551920      -0.28424679
H       -0.55961615      -1.57796104       1.25769434
H       -0.52612996       0.00101794       2.09296997
H        1.81828674       1.08827480      -0.21358896
H       -0.39920540      -0.44025916      -1.35182997
H        1.49335085      -2.05829635      -0.10407302
15
Frame=5 idx=011745 GeodesicLength=0.23038012296562083 rxn_smarts="[C:1]([C@:2]12[C:3]([H:11])([H:12])[O:4][C@@:5]1([H:13])[C@:6]2([O:7][H:15])[H:14])([H:8])([H:9])[H:10]>>[C:1]([C@:2]1([H:14])[C:3]([H:11])([H:12])[O:4][C@:5]1([C:6][O:7][H:15])[H:13])([H:8])([H:9])[H:10]"
C       -1.25961723       1.34828899      -0.33244891
C       -0.33957660       0.18536597      -0.10333480
C       -0.18360484      -0.55080961       1.21655264
O        1.25632737      -0.49504660       1.12958619
C        1.16171456       0.22552469      -0.11802344
C        0.89081630      -0.70026776      -1.26693743
O        1.14384949      -1.99286913      -1.00634198
H       -1.09423591       2.13202711       0.41140030
H       -1.08426330       1.78677908      -1.31659518
H       -2.30607648       1.04166477      -0.27971544
H       -0.56476475      -1.57521997       1.26414112
H       -0.52990741       0.00784634       2.08961170
H        1.81125422       1.08831092      -0.21866217
H       -0.40813940      -0.44124173      -1.36626361
H        1.50622399      -2.06035308      -0.10296899
15
Frame=6 idx=011745 GeodesicLength=0.27632993388478116 rxn_smarts="[C:1]([C@:2]12[C:3]([H:11])([H:12])[O:4][C@@:5]1([H:13])[C@:6]2([O:7][H:15])[H:14])([H:8])([H:9])[H:10]>>[C:1]([C@:2]1([H:14])[C:3]([H:11])([H:12])[O:4][C@:5]1([C:6][O:7][H:15])[H:13])([H:8])([H:9])[H:10]"
C       -1.25826428       1.34962500      -0.32870656
C       -0.34393744       0.17926873      -0.11006880
C       -0.18837046      -0.54864074       1.21578710
O        1.25192080      -0.49443534       1.13015296
C        1.15985543       0.22203250      -0.11915180
C        0.89291196      -0.70720622      -1.26414888
O        1.16158319      -1.99680875      -1.00746668
H       -1.08797957       2.12869979       0.41882479
H       -1.08414859       1.79360551      -1.31057397
H       -2.30611932       1.04772849      -0.27515655
H       -0.57004734      -1.57237145       1.27058730
H       -0.53361749       0.01465337       2.08628936
H        1.80428205       1.08818699      -0.22376227
H       -0.41722923      -0.44200342      -1.38071976
H        1.51916028      -2.06233445      -0.10188623
15
Frame=7 idx=011745 GeodesicLength=0.3222333290967387 rxn_smarts="[C:1]([C@:2]12[C:3]([H:11])([H:12])[O:4][C@@:5]1([H:13])[C@:6]2([O:7][H:15])[H:14])([H:8])([H:9])[H:10]>>[C:1]([C@:2]1([H:14])[C:3]([H:11])([H:12])[O:4][C@:5]1([C:6][O:7][H:15])[H:13])([H:8])([H:9])[H:10]"
C       -1.25688210       1.35089512      -0.32496456
C       -0.34830338       0.17321863      -0.11673446
C       -0.19316113      -0.54645182       1.21502973
O        1.24749084      -0.49392298       1.13070357
C        1.15798841       0.21850220      -0.12024737
C        0.89487084      -0.71418598      -1.26128093
O        1.17950427      -2.00053503      -1.00862887
H       -1.08173652       2.12536588       0.42611693
H       -1.08399109       1.80027214      -1.30455808
H       -2.30610307       1.05370261      -0.27058025
H       -0.57546002      -1.56941562       1.27703252
H       -0.53725161       0.02143932       2.08300887
H        1.79738026       1.08790468      -0.22887933
H       -0.42648469      -0.44253920      -1.39518806
H        1.53213900      -2.06424995      -0.10082969
15
Frame=8 idx=011745 GeodesicLength=0.36804270435211656 rxn_smarts="[C:1]([C@:2]12[C:3]([H:11])([H:12])[O:4][C@@:5]1([H:13])[C@:6]2([O:7][H:15])[H:14])([H:8])([H:9])[H:10]>>[C:1]([C@:2]1([H:14])[C:3]([H:11])([H:12])[O:4][C@:5]1([C:6][O:7][H:15])[H:13])([H:8])([H:9])[H:10]"
C       -1.25547126       1.35210048      -0.32122046
C       -0.35266844       0.16721604      -0.12333714
C       -0.19797709      -0.54423883       1.21427632
O        1.24302938      -0.49350829       1.13123625
C        1.15610939       0.21493256      -0.12131247
C        0.89668878      -0.72121084      -1.25832634
O        1.19763176      -2.00404993      -1.00982832
H       -1.07549582       2.12202892       0.43327413
H       -1.08380421       1.80677149      -1.29854931
H       -2.30602536       1.05958785      -0.26598053
H       -0.58099125      -1.56633943       1.28347178
H       -0.54081027       0.02819896       2.07976926
H        1.79053182       1.08745705      -0.23400833
H       -0.43589317      -0.44283575      -1.40966496
H        1.54514574      -2.06611028      -0.09979988
15
Frame=9 idx=011745 GeodesicLength=0.4138082753325541 rxn_smarts="[C:1]([C@:2]12[C:3]([H:11])([H:12])[O:4][C@@:5]1([H:13])[C@:6]2([O:7][H:15])[H:14])([H:8])([H:9])[H:10]>>[C:1]([C@:2]1([H:14])[C:3]([H:11])([H:12])[O:4][C@:5]1([C:6][O:7][H:15])[H:13])([H:8])([H:9])[H:10]"
C       -1.25403092       1.35324147      -0.31748274
C       -0.35703992       0.16125766      -0.12986947
C       -0.20281484      -0.54200900       1.21353484
O        1.23855120      -0.49319724       1.13175475
C        1.15422488       0.21132161      -0.12234402
C        0.89837576      -0.72829129      -1.25528653
O        1.21595383      -2.00732200      -1.01106931
H       -1.06927458       2.11868923       0.44030020
H       -1.08356956       1.81311655      -1.29255460
H       -2.30588914       1.06538505      -0.26137471
H       -0.58665047      -1.56316324       1.28991284
H       -0.54428744       0.03493932       2.07657423
H        1.78375739       1.08685549      -0.23915126
H       -0.44548696      -0.44291445      -1.42414404
H        1.55818076      -2.06790916      -0.09880018
15
Frame=10 idx=011745 GeodesicLength=0.4595356750729105 rxn_smarts="[C:1]([C@:2]12[C:3]([H:11])([H:12])[O:4][C@@:5]1([H:13])[C@:6]2([O:7][H:15])[H:14])([H:8])([H:9])[H:10]>>[C:1]([C@:2]1([H:14])[C:3]([H:11])([H:12])[O:4][C@:5]1([C:6][O:7][H:15])[H:13])([H:8])([H:9])[H:10]"
C       -1.25256152       1.35432128      -0.31374988
C       -0.36141939       0.15533939      -0.13633823
C       -0.20767810      -0.53975954       1.21280357
O        1.23404573      -0.49298355       1.13226169
C        1.15232897       0.20766321      -0.12334743
C        0.89992482      -0.73543968      -1.25215931
O        1.23449964      -2.01036982      -1.01235527
H       -1.06306925       2.11534173       0.44720833
H       -1.08328081       1.81931957      -1.28656420
H       -2.30569884       1.07110712      -0.25676773
H       -0.59243226      -1.55987800       1.29635758
H       -0.54769244       0.04166048       2.07342197
H        1.77704289       1.08609216      -0.24432121
H       -0.45527701      -0.44276369      -1.43862419
H        1.57126759      -2.06965065      -0.09782569
15
Frame=11 idx=011745 GeodesicLength=0.5052309157708961 rxn_smarts="[C:1]([C@:2]12[C:3]([H:11])([H:12])[O:4][C@@:5]1([H:13])[C@:6]2([O:7][H:15])[H:14])([H:8])([H:9])[H:10]>>[C:1]([C@:2]1([H:14])[C:3]([H:11])([H:12])[O:4][C@:5]1([C:6][O:7][H:15])[H:13])([H:8])([H:9])[H:10]"
C       -1.25105634       1.35534195      -0.31002312
C       -0.36582067       0.14945384      -0.14274328
C       -0.21256988      -0.53749731       1.21208053
O        1.22951572      -0.49286630       1.13275447
C        1.15041293       0.20395229      -0.12432582
C        0.90132677      -0.74267183      -1.24894261
O        1.25328138      -2.01316688      -1.01367300
H       -1.05686768       2.11198213       0.45399953
H       -1.08292439       1.82539295      -1.28057631
H       -2.30544714       1.07676553      -0.25215531
H       -0.59833534      -1.55649720       1.30280073
H       -0.55102818       0.04836200       2.07030976
H        1.77037689       1.08516698      -0.24952644
H       -0.46528232      -0.44239552      -1.45311487
H        1.58441824      -2.07132263      -0.09686424
15
Frame=12 idx=011745 GeodesicLength=0.5508447347878349 rxn_smarts="[C:1]([C@:2]12[C:3]([H:11])([H:12])[O:4][C@@:5]1([H:13])[C@:6]2([O:7][H:15])[H:14])([H:8])([H:9])[H:10]>>[C:1]([C@:2]1([H:14])[C:3]([H:11])([H:12])[O:4][C@:5]1([C:6][O:7][H:15])[H:13])([H:8])([H:9])[H:10]"
C       -1.24952139       1.35630086      -0.30630515
C       -0.37022727       0.14360341      -0.14908604
C       -0.21748524      -0.53521941       1.21136792
O        1.22495301      -0.49285302       1.13323477
C        1.14848023       0.20019006      -0.12527688
C        0.90259023      -0.74998424      -1.24562273
O        1.27231108      -2.01570769      -1.01503319
H       -1.05067313       2.10861683       0.46067008
H       -1.08251666       1.83132512      -1.27460096
H       -2.30513922       1.08235386      -0.24753720
H       -0.60436180      -1.55300663       1.30925260
H       -0.55428526       0.05504235       2.06723310
H        1.76375727       1.08407989      -0.25476278
H       -0.47548340      -0.44179593      -1.46759986
H        1.59760157      -2.07294544      -0.09593367
15
Frame=13 idx=011745 GeodesicLength=0.5964331542203366 rxn_smarts="[C:1]([C@:2]12[C:3]([H:11])([H:12])[O:4][C@@:5]1([H:13])[C@:6]2([O:7][H:15])[H:14])([H:8])([H:9])[H:10]>>[C:1]([C@:2]1([H:14])[C:3]([H:11])([H:12])[O:4][C@:5]1([C:6][O:7][H:15])[H:13])([H:8])([H:9])[H:10]"
C       -1.24795276       1.35720178      -0.30259622
C       -0.37465361       0.13777983      -0.15536965
C       -0.22243062      -0.53292971       1.21066520
O        1.22036250      -0.49293990       1.13370630
C        1.14653031       0.19637236      -0.12620100
C        0.90371905      -0.75739556      -1.24220383
O        1.29160602      -2.01797257      -1.01643913
H       -1.04446881       2.10524974       0.46721912
H       -1.08205250       1.83712015      -1.26863865
H       -2.30477661       1.08788852      -0.24290485
H       -0.61051409      -1.54941775       1.31570734
H       -0.55747903       0.06170589       2.06419396
H        1.75718653       1.08283212      -0.26002997
H       -0.48591516      -0.44098116      -1.48208191
H        1.61083878      -2.07451371      -0.09502672
15
Frame=14 idx=011745 GeodesicLength=0.641992942432652 rxn_smarts="[C:1]([C@:2]12[C:3]([H:11])([H:12])[O:4][C@@:5]1([H:13])[C@:6]2([O:7][H:15])[H:14])([H:8])([H:9])[H:10]>>[C:1]([C@:2]1([H:14])[C:3]([H:11])([H:12])[O:4][C@:5]1([C:6][O:7][H:15])[H:13])([H:8])([H:9])[H:10]"
C       -1.24634772       1.35804661      -0.29889785
C       -0.37910280       0.13197769      -0.16159729
C       -0.22740945      -0.53063145       1.20997120
O        1.21573721      -0.49312719       1.13416962
C        1.14455682       0.19249478      -0.12710061
C        0.90471033      -0.76491701      -1.23868043
O        1.31118486      -2.01994784      -1.01788507
H       -1.03824401       2.10188124       0.47364670
H       -1.08152848       1.84278365      -1.26269041
H       -2.30435674       1.09337940      -0.23825242
H       -0.61679290      -1.54573243       1.32216556
H       -0.56061323       0.06834938       2.06118832
H        1.75065549       1.08142035      -0.26533538
H       -0.49658991      -0.43995183      -1.49655827
H        1.62414054      -2.07602534      -0.09414367
15
Frame=15 idx=011745 GeodesicLength=0.687528098894441 rxn_smarts="[C:1]([C@:2]12[C:3]([H:11])([H:12])[O:4][C@@:5]1([H:13])[C@:6]2([O:7][H:15])[H:14])([H:8])([H:9])[H:10]>>[C:1]([C@:2]1([H:14])[C:3]([H:11])([H:12])[O:4][C@:5]1([C:6][O:7][H:15])[H:13])([H:8])([H:9])[H:10]"
C       -1.24470428       1.35883709      -0.29521081
C       -0.38357944       0.12619162      -0.16777221
C       -0.23242431      -0.52832541       1.20928591
O        1.21107361      -0.49341380       1.13462524
C        1.14255499       0.18855200      -0.12797918
C        0.90556075      -0.77256509      -1.23504563
O        1.33106634      -2.02161808      -1.01936938
H       -1.03199829       2.09850658       0.47996133
H       -1.08093351       1.84832804      -1.25675124
H       -2.30387936       1.09883452      -0.23358653
H       -0.62319811      -1.54195116       1.32863117
H       -0.56369059       0.07497426       2.05821423
H        1.74415720       1.07983973      -0.27069095
H       -0.50752116      -0.43870981      -1.51102740
H        1.63751619      -2.07748051      -0.09328456
15
Frame=16 idx=011745 GeodesicLength=0.7330455946502722 rxn_smarts="[C:1]([C@:2]12[C:3]([H:11])([H:12])[O:4][C@@:5]1([H:13])[C@:6]2([O:7][H:15])[H:14])([H:8])([H:9])[H:10]>>[C:1]([C@:2]1([H:14])[C:3]([H:11])([H:12])[O:4][C@:5]1([C:6][O:7][H:15])[H:13])([H:8])([H:9])[H:10]"
C       -1.24301966       1.35957498      -0.29153568
C       -0.38808781       0.12041698      -0.17389779
C       -0.23747938      -0.52601333       1.20860782
O        1.20636711      -0.49379979       1.13507475
C        1.14052073       0.18453914      -0.12883798
C        0.90626946      -0.78035519      -1.23129179
O        1.35127026      -2.02296464      -1.02089036
H       -1.02571979       2.09512605       0.48616300
H       -1.08026830       1.85375413      -1.25082322
H       -2.30334300       1.10426631      -0.22889759
H       -0.62973348      -1.53807475       1.33510237
H       -0.56671933       0.08157982       2.05526764
H        1.73768805       1.07808438      -0.27610314
H       -0.51872305      -0.43725679      -1.52548733
H        1.65097817      -2.07887730      -0.09245071
