14
Frame=0 idx=003260 GeodesicLength=0.0 rxn_smarts="[C:1]1([H:7])([H:8])[C@@:2]2([H:9])[C:3]([H:10])([H:11])[O:4][C:5]([H:12])([H:13])[C@@:6]12[H:14]>>[C:1](=[C:2]([C:6](=[C:5]([H:12])[H:13])[H:14])[H:9])([H:7])[H:8].[C:3](=[O:4])([H:10])[H:11]"
C        1.29306677       0.53310690      -0.75854621
C        0.65111814       0.34787395       0.46058758
C       -0.94797129       1.08749661       0.85483514
O       -1.91386058       0.35088515       0.47208823
C       -0.76092038      -1.35304672      -0.67999481
C        0.32299627      -1.06399704       0.06545638
H        0.74076469       0.48310469      -1.68619609
H        2.34699790       0.78941597      -0.84115042
H        1.30859015       0.43635648       1.32136601
H       -0.82419152       2.06953952       0.36476920
H       -0.77043896       1.15721299       1.94455764
H       -1.24381721      -0.62687000      -1.31382934
H       -1.11591881      -2.37447835      -0.74434874
H        0.91358477      -1.83660010       0.54040540
14
Frame=1 idx=003260 GeodesicLength=0.06778527299705155 rxn_smarts="[C:1]1([H:7])([H:8])[C@@:2]2([H:9])[C:3]([H:10])([H:11])[O:4][C:5]([H:12])([H:13])[C@@:6]12[H:14]>>[C:1](=[C:2]([C:6](=[C:5]([H:12])[H:13])[H:14])[H:9])([H:7])[H:8].[C:3](=[O:4])([H:10])[H:11]"
C        1.29448001       0.52808299      -0.76182397
C        0.66347891       0.34344341       0.46408089
C       -0.95368307       1.09338631       0.84850804
O       -1.91506887       0.36826462       0.42834769
C       -0.76908654      -1.34898435      -0.66010592
C        0.33818676      -1.06480016       0.05925922
H        0.73413319       0.49945315      -1.68564130
H        2.34632743       0.79009997      -0.84838356
H        1.32396964       0.43155533       1.32245970
H       -0.82793456       2.09124314       0.39307459
H       -0.79558796       1.12233916       1.94282445
H       -1.23072450      -0.64390401      -1.33295966
H       -1.13642545      -2.36793385      -0.69739841
H        0.92793501      -1.84224571       0.52775825
14
Frame=2 idx=003260 GeodesicLength=0.13554477786587976 rxn_smarts="[C:1]1([H:7])([H:8])[C@@:2]2([H:9])[C:3]([H:10])([H:11])[O:4][C:5]([H:12])([H:13])[C@@:6]12[H:14]>>[C:1](=[C:2]([C:6](=[C:5]([H:12])[H:13])[H:14])[H:9])([H:7])[H:8].[C:3](=[O:4])([H:10])[H:11]"
C        1.29582205       0.52329230      -0.76499322
C        0.67605709       0.33869820       0.46763754
C       -0.95939208       1.09942937       0.84210978
O       -1.91494919       0.38636631       0.38418321
C       -0.77699002      -1.34410455      -0.64027791
C        0.35313878      -1.06566256       0.05263441
H        0.72783282       0.51609537      -1.68465759
H        2.34560519       0.79083292      -0.85538676
H        1.33964103       0.42603733       1.32357831
H       -0.83290310       2.11217742       0.42214803
H       -0.82112706       1.08748368       1.93919363
H       -1.21802825      -0.66271459      -1.35091006
H       -1.15665093      -2.35971318      -0.64946841
H        0.94194368      -1.84821802       0.51420902
14
Frame=3 idx=003260 GeodesicLength=0.20329539611819417 rxn_smarts="[C:1]1([H:7])([H:8])[C@@:2]2([H:9])[C:3]([H:10])([H:11])[O:4][C:5]([H:12])([H:13])[C@@:6]12[H:14]>>[C:1](=[C:2]([C:6](=[C:5]([H:12])[H:13])[H:14])[H:9])([H:7])[H:8].[C:3](=[O:4])([H:10])[H:11]"
C        1.29711619       0.51872895      -0.76803481
C        0.68886358       0.33362029       0.47126338
C       -0.96512299       1.10559605       0.83565683
O       -1.91343741       0.40501136       0.33979201
C       -0.78459795      -1.33839115      -0.62059010
C        0.36784848      -1.06658952       0.04556826
H        0.72190241       0.53300874      -1.68323910
H        2.34486765       0.79158720      -0.86213432
H        1.35561788       0.41976935       1.32472696
H       -0.83929601       2.13221289       0.45179993
H       -0.84696402       1.05285864       1.93366099
H       -1.20581273      -0.68315948      -1.36757741
H       -1.17652464      -2.34971784      -0.60066622
H        0.95553957      -1.85453547       0.49977360
14
Frame=4 idx=003260 GeodesicLength=0.2712180786867957 rxn_smarts="[C:1]1([H:7])([H:8])[C@@:2]2([H:9])[C:3]([H:10])([H:11])[O:4][C:5]([H:12])([H:13])[C@@:6]12[H:14]>>[C:1](=[C:2]([C:6](=[C:5]([H:12])[H:13])[H:14])[H:9])([H:7])[H:8].[C:3](=[O:4])([H:10])[H:11]"
C        1.29844163       0.51440448      -0.77095272
C        0.70194354       0.32815916       0.47498258
C       -0.97093110       1.11183892       0.82913843
O       -1.91065509       0.42398553       0.29539640
C       -0.79193173      -1.33184030      -0.60108895
C        0.38230857      -1.06761371       0.03809700
H        0.71642075       0.55021345      -1.68144810
H        2.34421826       0.79247190      -0.86862214
H        1.37198560       0.41265404       1.32595738
H       -0.84731936       2.15127021       0.48172091
H       -0.87294305       1.01865472       1.92628835
H       -1.19419532      -0.70501928      -1.38289543
H       -1.19602295      -2.33790823      -0.55110807
H        0.96868025      -1.86127090       0.48453435
14
Frame=5 idx=003260 GeodesicLength=0.3392330860342121 rxn_smarts="[C:1]1([H:7])([H:8])[C@@:2]2([H:9])[C:3]([H:10])([H:11])[O:4][C:5]([H:12])([H:13])[C@@:6]12[H:14]>>[C:1](=[C:2]([C:6](=[C:5]([H:12])[H:13])[H:14])[H:9])([H:7])[H:8].[C:3](=[O:4])([H:10])[H:11]"
C        1.29978877       0.51039115      -0.77373665
C        0.71527713       0.32238362       0.47872928
C       -0.97680197       1.11812937       0.82256446
O       -1.90610443       0.44321151       0.25099227
C       -0.79887639      -1.32445009      -0.58194949
C        0.39659609      -1.06866414       0.03009425
H        0.71138545       0.56780321      -1.67921184
H        2.34373874       0.79314031      -0.87479990
H        1.38865208       0.40473759       1.32719611
H       -0.85732058       2.16923508       0.51209668
H       -0.89910689       0.98484437       1.91692881
H       -1.18332115      -0.72837357      -1.39683755
H       -1.21520591      -2.32405597      -0.50054816
H        0.98129906      -1.86833243       0.46848173
14
Frame=6 idx=003260 GeodesicLength=0.40668786128152773 rxn_smarts="[C:1]1([H:7])([H:8])[C@@:2]2([H:9])[C:3]([H:10])([H:11])[O:4][C:5]([H:12])([H:13])[C@@:6]12[H:14]>>[C:1](=[C:2]([C:6](=[C:5]([H:12])[H:13])[H:14])[H:9])([H:7])[H:8].[C:3](=[O:4])([H:10])[H:11]"
C        1.30093524       0.50630979      -0.77618888
C        0.72870540       0.31616617       0.48257885
C       -0.98264974       1.12450849       0.81600638
O       -1.90016878       0.46221374       0.20750497
C       -0.80528813      -1.31616496      -0.56320684
C        0.41046794      -1.06975264       0.02165858
H        0.70675850       0.58523430      -1.67630946
H        2.34287660       0.79361103      -0.88051647
H        1.40540699       0.39600535       1.32837754
H       -0.86918774       2.18586507       0.54202110
H       -0.92486402       0.95249331       1.90590619
H       -1.17288498      -0.75261328      -1.40899180
H       -1.23322062      -2.30823004      -0.45026758
H        0.99311334      -1.87564633       0.45142742
14
Frame=7 idx=003260 GeodesicLength=0.47443681406547655 rxn_smarts="[C:1]1([H:7])([H:8])[C@@:2]2([H:9])[C:3]([H:10])([H:11])[O:4][C:5]([H:12])([H:13])[C@@:6]12[H:14]>>[C:1](=[C:2]([C:6](=[C:5]([H:12])[H:13])[H:14])[H:9])([H:7])[H:8].[C:3](=[O:4])([H:10])[H:11]"
C        1.30227711       0.50248961      -0.77845857
C        0.74244314       0.30953090       0.48654078
C       -0.98867446       1.13092576       0.80942997
O       -1.89307421       0.48069851       0.16508840
C       -0.81137183      -1.30708652      -0.54496191
C        0.42406292      -1.07095412       0.01287484
H        0.70271348       0.60307999      -1.67299950
H        2.34246278       0.79384814      -0.88590212
H        1.42263099       0.38630647       1.32966966
H       -0.88345332       2.20130111       0.57115054
H       -0.95025597       0.92145753       1.89338623
H       -1.16360016      -0.77754010      -1.41953054
H       -1.25044193      -2.29061824      -0.40009200
H        1.00428145      -1.88343905       0.43380422
14
Frame=8 idx=003260 GeodesicLength=0.5422460543259192 rxn_smarts="[C:1]1([H:7])([H:8])[C@@:2]2([H:9])[C:3]([H:10])([H:11])[O:4][C:5]([H:12])([H:13])[C@@:6]12[H:14]>>[C:1](=[C:2]([C:6](=[C:5]([H:12])[H:13])[H:14])[H:9])([H:7])[H:8].[C:3](=[O:4])([H:10])[H:11]"
C        1.30370952       0.49878719      -0.78048670
C        0.75641782       0.30246387       0.49059865
C       -0.99482219       1.13741065       0.80284937
O       -1.88483432       0.49860871       0.12387482
C       -0.81702624      -1.29725535      -0.52727721
C        0.43734099      -1.07222987       0.00371074
H        0.69923301       0.62112177      -1.66918319
H        2.34225954       0.79379538      -0.89089117
H        1.44019171       0.37568322       1.33099565
H       -0.90012224       2.21553334       0.59944912
H       -0.97509615       0.89195508       1.87950977
H       -1.15528696      -0.80305759      -1.42842596
H       -1.26666635      -2.27121805      -0.35021978
H        1.01470184      -1.89159834       0.41549589
14
Frame=9 idx=003260 GeodesicLength=0.6102222772007424 rxn_smarts="[C:1]1([H:7])([H:8])[C@@:2]2([H:9])[C:3]([H:10])([H:11])[O:4][C:5]([H:12])([H:13])[C@@:6]12[H:14]>>[C:1](=[C:2]([C:6](=[C:5]([H:12])[H:13])[H:14])[H:9])([H:7])[H:8].[C:3](=[O:4])([H:10])[H:11]"
C        1.30529092       0.49518764      -0.78228627
C        0.77065309       0.29493215       0.49475467
C       -1.00113289       1.14397665       0.79625575
O       -1.87571955       0.51580593       0.08405012
C       -0.82226602      -1.28672716      -0.51018379
C        0.45030109      -1.07359801      -0.00578913
H        0.69636105       0.63939898      -1.66489103
H        2.34235714       0.79345403      -0.89550685
H        1.45814441       0.36407739       1.33236123
H       -0.91929933       2.22861987       0.62666397
H       -0.99924655       0.86412496       1.86451444
H       -1.14799481      -0.82894362      -1.43569403
H       -1.28181279      -2.25015822      -0.30083719
H        1.02436423      -1.90015061       0.39658812
14
Frame=10 idx=003260 GeodesicLength=0.6784123069088323 rxn_smarts="[C:1]1([H:7])([H:8])[C@@:2]2([H:9])[C:3]([H:10])([H:11])[O:4][C:5]([H:12])([H:13])[C@@:6]12[H:14]>>[C:1](=[C:2]([C:6](=[C:5]([H:12])[H:13])[H:14])[H:9])([H:7])[H:8].[C:3](=[O:4])([H:10])[H:11]"
C        1.30703478       0.49173075      -0.78384093
C        0.78515473       0.28695237       0.49897779
C       -1.00755288       1.15064386       0.78961310
O       -1.86539847       0.53232696       0.04542675
C       -0.82704967      -1.27556368      -0.49370620
C        0.46300269      -1.07504206      -0.01564791
H        0.69411830       0.65796910      -1.66003133
H        2.34278498       0.79277181      -0.89972248
H        1.47645132       0.35149589       1.33371491
H       -0.94122486       2.24064134       0.65293955
H       -1.02270423       0.83773283       1.84830331
H       -1.14192970      -0.85529013      -1.44135102
H       -1.29600018      -2.22730151      -0.25169026
H        1.03331318      -1.90906751       0.37701472
14
Frame=11 idx=003260 GeodesicLength=0.7461674185160305 rxn_smarts="[C:1]1([H:7])([H:8])[C@@:2]2([H:9])[C:3]([H:10])([H:11])[O:4][C:5]([H:12])([H:13])[C@@:6]12[H:14]>>[C:1](=[C:2]([C:6](=[C:5]([H:12])[H:13])[H:14])[H:9])([H:7])[H:8].[C:3](=[O:4])([H:10])[H:11]"
C        1.30868292       0.48816823      -0.78504096
C        0.79977022       0.27851844       0.50326314
C       -1.01398419       1.15743964       0.78296216
O       -1.85435144       0.54794306       0.00848558
C       -0.83129866      -1.26377889      -0.47789929
C        0.47524587      -1.07648582      -0.02582357
H        0.69235700       0.67648046      -1.65448158
H        2.34306963       0.79160401      -0.90344479
H        1.49492973       0.33805597       1.33494904
H       -0.96545606       2.25139315       0.67789089
H       -1.04510168       0.81346603       1.83134301
H       -1.13649735      -0.88171502      -1.44532682
H       -1.30863558      -2.20295715      -0.20363852
H        1.04126958      -1.91813212       0.35676171
14
Frame=12 idx=003260 GeodesicLength=0.8142432520604342 rxn_smarts="[C:1]1([H:7])([H:8])[C@@:2]2([H:9])[C:3]([H:10])([H:11])[O:4][C:5]([H:12])([H:13])[C@@:6]12[H:14]>>[C:1](=[C:2]([C:6](=[C:5]([H:12])[H:13])[H:14])[H:9])([H:7])[H:8].[C:3](=[O:4])([H:10])[H:11]"
C        1.31059917       0.48471928      -0.78602117
C        0.81468831       0.26958807       0.50763214
C       -1.02062039       1.16443062       0.77627131
O       -1.84282974       0.56266973      -0.02689193
C       -0.83517097      -1.25149031      -0.46269125
C        0.48719552      -1.07803020      -0.03622733
H        0.69127789       0.69534666      -1.64841436
H        2.34387932       0.79004135      -0.90684973
H        1.51388631       0.32355922       1.33617679
H       -0.99246196       2.26121503       0.70138049
H       -1.06658064       0.79094880       1.81375483
H       -1.13232770      -0.90811362      -1.44776001
H       -1.32005620      -2.17730504      -0.15636068
H        1.04852108      -1.92757959       0.33600092
14
Frame=13 idx=003260 GeodesicLength=0.8824394268820254 rxn_smarts="[C:1]1([H:7])([H:8])[C@@:2]2([H:9])[C:3]([H:10])([H:11])[O:4][C:5]([H:12])([H:13])[C@@:6]12[H:14]>>[C:1](=[C:2]([C:6](=[C:5]([H:12])[H:13])[H:14])[H:9])([H:7])[H:8].[C:3](=[O:4])([H:10])[H:11]"
C        1.31267053       0.48130503      -0.78674400
C        0.82986169       0.26017294       0.51205960
C       -1.02737856       1.17165004       0.76952321
O       -1.83078931       0.57659028      -0.06081366
C       -0.83861953      -1.23871902      -0.44807981
C        0.49882753      -1.07962130      -0.04688629
H        0.69083194       0.71442817      -1.64175093
H        2.34500005       0.78803117      -0.90990339
H        1.53323088       0.30806693       1.33732507
H       -1.02217661       2.27003302       0.72354849
H       -1.08707335       0.77019246       1.79561314
H       -1.12921112      -0.93452025      -1.44866488
H       -1.33017318      -2.15032804      -0.10987942
H        1.05499904      -1.93728143       0.31465286
14
Frame=14 idx=003260 GeodesicLength=0.950834294488734 rxn_smarts="[C:1]1([H:7])([H:8])[C@@:2]2([H:9])[C:3]([H:10])([H:11])[O:4][C:5]([H:12])([H:13])[C@@:6]12[H:14]>>[C:1](=[C:2]([C:6](=[C:5]([H:12])[H:13])[H:14])[H:9])([H:7])[H:8].[C:3](=[O:4])([H:10])[H:11]"
C        1.31493198       0.47792005      -0.78723001
C        0.84531972       0.25026475       0.51654144
C       -1.03427323       1.17914753       0.76271115
O       -1.81835771       0.58974790      -0.09334882
C       -0.84168149      -1.22550642      -0.43404117
C        0.51015809      -1.08125203      -0.05778954
H        0.69104416       0.73373481      -1.63451106
H        2.34648966       0.78557208      -0.91264726
H        1.55301306       0.29156703       1.33838839
H       -1.05465500       2.27783850       0.74441551
H       -1.10657800       0.75117529       1.77705930
H       -1.12713864      -0.96089768      -1.44808586
H       -1.33899965      -2.12209983      -0.06419147
H        1.06072706      -1.94721198       0.29272939
14
Frame=15 idx=003260 GeodesicLength=1.019159302706635 rxn_smarts="[C:1]1([H:7])([H:8])[C@@:2]2([H:9])[C:3]([H:10])([H:11])[O:4][C:5]([H:12])([H:13])[C@@:6]12[H:14]>>[C:1](=[C:2]([C:6](=[C:5]([H:12])[H:13])[H:14])[H:9])([H:7])[H:8].[C:3](=[O:4])([H:10])[H:11]"
C        1.31727800       0.47458035      -0.78740029
C        0.86100066       0.23984909       0.52103959
C       -1.04123482       1.18696048       0.75575897
O       -1.80544186       0.60222419      -0.12455862
C       -0.84428968      -1.21187561      -0.42049427
C        0.52117094      -1.08290634      -0.06893466
H        0.69185446       0.75331064      -1.62649160
H        2.34815129       0.78268096      -0.91499597
H        1.57311062       0.27402283       1.33924920
H       -1.08976944       2.28458444       0.76385395
H       -1.12497743       0.73378484       1.75802869
H       -1.12607921      -0.98719237      -1.44594410
H       -1.34642793      -2.09268102      -0.01926456
H        1.06565442      -1.95734249       0.27015368
14
Frame=16 idx=003260 GeodesicLength=1.0876408019180617 rxn_smarts="[C:1]1([H:7])([H:8])[C@@:2]2([H:9])[C:3]([H:10])([H:11])[O:4][C:5]([H:12])([H:13])[C@@:6]12[H:14]>>[C:1](=[C:2]([C:6](=[C:5]([H:12])[H:13])[H:14])[H:9])([H:7])[H:8].[C:3](=[O:4])([H:10])[H:11]"
C        1.31982941       0.47125850      -0.78734094
C        0.87698629       0.22891732       0.52556767
C       -1.04831826       1.19515107       0.74871692
O       -1.79232597       0.61398278      -0.15441649
C       -0.84654545      -1.19784906      -0.40746088
C        0.53188481      -1.08457701      -0.08029477
H        0.69333716       0.77313365      -1.61784830
H        2.35019453       0.77933722      -0.91707559
H        1.59366430       0.25544229       1.33997062
H       -1.12768919       2.29021538       0.78189289
H       -1.14227467       0.71814635       1.73880934
H       -1.12603397      -1.01331451      -1.44232249
H       -1.35250374      -2.06221243       0.02472617
H        1.06979475      -1.96763156       0.24707583
