11
Frame=0 idx=004398 GeodesicLength=0.0 rxn_smarts="[O:1]=[C:2]1[N:3]([H:7])[C:4]([H:8])([H:9])[C:5]([H:10])=[C:6]1[H:11]>>[O:1]1[C:2](/[C:6](=[C:5](\[C:4]([H:7])([H:8])[H:9])[H:10])[H:11])=[N:3]1"
O        2.58843985      -0.92544882       0.00270617
C        1.40917714      -0.54093314       0.01088415
N        0.65078807      -1.60605091      -0.09871046
C       -1.27926881      -0.27620395      -0.10034645
C       -0.44483987       0.94224626       0.07175730
C        0.87525534       0.82619777       0.10622794
H       -0.69303141      -1.21934501       0.22796523
H       -2.15446298      -0.30697826       0.55227415
H       -1.58303423      -0.44539671      -1.13315619
H       -0.94021488       1.90371420       0.15668563
H        1.57119176       1.64819854       0.20371250
11
Frame=1 idx=004398 GeodesicLength=0.06486153364538812 rxn_smarts="[O:1]=[C:2]1[N:3]([H:7])[C:4]([H:8])([H:9])[C:5]([H:10])=[C:6]1[H:11]>>[O:1]1[C:2](/[C:6](=[C:5](\[C:4]([H:7])([H:8])[H:9])[H:10])[H:11])=[N:3]1"
O        2.58453754      -0.93388264       0.00274264
C        1.40920988      -0.53735839       0.04080595
N        0.64632057      -1.59052501      -0.12952215
C       -1.27130637      -0.28084943      -0.09939669
C       -0.44371375       0.94415509       0.06545808
C        0.87660585       0.83136731       0.11085607
H       -0.69559662      -1.24716686       0.23329969
H       -2.14203552      -0.30547954       0.56010814
H       -1.59513255      -0.43884084      -1.12828911
H       -0.94158506       1.90521180       0.13827650
H        1.57269604       1.65336851       0.20566087
11
Frame=2 idx=004398 GeodesicLength=0.12968391319376932 rxn_smarts="[O:1]=[C:2]1[N:3]([H:7])[C:4]([H:8])([H:9])[C:5]([H:10])=[C:6]1[H:11]>>[O:1]1[C:2](/[C:6](=[C:5](\[C:4]([H:7])([H:8])[H:9])[H:10])[H:11])=[N:3]1"
O        2.57985338      -0.94253994       0.00778235
C        1.40872210      -0.53342959       0.06135538
N        0.64194418      -1.57430048      -0.15696989
C       -1.26334726      -0.28531681      -0.09839601
C       -0.44255271       0.94627617       0.05865927
C        0.87793499       0.83650723       0.11443516
H       -0.69764374      -1.27528204       0.23673772
H       -2.12854284      -0.30453676       0.56918040
H       -1.60780787      -0.43219857      -1.12264954
H       -0.94280708       1.90674509       0.12025007
H        1.57424686       1.65807572       0.20961509
11
Frame=3 idx=004398 GeodesicLength=0.19449236108987253 rxn_smarts="[O:1]=[C:2]1[N:3]([H:7])[C:4]([H:8])([H:9])[C:5]([H:10])=[C:6]1[H:11]>>[O:1]1[C:2](/[C:6](=[C:5](\[C:4]([H:7])([H:8])[H:9])[H:10])[H:11])=[N:3]1"
O        2.57460903      -0.95144594       0.01464547
C        1.40783066      -0.52933224       0.07777242
N        0.63754211      -1.55782268      -0.18082223
C       -1.25534011      -0.28955006      -0.09775017
C       -0.44143510       0.94855799       0.05234698
C        0.87912520       0.84163681       0.11892803
H       -0.69957145      -1.30381822       0.23816164
H       -2.11463975      -0.30430557       0.57813682
H       -1.62002273      -0.42498262      -1.11701375
H       -0.94405024       1.90824569       0.10375133
H        1.57595238       1.66281685       0.21184346
11
Frame=4 idx=004398 GeodesicLength=0.25929928779520783 rxn_smarts="[O:1]=[C:2]1[N:3]([H:7])[C:4]([H:8])([H:9])[C:5]([H:10])=[C:6]1[H:11]>>[O:1]1[C:2](/[C:6](=[C:5](\[C:4]([H:7])([H:8])[H:9])[H:10])[H:11])=[N:3]1"
O        2.56890380      -0.96050545       0.02218133
C        1.40662638      -0.52513080       0.09206863
N        0.63309132      -1.54128202      -0.20142670
C       -1.24729523      -0.29353625      -0.09749986
C       -0.44035719       0.95100427       0.04644354
C        0.88018339       0.84681289       0.12403389
H       -0.70145825      -1.33275567       0.23765728
H       -2.10038955      -0.30469797       0.58687120
H       -1.63177651      -0.41727245      -1.11141770
H       -0.94532464       1.90974839       0.08864347
H        1.57779648       1.66761505       0.21244492
11
Frame=5 idx=004398 GeodesicLength=0.3241078799828594 rxn_smarts="[O:1]=[C:2]1[N:3]([H:7])[C:4]([H:8])([H:9])[C:5]([H:10])=[C:6]1[H:11]>>[O:1]1[C:2](/[C:6](=[C:5](\[C:4]([H:7])([H:8])[H:9])[H:10])[H:11])=[N:3]1"
O        2.56276477      -0.96964481       0.02983203
C        1.40518443      -0.52082575       0.10496346
N        0.62857123      -1.52482239      -0.21910101
C       -1.23922819      -0.29727375      -0.09759650
C       -0.43929476       0.95363411       0.04064399
C        0.88115149       0.85209372       0.12910593
H       -0.70329045      -1.36202187       0.23542612
H       -2.08572891      -0.30555849       0.59552920
H       -1.64323498      -0.40930372      -1.10573592
H       -0.94660523       1.91130665       0.07449193
H        1.57971061       1.67241631       0.21244077
11
Frame=6 idx=004398 GeodesicLength=0.38892321329323853 rxn_smarts="[O:1]=[C:2]1[N:3]([H:7])[C:4]([H:8])([H:9])[C:5]([H:10])=[C:6]1[H:11]>>[O:1]1[C:2](/[C:6](=[C:5](\[C:4]([H:7])([H:8])[H:9])[H:10])[H:11])=[N:3]1"
O        2.55624061      -0.97885976       0.03765686
C        1.40353729      -0.51641307       0.11689852
N        0.62397924      -1.50852639      -0.23421742
C       -1.23115880      -0.30075414      -0.09801076
C       -0.43824577       0.95644892       0.03488731
C        0.88205828       0.85750607       0.13377658
H       -0.70505403      -1.39159543       0.23148054
H       -2.07062172      -0.30685736       0.60419409
H       -1.65451370      -0.40111559      -1.09989912
H       -0.94789922       1.91294011       0.06125732
H        1.58167781       1.67722664       0.21197609
11
Frame=7 idx=004398 GeodesicLength=0.45374390809469456 rxn_smarts="[O:1]=[C:2]1[N:3]([H:7])[C:4]([H:8])([H:9])[C:5]([H:10])=[C:6]1[H:11]>>[O:1]1[C:2](/[C:6](=[C:5](\[C:4]([H:7])([H:8])[H:9])[H:10])[H:11])=[N:3]1"
O        2.54934319      -0.98813811       0.04566075
C        1.40171255      -0.51188734       0.12813045
N        0.61930773      -1.49246455      -0.24702239
C       -1.22310291      -0.30397263      -0.09871570
C       -0.43720803       0.95944842       0.02913024
C        0.88292999       0.86306218       0.13782168
H       -0.70673074      -1.42144580       0.22586646
H       -2.05505387      -0.30856062       0.61290818
H       -1.66567515      -0.39276153      -1.09385528
H       -0.94921024       1.91466659       0.04887281
H        1.58368748       1.68205339       0.21120281
11
Frame=8 idx=004398 GeodesicLength=0.5185706410903682 rxn_smarts="[O:1]=[C:2]1[N:3]([H:7])[C:4]([H:8])([H:9])[C:5]([H:10])=[C:6]1[H:11]>>[O:1]1[C:2](/[C:6](=[C:5](\[C:4]([H:7])([H:8])[H:9])[H:10])[H:11])=[N:3]1"
O        2.54208400      -0.99748083       0.05397290
C        1.39972408      -0.50724624       0.13885726
N        0.61455385      -1.47668182      -0.25774221
C       -1.21507609      -0.30692342      -0.09969341
C       -0.43618781       0.96262775       0.02341061
C        0.88378449       0.86876321       0.14114553
H       -0.70829962      -1.45155813       0.21857192
H       -2.03902815      -0.31067304       0.62167885
H       -1.67675129      -0.38423623      -1.08757701
H       -0.95055178       1.91649615       0.03737725
H        1.58574833       1.68691260       0.20999832
11
Frame=9 idx=004398 GeodesicLength=0.5834017412280669 rxn_smarts="[O:1]=[C:2]1[N:3]([H:7])[C:4]([H:8])([H:9])[C:5]([H:10])=[C:6]1[H:11]>>[O:1]1[C:2](/[C:6](=[C:5](\[C:4]([H:7])([H:8])[H:9])[H:10])[H:11])=[N:3]1"
O        2.53443454      -1.00685690       0.06262314
C        1.39759057      -0.50249175       0.14922656
N        0.60971149      -1.46122219      -0.26651769
C       -1.20709048      -0.30960278      -0.10092847
C       -0.43518735       0.96597859       0.01777097
C        0.88463860       0.87459876       0.14373185
H       -0.70973548      -1.48191102       0.20961886
H       -2.02256868      -0.31318960       0.63048164
H       -1.68773710      -0.37554761      -1.08105381
H       -0.95192794       1.91843598       0.02677666
H        1.58787183       1.69180852       0.20827031
11
Frame=10 idx=004398 GeodesicLength=0.6482392279947894 rxn_smarts="[O:1]=[C:2]1[N:3]([H:7])[C:4]([H:8])([H:9])[C:5]([H:10])=[C:6]1[H:11]>>[O:1]1[C:2](/[C:6](=[C:5](\[C:4]([H:7])([H:8])[H:9])[H:10])[H:11])=[N:3]1"
O        2.52644382      -1.01628864       0.07171569
C        1.39530896      -0.49761639       0.15934846
N        0.60477047      -1.44611097      -0.27348205
C       -1.19916584      -0.31200605      -0.10240766
C       -0.43421951       0.96949851       0.01226184
C        0.88550256       0.88056829       0.14553778
H       -0.71100818      -1.51248271       0.19899789
H       -2.00570155      -0.31611491       0.63929389
H       -1.69864373      -0.36669129      -1.07427407
H       -0.95335545       1.92049479       0.01712484
H        1.59006846       1.69674937       0.20588339
11
Frame=11 idx=004398 GeodesicLength=0.7130800602692396 rxn_smarts="[O:1]=[C:2]1[N:3]([H:7])[C:4]([H:8])([H:9])[C:5]([H:10])=[C:6]1[H:11]>>[O:1]1[C:2](/[C:6](=[C:5](\[C:4]([H:7])([H:8])[H:9])[H:10])[H:11])=[N:3]1"
O        2.51809426      -1.02576712       0.08129223
C        1.39289589      -0.49261319       0.16925324
N        0.59971602      -1.43137803      -0.27873544
C       -1.19131668      -0.31413146      -0.10410925
C       -0.43328908       0.97318218       0.00690417
C        0.88639104       0.88666333       0.14652338
H       -0.71207044      -1.54324443       0.18674375
H       -1.98844913      -0.31943375       0.64810016
H       -1.70947797      -0.35769042      -1.06721652
H       -0.95483648       1.92267981       0.00839567
H        1.59234256       1.70173306       0.20284861
11
Frame=12 idx=004398 GeodesicLength=0.7779230811215664 rxn_smarts="[O:1]=[C:2]1[N:3]([H:7])[C:4]([H:8])([H:9])[C:5]([H:10])=[C:6]1[H:11]>>[O:1]1[C:2](/[C:6](=[C:5](\[C:4]([H:7])([H:8])[H:9])[H:10])[H:11])=[N:3]1"
O        2.50938084      -1.03528396       0.09138186
C        1.39036140      -0.48747827       0.17899052
N        0.59453238      -1.41704449      -0.28235342
C       -1.18355924      -0.31597688      -0.10601467
C       -0.43240335       0.97702318       0.00174437
C        0.88731331       0.89287158       0.14669610
H       -0.71287212      -1.57417165       0.17287788
H       -1.97085121      -0.32313670       0.65686550
H       -1.72023120      -0.34855395      -1.05987430
H       -0.95637258       1.92499638       0.00058643
H        1.59470176       1.70675475       0.19909973
11
Frame=13 idx=004398 GeodesicLength=0.8427661296823562 rxn_smarts="[O:1]=[C:2]1[N:3]([H:7])[C:4]([H:8])([H:9])[C:5]([H:10])=[C:6]1[H:11]>>[O:1]1[C:2](/[C:6](=[C:5](\[C:4]([H:7])([H:8])[H:9])[H:10])[H:11])=[N:3]1"
O        2.50030873      -1.04482179       0.10189947
C        1.38772225      -0.48220799       0.18854581
N        0.58918948      -1.40314325      -0.28437925
C       -1.17591264      -0.31754205      -0.10809282
C       -0.43156315       0.98101571      -0.00324586
C        0.88828271       0.89917793       0.14599009
H       -0.71335256      -1.60522914       0.15748885
H       -1.95293806      -0.32716836       0.66558245
H       -1.73091783      -0.33933993      -1.05221740
H       -0.95795048       1.92745249      -0.00643095
H        1.59713156       1.71180638       0.19485962
11
Frame=14 idx=004398 GeodesicLength=0.9076085884610702 rxn_smarts="[O:1]=[C:2]1[N:3]([H:7])[C:4]([H:8])([H:9])[C:5]([H:10])=[C:6]1[H:11]>>[O:1]1[C:2](/[C:6](=[C:5](\[C:4]([H:7])([H:8])[H:9])[H:10])[H:11])=[N:3]1"
O        2.49087673      -1.05437412       0.11287017
C        1.38498512      -0.47680032       0.19794953
N        0.58366675      -1.38968523      -0.28486815
C       -1.16839528      -0.31882512      -0.11032115
C       -0.43077549       0.98515253      -0.00802072
C        0.88930505       0.90556491       0.14441487
H       -0.71344517      -1.63639880       0.14059168
H       -1.93475871      -0.33151116       0.67421658
H       -1.74152946      -0.33005458      -1.04424074
H       -0.95956560       1.93005157      -0.01266174
H        1.59963607       1.71688033       0.19006965
11
Frame=15 idx=004398 GeodesicLength=0.9724504894275755 rxn_smarts="[O:1]=[C:2]1[N:3]([H:7])[C:4]([H:8])([H:9])[C:5]([H:10])=[C:6]1[H:11]>>[O:1]1[C:2](/[C:6](=[C:5](\[C:4]([H:7])([H:8])[H:9])[H:10])[H:11])=[N:3]1"
O        2.48107504      -1.06393987       0.12438730
C        1.38215137      -0.47125319       0.20725624
N        0.57794937      -1.37666648      -0.28387241
C       -1.16102480      -0.31982340      -0.11268145
C       -0.43005202       0.98942661      -0.01248483
C        0.89037999       0.91201449       0.14202864
H       -0.71307358      -1.66767134       0.12214913
H       -1.91637823      -0.33617158       0.68271543
H       -1.75204071      -0.32067305      -1.03595638
H       -0.96121943       1.93279523      -0.01803226
H        1.60223300       1.72196258       0.18449059
11
Frame=16 idx=004398 GeodesicLength=1.0372911924267778 rxn_smarts="[O:1]=[C:2]1[N:3]([H:7])[C:4]([H:8])([H:9])[C:5]([H:10])=[C:6]1[H:11]>>[O:1]1[C:2](/[C:6](=[C:5](\[C:4]([H:7])([H:8])[H:9])[H:10])[H:11])=[N:3]1"
O        2.47089133      -1.07351714       0.13654026
C        1.37922048      -0.46556507       0.21650788
N        0.57201975      -1.36408021      -0.28143321
C       -1.15381947      -0.32053404      -0.11515066
C       -0.42940371       0.99383243      -0.01655175
C        0.89150567       0.91850796       0.13887875
H       -0.71214656      -1.69903533       0.10211633
H       -1.89786567      -0.34114808       0.69103361
H       -1.76242957      -0.31117834      -1.02737308
H       -0.96291099       1.93568660      -0.02247695
H        1.60493873       1.72703122       0.17790880
