14
Frame=0 idx=004653 GeodesicLength=0.0 rxn_smarts="[C:1]1([H:7])([H:8])[O:2][C:3]12[C:4]([H:9])([H:10])[C:5]([H:11])([H:12])[C:6]2([H:13])[H:14]>>[C:1]1([H:7])([H:8])[O+:2]=[C-:3][C:6]([H:13])([H:14])[C:5]([H:11])([H:12])[C:4]1([H:9])[H:10]"
C        1.41863735      -0.21012027       0.61897538
O        1.78097671       1.07542691       0.32926744
C        0.37597999       1.10703767       0.15543345
C       -0.45420344      -0.36847295       0.88846631
C       -1.25493395      -0.17536448      -0.41564122
C       -0.20085768       0.64278193      -1.17743633
H        1.69388109      -0.52158304       1.62256061
H        1.59439230      -0.93717831      -0.16956396
H       -0.89105913       0.00093148       1.81139873
H       -0.22486734      -1.43246072       1.02969028
H       -2.14621822       0.41821446      -0.21932353
H       -1.54539457      -1.11269324      -0.88987703
H       -0.59098742       1.47768122      -1.75865609
H        0.44465436       0.03579940      -1.82529403
14
Frame=1 idx=004653 GeodesicLength=0.06013211034330553 rxn_smarts="[C:1]1([H:7])([H:8])[O:2][C:3]12[C:4]([H:9])([H:10])[C:5]([H:11])([H:12])[C:6]2([H:13])[H:14]>>[C:1]1([H:7])([H:8])[O+:2]=[C-:3][C:6]([H:13])([H:14])[C:5]([H:11])([H:12])[C:4]1([H:9])[H:10]"
C        1.42098751      -0.22394692       0.61986682
O        1.78739459       1.06683017       0.33958495
C        0.39258183       1.10661491       0.14246948
C       -0.45555990      -0.36064687       0.89028946
C       -1.25107189      -0.18289510      -0.41822984
C       -0.20778684       0.64889053      -1.17867308
H        1.70245650      -0.53675129       1.62140144
H        1.60963533      -0.94723735      -0.16923386
H       -0.89445077       0.03469484       1.80201424
H       -0.24910970      -1.42482341       1.06009105
H       -2.15688144       0.39204491      -0.23259598
H       -1.51938833      -1.12631054      -0.89368799
H       -0.61036748       1.49453389      -1.73616820
H        0.43156059       0.05900222      -1.84712850
14
Frame=2 idx=004653 GeodesicLength=0.12024751273467185 rxn_smarts="[C:1]1([H:7])([H:8])[O:2][C:3]12[C:4]([H:9])([H:10])[C:5]([H:11])([H:12])[C:6]2([H:13])[H:14]>>[C:1]1([H:7])([H:8])[O+:2]=[C-:3][C:6]([H:13])([H:14])[C:5]([H:11])([H:12])[C:4]1([H:9])[H:10]"
C        1.42314605      -0.23822953       0.62067272
O        1.79384053       1.05770162       0.34994397
C        0.40969686       1.10576365       0.12902588
C       -0.45695645      -0.35249441       0.89211489
C       -1.24694544      -0.19067397      -0.42092438
C       -0.21494119       0.65527232      -1.17979998
H        1.71072071      -0.55242027       1.62014765
H        1.62525849      -0.95763861      -0.16874200
H       -0.89765749       0.06911944       1.79174199
H       -0.27411515      -1.41563067       1.09116456
H       -2.16730372       0.36454433      -0.24626959
H       -1.49208383      -1.14004554      -0.89732331
H       -0.63005291       1.51140959      -1.71248356
H        0.41739355       0.08332204      -1.86926883
14
Frame=3 idx=004653 GeodesicLength=0.18034455821905854 rxn_smarts="[C:1]1([H:7])([H:8])[O:2][C:3]12[C:4]([H:9])([H:10])[C:5]([H:11])([H:12])[C:6]2([H:13])[H:14]>>[C:1]1([H:7])([H:8])[O+:2]=[C-:3][C:6]([H:13])([H:14])[C:5]([H:11])([H:12])[C:4]1([H:9])[H:10]"
C        1.42509490      -0.25297264       0.62140352
O        1.80028036       1.04803432       0.36033250
C        0.42734435       1.10443772       0.11504153
C       -0.45838952      -0.34401234       0.89391633
C       -1.24254949      -0.19869755      -0.42372163
C       -0.22233643       0.66191455      -1.18080820
H        1.71861878      -0.56856817       1.61883053
H        1.64128811      -0.96839708      -0.16803056
H       -0.90064959       0.10417732       1.78050327
H       -0.29986791      -1.40478546       1.12279729
H       -2.17740472       0.33567570      -0.26033579
H       -1.46345168      -1.15383875      -0.90075221
H       -0.65002313       1.52826405      -1.68749268
H        0.40204596       0.10876832      -1.89168390
14
Frame=4 idx=004653 GeodesicLength=0.2404174037525993 rxn_smarts="[C:1]1([H:7])([H:8])[O:2][C:3]12[C:4]([H:9])([H:10])[C:5]([H:11])([H:12])[C:6]2([H:13])[H:14]>>[C:1]1([H:7])([H:8])[O+:2]=[C-:3][C:6]([H:13])([H:14])[C:5]([H:11])([H:12])[C:4]1([H:9])[H:10]"
C        1.42681460      -0.26817734       0.62207356
O        1.80667027       1.03782715       0.37073445
C        0.44553721       1.10258395       0.10044214
C       -0.45985542      -0.33519870       0.89565585
C       -1.23787731      -0.20695834      -0.42661854
C       -0.22999084       0.66880294      -1.18169027
H        1.72609257      -0.58515790       1.61749086
H        1.65774843      -0.97952863      -0.16702299
H       -0.90338913       0.13982549       1.76820412
H       -0.32634726      -1.39219941       1.15485341
H       -2.18707284       0.30541587      -0.27477245
H       -1.43347510      -1.16761067      -0.90394779
H       -0.67025008       1.54502406      -1.66106707
H        0.38539490       0.13535153      -1.91433527
14
Frame=5 idx=004653 GeodesicLength=0.30045924716891315 rxn_smarts="[C:1]1([H:7])([H:8])[O:2][C:3]12[C:4]([H:9])([H:10])[C:5]([H:11])([H:12])[C:6]2([H:13])[H:14]>>[C:1]1([H:7])([H:8])[O+:2]=[C-:3][C:6]([H:13])([H:14])[C:5]([H:11])([H:12])[C:4]1([H:9])[H:10]"
C        1.42829555      -0.28383570       0.62270029
O        1.81295394       1.02709644       0.38114314
C        0.46427897       1.10013776       0.08515266
C       -0.46134759      -0.32607344       0.89729824
C       -1.23293407      -0.21544520      -0.42961226
C       -0.23792030       0.67591804      -1.18243609
H        1.73309474      -0.60213549       1.61617714
H        1.67468298      -0.99104251      -0.16563840
H       -0.90583949       0.17596968       1.75476894
H       -0.35352126      -1.37776982       1.18716272
H       -2.19620027       0.27377326      -0.28954339
H       -1.40218222      -1.18126565      -0.90687831
H       -0.69066974       1.56160937      -1.63312059
H        0.36730875       0.16306326      -1.93717409
14
Frame=6 idx=004653 GeodesicLength=0.36046654221108215 rxn_smarts="[C:1]1([H:7])([H:8])[O:2][C:3]12[C:4]([H:9])([H:10])[C:5]([H:11])([H:12])[C:6]2([H:13])[H:14]>>[C:1]1([H:7])([H:8])[O+:2]=[C-:3][C:6]([H:13])([H:14])[C:5]([H:11])([H:12])[C:4]1([H:9])[H:10]"
C        1.42953419      -0.29992356       0.62330835
O        1.81905128       1.01588644       0.39155455
C        0.48355584       1.09702979       0.06909400
C       -0.46285582      -0.31666897       0.89880180
C       -1.22773547      -0.22414040      -0.43269754
C       -0.24613274       0.68322191      -1.18304916
H        1.73958946      -0.61941564       1.61494899
H        1.69214572      -1.00293299      -0.16377347
H       -0.90794213       0.21250142       1.74014869
H       -0.38133702      -1.36148279       1.21952422
H       -2.20468420       0.24082360      -0.30459606
H       -1.36965881      -1.19469456      -0.90953403
H       -0.71118098       1.57792241      -1.60359044
H        0.34765067       0.19187336      -1.96013990
14
Frame=7 idx=004653 GeodesicLength=0.4204358066787939 rxn_smarts="[C:1]1([H:7])([H:8])[O:2][C:3]12[C:4]([H:9])([H:10])[C:5]([H:11])([H:12])[C:6]2([H:13])[H:14]>>[C:1]1([H:7])([H:8])[O+:2]=[C-:3][C:6]([H:13])([H:14])[C:5]([H:11])([H:12])[C:4]1([H:9])[H:10]"
C        1.43053737      -0.31640683       0.62392477
O        1.82487153       1.00426086       0.40196639
C        0.50334390       1.09318538       0.05218789
C       -0.46436704      -0.30703851       0.90012733
C       -1.22231150      -0.23301801      -0.43586923
C       -0.25463211       0.69067270      -1.18353046
H        1.74555730      -0.63689213       1.61387310
H        1.71020331      -1.01518376      -0.16131905
H       -0.90963732       0.24927838       1.72432987
H       -0.40973081      -1.34335746       1.25172650
H       -2.21243078       0.20667779      -0.31986850
H       -1.33604481      -1.20778390      -0.91191806
H       -0.73165411       1.59388129      -1.57246264
H        0.32629507       0.22172420      -1.98316792
14
Frame=8 idx=004653 GeodesicLength=0.4803631516984256 rxn_smarts="[C:1]1([H:7])([H:8])[O:2][C:3]12[C:4]([H:9])([H:10])[C:5]([H:11])([H:12])[C:6]2([H:13])[H:14]>>[C:1]1([H:7])([H:8])[O+:2]=[C-:3][C:6]([H:13])([H:14])[C:5]([H:11])([H:12])[C:4]1([H:9])[H:10]"
C        1.43132054      -0.33324776       0.62458265
O        1.83031814       0.99228870       0.41236695
C        0.52361526       1.08851576       0.03435119
C       -0.46586640      -0.29724764       0.90123001
C       -1.21669127      -0.24206115      -0.43912683
C       -0.26341789       0.69822285      -1.18388420
H        1.75098977      -0.65443768       1.61302162
H        1.72893108      -1.02777176      -0.15814640
H       -0.91086097       0.28612573       1.70729017
H       -0.43863865      -1.32339906       1.28354107
H       -2.21935671       0.17147181      -0.33528746
H       -1.30151297      -1.22041401      -0.91404406
H       -0.75192690       1.60938882      -1.53971826
H        0.30309696       0.25256540      -2.00617645
14
Frame=9 idx=004653 GeodesicLength=0.5401475012467308 rxn_smarts="[C:1]1([H:7])([H:8])[O:2][C:3]12[C:4]([H:9])([H:10])[C:5]([H:11])([H:12])[C:6]2([H:13])[H:14]>>[C:1]1([H:7])([H:8])[O+:2]=[C-:3][C:6]([H:13])([H:14])[C:5]([H:11])([H:12])[C:4]1([H:9])[H:10]"
C        1.43192173      -0.35040330       0.62532235
O        1.83528524       0.98004897       0.42271524
C        0.54432697       1.08286696       0.01550938
C       -0.46732137      -0.28737158       0.90209369
C       -1.21094650      -0.25122768      -0.44248479
C       -0.27246926       0.70585041      -1.18410177
H        1.75589622      -0.67184574       1.61249569
H        1.74843832      -1.04065197      -0.15405545
H       -0.91155464       0.32282353       1.68919013
H       -0.46785751      -1.30185488       1.31470597
H       -2.22548815       0.13553127      -0.35077999
H       -1.26635229      -1.23247584      -0.91597442
H       -0.77183277       1.62434425      -1.50561043
H        0.27795400       0.28436560      -2.02902561
14
Frame=10 idx=004653 GeodesicLength=0.5998778237502082 rxn_smarts="[C:1]1([H:7])([H:8])[O:2][C:3]12[C:4]([H:9])([H:10])[C:5]([H:11])([H:12])[C:6]2([H:13])[H:14]>>[C:1]1([H:7])([H:8])[O+:2]=[C-:3][C:6]([H:13])([H:14])[C:5]([H:11])([H:12])[C:4]1([H:9])[H:10]"
C        1.43236139      -0.36781460       0.62616791
O        1.83963669       0.96765407       0.43300812
C        0.56544686       1.07620344      -0.00442066
C       -0.46872558      -0.27749693       0.90265268
C       -1.20511332      -0.26048338      -0.44592507
C       -0.28178036       0.71347167      -1.18421028
H        1.76030170      -0.68901972       1.61233870
H        1.76878043      -1.05377083      -0.14897325
H       -0.91162914       0.35922366       1.66993549
H       -0.49742032      -1.27870030       1.34504208
H       -2.23073767       0.09892580      -0.36626932
H       -1.23075259      -1.24386705      -0.91773521
H       -0.79115358       1.63869380      -1.46995367
H        0.25078548       0.31698035      -2.05165753
14
Frame=11 idx=004653 GeodesicLength=0.6595363440600487 rxn_smarts="[C:1]1([H:7])([H:8])[O:2][C:3]12[C:4]([H:9])([H:10])[C:5]([H:11])([H:12])[C:6]2([H:13])[H:14]>>[C:1]1([H:7])([H:8])[O+:2]=[C-:3][C:6]([H:13])([H:14])[C:5]([H:11])([H:12])[C:4]1([H:9])[H:10]"
C        1.43267539      -0.38541849       0.62716071
O        1.84323492       0.95521441       0.44318284
C        0.58692025       1.06841613      -0.02552096
C       -0.47006035      -0.26773376       0.90285759
C       -1.19925432      -0.26977987      -0.44944752
C       -0.29133310       0.72102962      -1.18421424
H        1.76424533      -0.70575233       1.61264141
H        1.79004412      -1.06707733      -0.14272793
H       -0.91100194       0.39511234       1.64957124
H       -0.52722794      -1.25410612       1.37430118
H       -2.23508304       0.06190743      -0.38166315
H       -1.19501637      -1.25447436      -0.91939925
H       -0.80967111       1.65236926      -1.43278839
H        0.22152816       0.35029306      -2.07395354
14
Frame=12 idx=004653 GeodesicLength=0.7190999519846627 rxn_smarts="[C:1]1([H:7])([H:8])[O:2][C:3]12[C:4]([H:9])([H:10])[C:5]([H:11])([H:12])[C:6]2([H:13])[H:14]>>[C:1]1([H:7])([H:8])[O+:2]=[C-:3][C:6]([H:13])([H:14])[C:5]([H:11])([H:12])[C:4]1([H:9])[H:10]"
C        1.43290943      -0.40314804       0.62833783
O        1.84594538       0.94284947       0.45314873
C        0.60868116       1.05939928      -0.04785057
C       -0.47130497      -0.25820178       0.90266787
C       -1.19344417      -0.27907036      -0.45305776
C       -0.30109644       0.72847149      -1.18412281
H        1.76779533      -0.72182981       1.61348384
H        1.81230399      -1.08051351      -0.13515560
H       -0.90959969       0.43025799       1.62819700
H       -0.55719114      -1.22826144       1.40227288
H       -2.23854228       0.02475112      -0.39688415
H       -1.15947078      -1.26422036      -0.92105772
H       -0.82714343       1.66530543      -1.39420554
H        0.19015761       0.38421052      -2.09577399
14
Frame=13 idx=004653 GeodesicLength=0.7785925640498786 rxn_smarts="[C:1]1([H:7])([H:8])[O:2][C:3]12[C:4]([H:9])([H:10])[C:5]([H:11])([H:12])[C:6]2([H:13])[H:14]>>[C:1]1([H:7])([H:8])[O+:2]=[C-:3][C:6]([H:13])([H:14])[C:5]([H:11])([H:12])[C:4]1([H:9])[H:10]"
C        1.43310766      -0.42094006       0.62974595
O        1.84761387       0.93067817       0.46275713
C        0.63065975       1.04899214      -0.07150934
C       -0.47245012      -0.24903560       0.90202300
C       -1.18775553      -0.28830942      -0.45676241
C       -0.31103544       0.73574264      -1.18393528
H        1.77101884      -0.73698806       1.61497595
H        1.83563789      -1.09403477      -0.12606098
H       -0.90734914       0.46440681       1.60584966
H       -0.58724973      -1.20132441       1.42874769
H       -2.24109614      -0.01228428      -0.41183555
H       -1.12442764      -1.27302714      -0.92281446
H       -0.84325864       1.67743076      -1.35421363
H        0.15658437       0.41869323      -2.11696775
14
Frame=14 idx=004653 GeodesicLength=0.8379800222495607 rxn_smarts="[C:1]1([H:7])([H:8])[O:2][C:3]12[C:4]([H:9])([H:10])[C:5]([H:11])([H:12])[C:6]2([H:13])[H:14]>>[C:1]1([H:7])([H:8])[O+:2]=[C-:3][C:6]([H:13])([H:14])[C:5]([H:11])([H:12])[C:4]1([H:9])[H:10]"
C        1.43332635      -0.43873721       0.63141288
O        1.84815541       0.91879133       0.47184002
C        0.65278498       1.03713048      -0.09648499
C       -0.47348492      -0.24035956       0.90092172
C       -1.18226554      -0.29745556      -0.46057125
C       -0.32110715       0.74281158      -1.18364660
H        1.77403023      -0.75099885       1.61717784
H        1.86007448      -1.10757195      -0.11530195
H       -0.90421007       0.49734895       1.58271406
H       -0.61731887      -1.17355816       1.45358546
H       -2.24286857      -0.04892496      -0.42647955
H       -1.09021850      -1.28087280      -0.92478857
H       -0.85781672       1.68874218      -1.31301283
H        0.12091888       0.45365453      -2.13736622
14
Frame=15 idx=004653 GeodesicLength=0.8972692526010815 rxn_smarts="[C:1]1([H:7])([H:8])[O:2][C:3]12[C:4]([H:9])([H:10])[C:5]([H:11])([H:12])[C:6]2([H:13])[H:14]>>[C:1]1([H:7])([H:8])[O+:2]=[C-:3][C:6]([H:13])([H:14])[C:5]([H:11])([H:12])[C:4]1([H:9])[H:10]"
C        1.43361664      -0.45648721       0.63337003
O        1.84748830       0.90726740       0.48017330
C        0.67497842       1.02370724      -0.12278941
C       -0.47440684      -0.23230535       0.89935075
C       -1.17704650      -0.30647823      -0.46450210
C       -0.33125905       0.74965029      -1.18324444
H        1.77694062      -0.76360705       1.62015771
H        1.88562843      -1.12107137      -0.10271985
H       -0.90015456       0.52888911       1.55893075
H       -0.64734575      -1.14517964       1.47666916
H       -2.24395214      -0.08493846      -0.44078486
H       -1.05713383      -1.28775330      -0.92710714
H       -0.87057522       1.69923176      -1.27072484
H        0.08322147       0.48907482      -2.15677906
14
Frame=16 idx=004653 GeodesicLength=0.9564741153582155 rxn_smarts="[C:1]1([H:7])([H:8])[O:2][C:3]12[C:4]([H:9])([H:10])[C:5]([H:11])([H:12])[C:6]2([H:13])[H:14]>>[C:1]1([H:7])([H:8])[O+:2]=[C-:3][C:6]([H:13])([H:14])[C:5]([H:11])([H:12])[C:4]1([H:9])[H:10]"
C        1.43402723      -0.47414162       0.63564891
O        1.84556036       0.89616780       0.48749676
C        0.69714951       1.00862891      -0.15041413
C       -0.47522239      -0.22499760       0.89730567
C       -1.17216685      -0.31534831      -0.46857182
C       -0.34143503       0.75623537      -1.18270384
H        1.77986797      -0.77455315       1.62397446
H        1.91228363      -1.13447502      -0.08817141
H       -0.89516987       0.55883451       1.53465467
H       -0.67728452      -1.11641097       1.49790701
H       -2.24445428      -0.12010311      -0.45473517
H       -1.02544539      -1.29367866      -0.92989751
H       -0.88130730       1.70888438      -1.22750148
H        0.04359692       0.52495745      -2.17499212
