12
Frame=0 idx=001918 GeodesicLength=0.0 rxn_smarts="[C:1]([C:2]([C:3]([H:9])([H:10])[H:11])([O:4][H:12])[H:8])([H:5])([H:6])[H:7]>>[C:1]([C:3]([C:2](=[O:4])[H:8])([H:9])[H:11])([H:5])([H:6])[H:7].[H:10][H:12]"
C       -1.04046677      -0.72980599       0.62507535
C       -0.32169856       0.28610659      -0.48776988
C        0.93498069      -0.26382830      -0.05764899
O       -0.51065816       1.53826060      -0.22411589
H       -2.08080556      -0.53289700       0.37722085
H       -0.85088373      -1.79564083       0.51489192
H       -0.84561244      -0.38561788       1.63724873
H       -0.65813462      -0.10988034      -1.46208983
H        1.32309694      -1.20041215      -0.45011677
H        1.70947722       1.33413656      -0.73972044
H        1.33307890       0.08413178       0.88744987
H        1.00762609       1.77544692      -0.62042496
12
Frame=1 idx=001918 GeodesicLength=0.0778499872450431 rxn_smarts="[C:1]([C:2]([C:3]([H:9])([H:10])[H:11])([O:4][H:12])[H:8])([H:5])([H:6])[H:7]>>[C:1]([C:3]([C:2](=[O:4])[H:8])([H:9])[H:11])([H:5])([H:6])[H:7].[H:10][H:12]"
C       -1.03302238      -0.73542982       0.62830352
C       -0.32750427       0.29335224      -0.49736312
C        0.92675764      -0.26626520      -0.05939546
O       -0.50160398       1.55027377      -0.24184310
H       -2.07628499      -0.55567883       0.37788343
H       -0.84155861      -1.80296031       0.53851036
H       -0.85043043      -0.37655715       1.63796625
H       -0.66768653      -0.10349424      -1.46990393
H        1.30867663      -1.20102791      -0.46241135
H        1.72251034       1.32920460      -0.71977487
H        1.32835303       0.07723249       0.88602510
H        1.01179356       1.79135035      -0.61799683
12
Frame=2 idx=001918 GeodesicLength=0.1557109881894375 rxn_smarts="[C:1]([C:2]([C:3]([H:9])([H:10])[H:11])([O:4][H:12])[H:8])([H:5])([H:6])[H:7]>>[C:1]([C:3]([C:2](=[O:4])[H:8])([H:9])[H:11])([H:5])([H:6])[H:7].[H:10][H:12]"
C       -1.02560930      -0.74122964       0.63149910
C       -0.33339527       0.30080766      -0.50663354
C        0.91844126      -0.26859711      -0.06106785
O       -0.49208492       1.56241122      -0.25957315
H       -2.07148045      -0.57889850       0.37825732
H       -0.83194111      -1.81004869       0.56247294
H       -0.85573679      -0.36786102       1.63844327
H       -0.67739890      -0.09667864      -1.47745907
H        1.29413256      -1.20140925      -0.47460881
H        1.73528362       1.32370267      -0.70013607
H        1.32361767       0.07036830       0.88463998
H        1.01617164       1.80743301      -0.61583412
12
Frame=3 idx=001918 GeodesicLength=0.23352191793659605 rxn_smarts="[C:1]([C:2]([C:3]([H:9])([H:10])[H:11])([O:4][H:12])[H:8])([H:5])([H:6])[H:7]>>[C:1]([C:3]([C:2](=[O:4])[H:8])([H:9])[H:11])([H:5])([H:6])[H:7].[H:10][H:12]"
C       -1.01823676      -0.74721808       0.63467506
C       -0.33937088       0.30848033      -0.51556395
C        0.91001704      -0.27080570      -0.06267672
O       -0.48207336       1.57463824      -0.27732668
H       -2.06637300      -0.60262584       0.37832667
H       -0.82202481      -1.81686892       0.58682382
H       -0.86157912      -0.35953246       1.63866430
H       -0.68727258      -0.08942700      -1.48471740
H        1.27943134      -1.20151367      -0.48673237
H        1.74783814       1.31761614      -0.68083684
H        1.31885172       0.06354389       0.88326837
H        1.02079227       1.82371305      -0.61390424
12
Frame=4 idx=001918 GeodesicLength=0.3114044658763969 rxn_smarts="[C:1]([C:2]([C:3]([H:9])([H:10])[H:11])([O:4][H:12])[H:8])([H:5])([H:6])[H:7]>>[C:1]([C:3]([C:2](=[O:4])[H:8])([H:9])[H:11])([H:5])([H:6])[H:7].[H:10][H:12]"
C       -1.01090030      -0.75340504       0.63784242
C       -0.34545166       0.31639032      -0.52415861
C        0.90149167      -0.27290570      -0.06420643
O       -0.47158922       1.58699274      -0.29512480
H       -2.06095687      -0.62685073       0.37807825
H       -0.81180273      -1.82344135       0.61153808
H       -0.86794889      -0.35158051       1.63866343
H       -0.69733938      -0.08174472      -1.49170818
H        1.26458518      -1.20139379      -0.49876642
H        1.76020185       1.31093276      -0.66189337
H        1.31407050       0.05675912       0.88195473
H        1.02563984       1.84024691      -0.61221910
12
Frame=5 idx=001918 GeodesicLength=0.38923091124313364 rxn_smarts="[C:1]([C:2]([C:3]([H:9])([H:10])[H:11])([O:4][H:12])[H:8])([H:5])([H:6])[H:7]>>[C:1]([C:3]([C:2](=[O:4])[H:8])([H:9])[H:11])([H:5])([H:6])[H:7].[H:10][H:12]"
C       -1.00360246      -0.75979741       0.64100562
C       -0.35163419       0.32453923      -0.53238467
C        0.89284877      -0.27486702      -0.06565411
O       -0.46060319       1.59941319      -0.31296902
H       -2.05520123      -0.65160080       0.37752412
H       -0.80129519      -1.82971810       0.63658868
H       -0.87486989      -0.34404629       1.63840696
H       -0.70758795      -0.07363008      -1.49835828
H        1.24956933      -1.20098209      -0.51069702
H        1.77241426       1.30362901      -0.64329897
H        1.30924247       0.05003567       0.88066745
H        1.03071928       1.85702469      -0.61083076
12
Frame=6 idx=001918 GeodesicLength=0.46707991095813817 rxn_smarts="[C:1]([C:2]([C:3]([H:9])([H:10])[H:11])([O:4][H:12])[H:8])([H:5])([H:6])[H:7]>>[C:1]([C:3]([C:2](=[O:4])[H:8])([H:9])[H:11])([H:5])([H:6])[H:7].[H:10][H:12]"
C       -0.99634016      -0.76639786       0.64417733
C       -0.35793314       0.33294164      -0.54024804
C        0.88409023      -0.27670232      -0.06702126
O       -0.44913344       1.61191125      -0.33090639
H       -2.04908649      -0.67690264       0.37663512
H       -0.79048031      -1.83568857       0.66200189
H       -0.88235748      -0.33690776       1.63790565
H       -0.71804601      -0.06508866      -1.50468307
H        1.23437919      -1.20031736      -0.52253045
H        1.78449662       1.29567696      -0.62511296
H        1.30437757       0.04336441       0.87942098
H        1.03603343       1.87411092      -0.60963880
12
Frame=7 idx=001918 GeodesicLength=0.5449213937530987 rxn_smarts="[C:1]([C:2]([C:3]([H:9])([H:10])[H:11])([O:4][H:12])[H:8])([H:5])([H:6])[H:7]>>[C:1]([C:3]([C:2](=[O:4])[H:8])([H:9])[H:11])([H:5])([H:6])[H:7].[H:10][H:12]"
C       -0.98911512      -0.77321896       0.64736716
C       -0.36434611       0.34160589      -0.54772720
C        0.87520818      -0.27839665      -0.06828401
O       -0.43716146       1.62446245      -0.34894669
H       -2.04258509      -0.70274514       0.37542290
H       -0.77939903      -1.84134426       0.68771327
H       -0.89041532      -0.33022479       1.63716039
H       -0.72870540      -0.05613012      -1.51064770
H        1.21900981      -1.19938089      -0.53422345
H        1.79647229       1.28705214      -0.60739328
H        1.29946123       0.03677780       0.87822753
H        1.04157601       1.89154254      -0.60866891
12
Frame=8 idx=001918 GeodesicLength=0.6227787082992906 rxn_smarts="[C:1]([C:2]([C:3]([H:9])([H:10])[H:11])([O:4][H:12])[H:8])([H:5])([H:6])[H:7]>>[C:1]([C:3]([C:2](=[O:4])[H:8])([H:9])[H:11])([H:5])([H:6])[H:7].[H:10][H:12]"
C       -0.98192670      -0.78026288       0.65058618
C       -0.37088115       0.35054232      -0.55481312
C        0.86620411      -0.27994745      -0.06943050
O       -0.42469472       1.63705223      -0.36711237
H       -2.03567942      -0.72911911       0.37388940
H       -0.76806437      -1.84667710       0.71368345
H       -0.89904781      -0.32402164       1.63618407
H       -0.73957797      -0.04676356      -1.51624067
H        1.20346857      -1.19817683      -0.54576222
H        1.80837721       1.27772577      -0.59015070
H        1.29449286       0.03028638       0.87710293
H        1.04732939       1.90936188      -0.60793647
12
Frame=9 idx=001918 GeodesicLength=0.700639913640993 rxn_smarts="[C:1]([C:2]([C:3]([H:9])([H:10])[H:11])([O:4][H:12])[H:8])([H:5])([H:6])[H:7]>>[C:1]([C:3]([C:2](=[O:4])[H:8])([H:9])[H:11])([H:5])([H:6])[H:7].[H:10][H:12]"
C       -0.97477372      -0.78753168       0.65384519
C       -0.37753934       0.35975821      -0.56149286
C        0.85707348      -0.28134772      -0.07044959
O       -0.41172772       1.64965205      -0.38543142
H       -2.02834122      -0.75602416       0.37203558
H       -0.75649783      -1.85167255       0.73987912
H       -0.90826283      -0.31832517       1.63497586
H       -0.75066847      -0.03700035      -1.52143472
H        1.18774978      -1.19669629      -0.55713037
H        1.82024213       1.26766678      -0.57341371
H        1.28946461       0.02390441       0.87605176
H        1.05328111       1.92761646      -0.60743483
12
Frame=10 idx=001918 GeodesicLength=0.7785042763662562 rxn_smarts="[C:1]([C:2]([C:3]([H:9])([H:10])[H:11])([O:4][H:12])[H:8])([H:5])([H:6])[H:7]>>[C:1]([C:3]([C:2](=[O:4])[H:8])([H:9])[H:11])([H:5])([H:6])[H:7].[H:10][H:12]"
C       -0.96765494      -0.79502592       0.65715527
C       -0.38432123       0.36926185      -0.56775454
C        0.84781366      -0.28259187      -0.07132735
O       -0.39825646       1.66223438      -0.40393339
H       -2.02054273      -0.78345363       0.36986164
H       -0.74472341      -1.85632149       0.76626132
H       -0.91806722      -0.31316456       1.63353974
H       -0.76198306      -0.02685243      -1.52620564
H        1.17185242      -1.19493479      -0.56830827
H        1.83209826       1.25683764      -0.55721760
H        1.28437086       0.01764845       0.87508361
H        1.05941383       1.94636237      -0.60715482
12
Frame=11 idx=001918 GeodesicLength=0.8563722187003597 rxn_smarts="[C:1]([C:2]([C:3]([H:9])([H:10])[H:11])([O:4][H:12])[H:8])([H:5])([H:6])[H:7]>>[C:1]([C:3]([C:2](=[O:4])[H:8])([H:9])[H:11])([H:5])([H:6])[H:7].[H:10][H:12]"
C       -0.96056869      -0.80274372       0.66052769
C       -0.39122578       0.37906087      -0.57358795
C        0.83842294      -0.28367564      -0.07205010
O       -0.38427740       1.67476821      -0.42265143
H       -2.01225524      -0.81139661       0.36736839
H       -0.73276737      -1.86061683       0.79279063
H       -0.92846626      -0.30856734       1.63188010
H       -0.77352818      -0.01633389      -1.53052993
H        1.15577641      -1.19288958      -0.57927722
H        1.84397775       1.24519697      -0.54159614
H        1.27920730       0.01153410       0.87420833
H        1.06570452       1.96566346      -0.60708238
12
Frame=12 idx=001918 GeodesicLength=0.9342445024744945 rxn_smarts="[C:1]([C:2]([C:3]([H:9])([H:10])[H:11])([O:4][H:12])[H:8])([H:5])([H:6])[H:7]>>[C:1]([C:3]([C:2](=[O:4])[H:8])([H:9])[H:11])([H:5])([H:6])[H:7].[H:10][H:12]"
C       -0.95351297      -0.81068038       0.66397375
C       -0.39824976       0.38916180      -0.57898548
C        0.82890046      -0.28459635      -0.07260478
O       -0.36978717       1.68721833      -0.44162442
H       -2.00344897      -0.83983801       0.36455737
H       -0.72065810      -1.86455278       0.81942831
H       -0.93946349      -0.30455832       1.63000070
H       -0.78531004      -0.00546188      -1.53438501
H        1.13952215      -1.19056033      -0.59001891
H        1.85591289       1.23269759      -0.52658687
H        1.27397104       0.00557640       0.87343504
H        1.07212395       1.98559393      -0.60718970
12
Frame=13 idx=001918 GeodesicLength=1.0121218477857319 rxn_smarts="[C:1]([C:2]([C:3]([H:9])([H:10])[H:11])([O:4][H:12])[H:8])([H:5])([H:6])[H:7]>>[C:1]([C:3]([C:2](=[O:4])[H:8])([H:9])[H:11])([H:5])([H:6])[H:7].[H:10][H:12]"
C       -0.94648543      -0.81882876       0.66750434
C       -0.40538698       0.39956980      -0.58394206
C        0.81924644      -0.28535245      -0.07297853
O       -0.35478165       1.69954429      -0.46089541
H       -1.99409406      -0.86875461       0.36143338
H       -0.70842866      -1.86812667       0.84613300
H       -0.95105809      -0.30116250       1.62790556
H       -0.79733319       0.00574359      -1.53774921
H        1.12309124      -1.18794845      -0.60051374
H        1.86793692       1.21928724      -0.51222651
H        1.26865991      -0.00020968       0.87277240
H        1.07863356       2.00623820      -0.60744322
12
Frame=14 idx=001918 GeodesicLength=1.0900049751346375 rxn_smarts="[C:1]([C:2]([C:3]([H:9])([H:10])[H:11])([O:4][H:12])[H:8])([H:5])([H:6])[H:7]>>[C:1]([C:3]([C:2](=[O:4])[H:8])([H:9])[H:11])([H:5])([H:6])[H:7].[H:10][H:12]"
C       -0.93948340      -0.82717832       0.67113015
C       -0.41262823       0.41028836      -0.58845667
C        0.80946233      -0.28594478      -0.07316020
O       -0.33925567       1.71170017      -0.48051474
H       -1.98415998      -0.89811888       0.35800175
H       -0.69611365      -1.87133627       0.87286727
H       -0.96324753      -0.29839975       1.62559702
H       -0.80960147       0.01725889      -1.54060290
H        1.10648532      -1.18505937      -0.61074272
H        1.88008328       1.20490512      -0.49855949
H        1.26327400      -0.00581007       0.87222683
H        1.08518501       2.02769489      -0.60778629
12
Frame=15 idx=001918 GeodesicLength=1.1678951939518605 rxn_smarts="[C:1]([C:2]([C:3]([H:9])([H:10])[H:11])([O:4][H:12])[H:8])([H:5])([H:6])[H:7]>>[C:1]([C:3]([C:2](=[O:4])[H:8])([H:9])[H:11])([H:5])([H:6])[H:7].[H:10][H:12]"
C       -0.93250350      -0.83571442       0.67486164
C       -0.41996056       0.42131833      -0.59253460
C        0.79955104      -0.28637754      -0.07314202
O       -0.32320229       1.72363323      -0.50054403
H       -1.97361562      -0.92789803       0.35426973
H       -0.68374892      -1.87417849       0.89959998
H       -0.97602612      -0.29628199       1.62307452
H       -0.82211817       0.02905503      -1.54292999
H        1.08970532      -1.18190446      -0.62068795
H        1.89238591       1.18948059      -0.48563964
H        1.25781637      -0.01121231       0.87180051
H        1.09171653       2.05008005      -0.60812815
12
Frame=16 idx=001918 GeodesicLength=1.2457938655245875 rxn_smarts="[C:1]([C:2]([C:3]([H:9])([H:10])[H:11])([O:4][H:12])[H:8])([H:5])([H:6])[H:7]>>[C:1]([C:3]([C:2](=[O:4])[H:8])([H:9])[H:11])([H:5])([H:6])[H:7].[H:10][H:12]"
C       -0.92554140      -0.84441770       0.67870904
C       -0.42736655       0.43265717      -0.59618896
C        0.78951724      -0.28665901      -0.07292098
O       -0.30661071       1.73528237      -0.52105846
H       -1.96242944      -0.95805304       0.35024788
H       -0.67137180      -1.87664796       0.92630788
H       -0.98938419      -0.29481162       1.62033379
H       -0.83488563       0.04109687      -1.54471886
H        1.07275087      -1.17850246      -0.63033304
H        1.90487959       1.17293205      -0.47353028
H        1.25229369      -0.01640633       0.87148965
H        1.09814832       2.07352965      -0.60833767
