11
Frame=0 idx=009519 GeodesicLength=0.0 rxn_smarts="[C:1](#[C:2][C:3]#[C:4][C@@:5]1([H:9])[C:6]([H:10])([H:11])[O:7]1)[H:8]>>[C:1](#[C:2][C:3]#[C:4][C:5](=[O+:7][C-:6]([H:10])[H:11])[H:9])[H:8]"
C        3.61029425      -0.58445892       0.06575416
C        2.46753042      -0.21148238       0.12402330
C        1.16905087       0.21063076       0.18654622
C        0.00549564       0.55705672       0.23987450
C       -1.28093089       1.07089162       0.33205605
C       -2.24523310      -0.61393352      -0.38517376
O       -2.35678024       0.27424864       0.59025607
H        4.62090070      -0.91357659       0.01677317
H       -1.48372650       2.13288823       0.35626580
H       -2.37731326      -1.65755910      -0.12792046
H       -2.12928791      -0.26470543      -1.39845509
11
Frame=1 idx=009519 GeodesicLength=0.029331376842870745 rxn_smarts="[C:1](#[C:2][C:3]#[C:4][C@@:5]1([H:9])[C:6]([H:10])([H:11])[O:7]1)[H:8]>>[C:1](#[C:2][C:3]#[C:4][C:5](=[O+:7][C-:6]([H:10])[H:11])[H:9])[H:8]"
C        3.61425676      -0.57757483       0.06507004
C        2.47392774      -0.19568718       0.10931999
C        1.16668473       0.19632156       0.19427115
C        0.00604245       0.54576516       0.27397358
C       -1.28254939       1.06275470       0.32903961
C       -2.24502237      -0.60419322      -0.38527785
O       -2.36432685       0.27743317       0.59603243
H        4.62205003      -0.91489675       0.01266482
H       -1.48117643       2.12577011       0.33835924
H       -2.39053403      -1.64676904      -0.13110610
H       -2.11935262      -0.26892370      -1.40234691
11
Frame=2 idx=009519 GeodesicLength=0.059088648360412416 rxn_smarts="[C:1](#[C:2][C:3]#[C:4][C@@:5]1([H:9])[C:6]([H:10])([H:11])[O:7]1)[H:8]>>[C:1](#[C:2][C:3]#[C:4][C:5](=[O+:7][C-:6]([H:10])[H:11])[H:9])[H:8]"
C        3.61247095      -0.56891489       0.04433208
C        2.46697422      -0.20282822       0.08685569
C        1.16458440       0.19253478       0.22222339
C        0.00599303       0.54359387       0.31746592
C       -1.28605089       1.05836266       0.32711081
C       -2.23631142      -0.59598310      -0.38636568
O       -2.37290884       0.28148773       0.59730922
H        4.61818166      -0.91525802       0.01367472
H       -1.48408665       2.12149262       0.31789905
H       -2.39346846      -1.63717120      -0.13348748
H       -2.09537800      -0.27731623      -1.40701770
11
Frame=3 idx=009519 GeodesicLength=0.0881328895086216 rxn_smarts="[C:1](#[C:2][C:3]#[C:4][C@@:5]1([H:9])[C:6]([H:10])([H:11])[O:7]1)[H:8]>>[C:1](#[C:2][C:3]#[C:4][C:5](=[O+:7][C-:6]([H:10])[H:11])[H:9])[H:8]"
C        3.61224471      -0.56454782       0.03467220
C        2.46817839      -0.19539563       0.08546305
C        1.16287805       0.18343949       0.24024064
C        0.00662529       0.53780267       0.34679518
C       -1.28714905       1.05149046       0.32269296
C       -2.23309439      -0.58716890      -0.38705849
O       -2.37851440       0.28432428       0.60158397
H        4.61677278      -0.91422804       0.00412751
H       -1.48279517       2.11485877       0.29944940
H       -2.40160328      -1.62718247      -0.13668245
H       -2.08354294      -0.28339280      -1.41128397
11
Frame=4 idx=009519 GeodesicLength=0.11705869088574349 rxn_smarts="[C:1](#[C:2][C:3]#[C:4][C@@:5]1([H:9])[C:6]([H:10])([H:11])[O:7]1)[H:8]>>[C:1](#[C:2][C:3]#[C:4][C:5](=[O+:7][C-:6]([H:10])[H:11])[H:9])[H:8]"
C        3.61225453      -0.56193060       0.02793527
C        2.46993338      -0.18826653       0.08289604
C        1.16252880       0.17843422       0.25231393
C        0.00790063       0.53397240       0.36793572
C       -1.28799192       1.04427638       0.31814550
C       -2.23080870      -0.57856262      -0.38712797
O       -2.38156041       0.28485144       0.60873509
H        4.61582451      -0.91457021      -0.00035045
H       -1.48276642       2.10755128       0.28480354
H       -2.40769065      -1.61807498      -0.14045418
H       -2.07762376      -0.28768076      -1.41483249
11
Frame=5 idx=009519 GeodesicLength=0.1459118459016011 rxn_smarts="[C:1](#[C:2][C:3]#[C:4][C@@:5]1([H:9])[C:6]([H:10])([H:11])[O:7]1)[H:8]>>[C:1](#[C:2][C:3]#[C:4][C:5](=[O+:7][C-:6]([H:10])[H:11])[H:9])[H:8]"
C        3.61125859      -0.56143000       0.02148831
C        2.46926402      -0.18775929       0.08005348
C        1.16308349       0.17755029       0.26407498
C        0.00937062       0.53270245       0.38623110
C       -1.28905885       1.03765391       0.31359038
C       -2.22786028      -0.57013420      -0.38714456
O       -2.38354881       0.28455880       0.61642526
H        4.61545875      -0.91258111      -0.00386252
H       -1.48428566       2.10056162       0.27169564
H       -2.41120196      -1.60944172      -0.14430832
H       -2.07247991      -0.29168074      -1.41824375
11
Frame=6 idx=009519 GeodesicLength=0.17472390775644853 rxn_smarts="[C:1](#[C:2][C:3]#[C:4][C@@:5]1([H:9])[C:6]([H:10])([H:11])[O:7]1)[H:8]>>[C:1](#[C:2][C:3]#[C:4][C:5](=[O+:7][C-:6]([H:10])[H:11])[H:9])[H:8]"
C        3.61051696      -0.56084358       0.01613230
C        2.46908586      -0.18642721       0.07813637
C        1.16393475       0.17764313       0.27416735
C        0.01095917       0.53202950       0.40196363
C       -1.29006066       1.03090572       0.30902426
C       -2.22531184      -0.56181977      -0.38711740
O       -2.38488716       0.28370607       0.62457149
H        4.61480777      -0.91197225      -0.00702987
H       -1.48613373       2.09337060       0.25986598
H       -2.41416990      -1.60105953      -0.14816762
H       -2.06874123      -0.29553268      -1.42154650
11
Frame=7 idx=009519 GeodesicLength=0.20350657438253364 rxn_smarts="[C:1](#[C:2][C:3]#[C:4][C@@:5]1([H:9])[C:6]([H:10])([H:11])[O:7]1)[H:8]>>[C:1](#[C:2][C:3]#[C:4][C:5](=[O+:7][C-:6]([H:10])[H:11])[H:9])[H:8]"
C        3.61094714      -0.55793249       0.01222223
C        2.46897559      -0.18594034       0.07652984
C        1.16471097       0.17670622       0.28332584
C        0.01259516       0.53089821       0.41608340
C       -1.29073679       1.02391793       0.30442732
C       -2.22359776      -0.55330983      -0.38708700
O       -2.38599308       0.28302869       0.63277330
H        4.61439380      -0.91159715      -0.01037083
H       -1.48729361       2.08599825       0.24871443
H       -2.41795289      -1.59240728      -0.15184021
H       -2.06604853      -0.29936221      -1.42477832
11
Frame=8 idx=009519 GeodesicLength=0.23227869612939264 rxn_smarts="[C:1](#[C:2][C:3]#[C:4][C@@:5]1([H:9])[C:6]([H:10])([H:11])[O:7]1)[H:8]>>[C:1](#[C:2][C:3]#[C:4][C:5](=[O+:7][C-:6]([H:10])[H:11])[H:9])[H:8]"
C        3.61039941      -0.55716166       0.00644171
C        2.46798347      -0.18769166       0.07522720
C        1.16548179       0.17566076       0.29397834
C        0.01414234       0.52995159       0.43008122
C       -1.29124883       1.01708518       0.29989315
C       -2.22193680      -0.54464509      -0.38721649
O       -2.38716398       0.28282092       0.64043164
H        4.61501216      -0.90778601      -0.01317333
H       -1.48808370       2.07878468       0.23767662
H       -2.42181827      -1.58347508      -0.15529538
H       -2.06276758      -0.30354363      -1.42804467
11
Frame=9 idx=009519 GeodesicLength=0.26104932619295995 rxn_smarts="[C:1](#[C:2][C:3]#[C:4][C@@:5]1([H:9])[C:6]([H:10])([H:11])[O:7]1)[H:8]>>[C:1](#[C:2][C:3]#[C:4][C:5](=[O+:7][C-:6]([H:10])[H:11])[H:9])[H:8]"
C        3.61111566      -0.55204911       0.00262980
C        2.46948820      -0.18230164       0.08011724
C        1.16577986       0.17286370       0.30722473
C        0.01522210       0.52809125       0.44456811
C       -1.29166515       1.00982360       0.29488578
C       -2.22060423      -0.53634699      -0.38789208
O       -2.38902787       0.28315086       0.64665281
H        4.61283591      -0.91066795      -0.02341855
H       -1.48805631       2.07119742       0.22551111
H       -2.42670135      -1.57457792      -0.15856195
H       -2.05838684      -0.30918322      -1.43171699
11
Frame=10 idx=009519 GeodesicLength=0.28984100759053 rxn_smarts="[C:1](#[C:2][C:3]#[C:4][C@@:5]1([H:9])[C:6]([H:10])([H:11])[O:7]1)[H:8]>>[C:1](#[C:2][C:3]#[C:4][C:5](=[O+:7][C-:6]([H:10])[H:11])[H:9])[H:8]"
C        3.60888354      -0.55001212      -0.00190971
C        2.47047695      -0.17426840       0.09041266
C        1.16623628       0.17413094       0.32696352
C        0.01560588       0.52899053       0.46179914
C       -1.29281086       1.00337972       0.28975495
C       -2.21676103      -0.52907013      -0.38945590
O       -2.39160237       0.28342977       0.65060150
H        4.60714113      -0.91699936      -0.04217702
H       -1.48982481       2.06408672       0.21188331
H       -2.42823099      -1.56666384      -0.16192948
H       -2.04911373      -0.31700383      -1.43594297
11
Frame=11 idx=009519 GeodesicLength=0.31866198702061477 rxn_smarts="[C:1](#[C:2][C:3]#[C:4][C@@:5]1([H:9])[C:6]([H:10])([H:11])[O:7]1)[H:8]>>[C:1](#[C:2][C:3]#[C:4][C:5](=[O+:7][C-:6]([H:10])[H:11])[H:9])[H:8]"
C        3.60632725      -0.54590894      -0.00814851
C        2.47176669      -0.16424421       0.10407068
C        1.16648368       0.17519902       0.35000659
C        0.01561196       0.52992595       0.48028436
C       -1.29375061       0.99690333       0.28453523
C       -2.21237930      -0.52209415      -0.39149623
O       -2.39465967       0.28423421       0.65316772
H        4.59887958      -0.92597156      -0.06429144
H       -1.49098835       2.05688783       0.19738764
H       -2.42961869      -1.55881704      -0.16519526
H       -2.03767255      -0.32611446      -1.44032079
11
Frame=12 idx=009519 GeodesicLength=0.3474250239360268 rxn_smarts="[C:1](#[C:2][C:3]#[C:4][C@@:5]1([H:9])[C:6]([H:10])([H:11])[O:7]1)[H:8]>>[C:1](#[C:2][C:3]#[C:4][C:5](=[O+:7][C-:6]([H:10])[H:11])[H:9])[H:8]"
C        3.60486143      -0.54253122      -0.01306039
C        2.47321718      -0.15705092       0.11423947
C        1.16675817       0.17447294       0.36674256
C        0.01616095       0.52971167       0.49513303
C       -1.29410002       0.98997505       0.27963363
C       -2.20990723      -0.51439960      -0.39295993
O       -2.39674861       0.28486940       0.65741952
H        4.59379038      -0.93035712      -0.07992515
H       -1.49112988       2.04941231       0.18512629
H       -2.43273523      -1.55035141      -0.16829370
H       -2.03016714      -0.33375109      -1.44405533
11
Frame=13 idx=009519 GeodesicLength=0.3761823038788686 rxn_smarts="[C:1](#[C:2][C:3]#[C:4][C@@:5]1([H:9])[C:6]([H:10])([H:11])[O:7]1)[H:8]>>[C:1](#[C:2][C:3]#[C:4][C:5](=[O+:7][C-:6]([H:10])[H:11])[H:9])[H:8]"
C        3.60246787      -0.54128625      -0.01867694
C        2.47405479      -0.15281499       0.12451054
C        1.16710769       0.17419968       0.38219481
C        0.01680958       0.52990671       0.50894875
C       -1.29431655       0.98321101       0.27486844
C       -2.20759874      -0.50653433      -0.39439313
O       -2.39850930       0.28554793       0.66180901
H        4.58992825      -0.93132855      -0.09402430
H       -1.49123802       2.04209121       0.17360214
H       -2.43560929      -1.54175881      -0.17127329
H       -2.02309628      -0.34123361      -1.44756603
11
Frame=14 idx=009519 GeodesicLength=0.40489407305162195 rxn_smarts="[C:1](#[C:2][C:3]#[C:4][C@@:5]1([H:9])[C:6]([H:10])([H:11])[O:7]1)[H:8]>>[C:1](#[C:2][C:3]#[C:4][C:5](=[O+:7][C-:6]([H:10])[H:11])[H:9])[H:8]"
C        3.60181111      -0.53874209      -0.02194458
C        2.47362807      -0.15168667       0.12563947
C        1.16795437       0.17496628       0.39202203
C        0.01803709       0.53045998       0.51973704
C       -1.29457561       0.97632982       0.27098865
C       -2.20613540      -0.49838138      -0.39522145
O       -2.39914073       0.28504612       0.66817607
H        4.58772724      -0.93229215      -0.09966752
H       -1.49212697       2.03469030       0.16508786
H       -2.43816345      -1.53327645      -0.17438593
H       -2.01901574      -0.34711376      -1.45043164
11
Frame=15 idx=009519 GeodesicLength=0.4335966792024331 rxn_smarts="[C:1](#[C:2][C:3]#[C:4][C@@:5]1([H:9])[C:6]([H:10])([H:11])[O:7]1)[H:8]>>[C:1](#[C:2][C:3]#[C:4][C:5](=[O+:7][C-:6]([H:10])[H:11])[H:9])[H:8]"
C        3.60090909      -0.53768341      -0.02611676
C        2.47274544      -0.15183635       0.12374079
C        1.16899937       0.17621474       0.39955777
C        0.01949601       0.53124902       0.52917578
C       -1.29483469       0.96947211       0.26754525
C       -2.20504721      -0.49007116      -0.39584881
O       -2.39929171       0.28412895       0.67521465
H        4.58694414      -0.93161645      -0.10077423
H       -1.49331169       2.02734037       0.15798025
H       -2.44057531      -1.52478093      -0.17748806
H       -2.01603344      -0.35241689      -1.45298663
11
Frame=16 idx=009519 GeodesicLength=0.46229123297528635 rxn_smarts="[C:1](#[C:2][C:3]#[C:4][C@@:5]1([H:9])[C:6]([H:10])([H:11])[O:7]1)[H:8]>>[C:1](#[C:2][C:3]#[C:4][C:5](=[O+:7][C-:6]([H:10])[H:11])[H:9])[H:8]"
C        3.60077934      -0.53548055      -0.02918048
C        2.47228547      -0.15163594       0.12232000
C        1.16994421       0.17653947       0.40631852
C        0.02097779       0.53146794       0.53793350
C       -1.29491912       0.96244507       0.26409811
C       -2.20452907      -0.48164668      -0.39651133
O       -2.39940829       0.28341127       0.68215534
H        4.58627998      -0.93111050      -0.10238076
H       -1.49397234       2.01990279       0.15111890
H       -2.44383461      -1.51605734      -0.18044120
H       -2.01360336      -0.35783553      -1.45543062
