16
Frame=0 idx=005024 GeodesicLength=0.0 rxn_smarts="[C:1]([O:2][C:3]([C@@:4]([C:5]([H:13])([H:14])[H:15])([O:6][H:16])[H:12])([H:10])[H:11])([H:7])([H:8])[H:9]>>[C:1]([O:2][C:3]([C:4][H:12])([H:10])[H:11])([H:7])([H:8])[H:9].[C:5]([O:6][H:16])([H:13])([H:14])[H:15]"
C        2.66584502      -0.69077822      -0.39570188
O        1.50194186      -0.37100163       0.31358193
C        0.62485918       0.48873857      -0.41617864
C       -0.66413473       0.64642345       0.29910720
C       -2.71717397       0.35702953       0.27484492
O       -1.33511249      -0.72902173       0.36921814
H        2.43693382      -1.21376420      -1.33465721
H        3.25215143       0.20656522      -0.63814876
H        3.27180701      -1.34455439       0.23194719
H        0.47374096       0.06843299      -1.42066304
H        1.08423445       1.48136029      -0.53309877
H       -0.47729059       0.93931176       1.33649498
H       -2.79538025       1.24141145       0.89250673
H       -3.38478589      -0.43890322       0.62123430
H       -2.84254854       0.57201491      -0.77451276
H       -1.09508728      -1.21326480       1.17402562
16
Frame=1 idx=005024 GeodesicLength=0.07954060198561345 rxn_smarts="[C:1]([O:2][C:3]([C@@:4]([C:5]([H:13])([H:14])[H:15])([O:6][H:16])[H:12])([H:10])[H:11])([H:7])([H:8])[H:9]>>[C:1]([O:2][C:3]([C:4][H:12])([H:10])[H:11])([H:7])([H:8])[H:9].[C:5]([O:6][H:16])([H:13])([H:14])[H:15]"
C        2.64979962      -0.69823650      -0.40287693
O        1.49639892      -0.36492600       0.31771616
C        0.61244809       0.48976131      -0.41026663
C       -0.66386723       0.65830311       0.32565677
C       -2.69903570       0.35163627       0.25341241
O       -1.31788847      -0.71923812       0.43324672
H        2.40620167      -1.22932718      -1.33347045
H        3.23740823       0.19362659      -0.66124859
H        3.25973764      -1.34909601       0.22389633
H        0.44585491       0.05781046      -1.40738253
H        1.07226046       1.47958368      -0.54598243
H       -0.46565371       0.97599874       1.35311836
H       -2.83888070       1.19091893       0.92177283
H       -3.37838937      -0.47199607       0.49651357
H       -2.79600311       0.63587152      -0.78307495
H       -1.02039123      -1.20069072       1.21896937
16
Frame=2 idx=005024 GeodesicLength=0.15874601234671676 rxn_smarts="[C:1]([O:2][C:3]([C@@:4]([C:5]([H:13])([H:14])[H:15])([O:6][H:16])[H:12])([H:10])[H:11])([H:7])([H:8])[H:9]>>[C:1]([O:2][C:3]([C:4][H:12])([H:10])[H:11])([H:7])([H:8])[H:9].[C:5]([O:6][H:16])([H:13])([H:14])[H:15]"
C        2.63320131      -0.70564759      -0.40931247
O        1.49027825      -0.35907329       0.32211033
C        0.59891014       0.48961399      -0.40436959
C       -0.66370269       0.67049755       0.35260670
C       -2.67989227       0.34694806       0.23247513
O       -1.30298375      -0.70668912       0.49940074
H        2.37533946      -1.24539617      -1.33095490
H        3.22128119       0.18079408      -0.68416185
H        3.24763114      -1.35271621       0.21693583
H        0.41653008       0.04470995      -1.39303513
H        1.05854414       1.47630716      -0.56051533
H       -0.45380403       1.01304192       1.36923937
H       -2.88441035       1.13404875       0.94686011
H       -3.35851313      -0.50138524       0.36866293
H       -2.75284174       0.70330764      -0.78422476
H       -0.94556773      -1.18836151       1.25828290
16
Frame=3 idx=005024 GeodesicLength=0.2379917421626058 rxn_smarts="[C:1]([O:2][C:3]([C@@:4]([C:5]([H:13])([H:14])[H:15])([O:6][H:16])[H:12])([H:10])[H:11])([H:7])([H:8])[H:9]>>[C:1]([O:2][C:3]([C:4][H:12])([H:10])[H:11])([H:7])([H:8])[H:9].[C:5]([O:6][H:16])([H:13])([H:14])[H:15]"
C        2.61558081      -0.71356948      -0.41512228
O        1.48362261      -0.35290326       0.32692645
C        0.58455906       0.48919545      -0.39818735
C       -0.66362896       0.68375131       0.37971969
C       -2.65951245       0.34255123       0.21203069
O       -1.28974090      -0.69082737       0.56780621
H        2.34322303      -1.26240569      -1.32708953
H        3.20393356       0.16699963      -0.70716950
H        3.23455988      -1.35657484       0.21076154
H        0.38626438       0.03063059      -1.37754257
H        1.04369611       1.47229988      -0.57573054
H       -0.44194083       1.05133467       1.38457574
H       -2.93248763       1.07007569       0.96637715
H       -3.32307150      -0.52773820       0.23893747
H       -2.71403831       0.77278687      -0.77765396
H       -0.87101888      -1.17560649       1.29136081
16
Frame=4 idx=005024 GeodesicLength=0.3168006635868032 rxn_smarts="[C:1]([O:2][C:3]([C@@:4]([C:5]([H:13])([H:14])[H:15])([O:6][H:16])[H:12])([H:10])[H:11])([H:7])([H:8])[H:9]>>[C:1]([O:2][C:3]([C:4][H:12])([H:10])[H:11])([H:7])([H:8])[H:9].[C:5]([O:6][H:16])([H:13])([H:14])[H:15]"
C        2.59751106      -0.72153182      -0.42018263
O        1.47624407      -0.34732594       0.33179111
C        0.56937918       0.48792275      -0.39196898
C       -0.66353301       0.69762054       0.40677453
C       -2.63801691       0.33896140       0.19269966
O       -1.27866513      -0.67180182       0.63771667
H        2.31134848      -1.27927677      -1.32239216
H        3.18559369       0.15329202      -0.72908267
H        3.22119874      -1.36019039       0.20542875
H        0.35513576       0.01505483      -1.36116159
H        1.02760695       1.46699168      -0.59181079
H       -0.42958592       1.08989192       1.39901902
H       -2.98160632       1.00093508       0.97873880
H       -3.27275319      -0.54906493       0.11140059
H       -2.68056455       0.84202801      -0.76351346
H       -0.79929291      -1.16350656       1.31654315
16
Frame=5 idx=005024 GeodesicLength=0.3958467424920096 rxn_smarts="[C:1]([O:2][C:3]([C@@:4]([C:5]([H:13])([H:14])[H:15])([O:6][H:16])[H:12])([H:10])[H:11])([H:7])([H:8])[H:9]>>[C:1]([O:2][C:3]([C:4][H:12])([H:10])[H:11])([H:7])([H:8])[H:9].[C:5]([O:6][H:16])([H:13])([H:14])[H:15]"
C        2.57847638      -0.73021845      -0.42458294
O        1.46822079      -0.34159840       0.33681668
C        0.55397321       0.48705844      -0.38555422
C       -0.66342739       0.71294347       0.43310404
C       -2.61530160       0.33545801       0.17484801
O       -1.26864836      -0.64915499       0.70838829
H        2.27844056      -1.29655827      -1.31677885
H        3.16663023       0.13829370      -0.75019915
H        3.20631276      -1.36500483       0.20073668
H        0.32412881       0.00011897      -1.34417231
H        1.01136241       1.46153779      -0.60756878
H       -0.41713611       1.12968191       1.41189122
H       -3.03173413       0.92538524       0.98355405
H       -3.20631006      -0.56635172      -0.01237499
H       -2.65351879       0.90916563      -0.74183645
H       -0.73146870      -1.15075650       1.33372870
16
Frame=6 idx=005024 GeodesicLength=0.47449386767564383 rxn_smarts="[C:1]([O:2][C:3]([C@@:4]([C:5]([H:13])([H:14])[H:15])([O:6][H:16])[H:12])([H:10])[H:11])([H:7])([H:8])[H:9]>>[C:1]([O:2][C:3]([C:4][H:12])([H:10])[H:11])([H:7])([H:8])[H:9].[C:5]([O:6][H:16])([H:13])([H:14])[H:15]"
C        2.55939106      -0.73891031      -0.42807646
O        1.45938245      -0.33674597       0.34158077
C        0.53842995       0.48587526      -0.37947913
C       -0.66316875       0.72897668       0.45820620
C       -2.59187265       0.33261677       0.15940911
O       -1.26001014      -0.62366457       0.77802558
H        2.24661366      -1.31313913      -1.31071373
H        3.14747655       0.12349599      -0.76922023
H        3.19105612      -1.36994029       0.19711296
H        0.29352615      -0.01490480      -1.32720807
H        0.99493114       1.45531620      -0.62349033
H       -0.40407900       1.16922046       1.42296080
H       -3.08035693       0.84618704       0.98066621
H       -3.12754258      -0.57720524      -0.12751518
H       -2.63316631       0.97160491      -0.71389916
H       -0.67061075      -1.13878301       1.34164066
16
Frame=7 idx=005024 GeodesicLength=0.5534647056056681 rxn_smarts="[C:1]([O:2][C:3]([C@@:4]([C:5]([H:13])([H:14])[H:15])([O:6][H:16])[H:12])([H:10])[H:11])([H:7])([H:8])[H:9]>>[C:1]([O:2][C:3]([C:4][H:12])([H:10])[H:11])([H:7])([H:8])[H:9].[C:5]([O:6][H:16])([H:13])([H:14])[H:15]"
C        2.53988046      -0.74827237      -0.43070763
O        1.44999095      -0.33193198       0.34622648
C        0.52343046       0.48564728      -0.37374545
C       -0.66281655       0.74634758       0.48130384
C       -2.56796082       0.32960610       0.14654236
O       -1.25145036      -0.59546821       0.84550351
H        2.21463364      -1.32976281      -1.30397377
H        3.12860970       0.10755645      -0.78662470
H        3.17442152      -1.37629252       0.19456944
H        0.26433596      -0.02796049      -1.31082907
H        0.97949745       1.44965795      -0.63857816
H       -0.39096728       1.20936808       1.43153479
H       -3.12679295       0.76148571       0.97083938
H       -3.03740005      -0.58238771      -0.23349244
H       -2.62041211       1.02854252      -0.68005823
H       -0.61700001      -1.12613558       1.34148965
16
Frame=8 idx=005024 GeodesicLength=0.6321298220479872 rxn_smarts="[C:1]([O:2][C:3]([C@@:4]([C:5]([H:13])([H:14])[H:15])([O:6][H:16])[H:12])([H:10])[H:11])([H:7])([H:8])[H:9]>>[C:1]([O:2][C:3]([C:4][H:12])([H:10])[H:11])([H:7])([H:8])[H:9].[C:5]([O:6][H:16])([H:13])([H:14])[H:15]"
C        2.52092491      -0.75735906      -0.43238293
O        1.43981132      -0.32833464       0.35036566
C        0.50885959       0.48525169      -0.36876535
C       -0.66222981       0.76395140       0.50236721
C       -2.54408031       0.32694043       0.13675811
O       -1.24326616      -0.56575359       0.90951528
H        2.18477876      -1.34536287      -1.29702939
H        3.11017186       0.09231383      -0.80155305
H        3.15802872      -1.38227510       0.19332663
H        0.23650081      -0.04040415      -1.29537459
H        0.96464126       1.44351389      -0.65353653
H       -0.37739988       1.24839153       1.43778589
H       -3.16848690       0.67477207       0.95460395
H       -2.94195166      -0.57984675      -0.32718656
H       -2.61359952       1.07834945      -0.64226413
H       -0.57270299      -1.11414815       1.33336979
16
Frame=9 idx=005024 GeodesicLength=0.7119387231833844 rxn_smarts="[C:1]([O:2][C:3]([C@@:4]([C:5]([H:13])([H:14])[H:15])([O:6][H:16])[H:12])([H:10])[H:11])([H:7])([H:8])[H:9]>>[C:1]([O:2][C:3]([C:4][H:12])([H:10])[H:11])([H:7])([H:8])[H:9].[C:5]([O:6][H:16])([H:13])([H:14])[H:15]"
C        2.50125043      -0.76760495      -0.43337325
O        1.42925458      -0.32423563       0.35434704
C        0.49559893       0.48699608      -0.36419301
C       -0.66168355       0.78309341       0.52069096
C       -2.52007808       0.32321607       0.12927582
O       -1.23362198      -0.53420729       0.96982016
H        2.15392966      -1.36090564      -1.28985054
H        3.09272139       0.07493148      -0.81468987
H        3.13903880      -1.39121681       0.19283810
H        0.21116470      -0.04869917      -1.28139995
H        0.95220809       1.43927633      -0.66644531
H       -0.36465788       1.28841198       1.44101254
H       -3.20516679       0.58126294       0.93257627
H       -2.84051754      -0.57177613      -0.41060366
H       -2.61427838       1.12104408      -0.60053916
H       -0.53516240      -1.09958676       1.32053386
16
Frame=10 idx=005024 GeodesicLength=0.7915880570507187 rxn_smarts="[C:1]([O:2][C:3]([C@@:4]([C:5]([H:13])([H:14])[H:15])([O:6][H:16])[H:12])([H:10])[H:11])([H:7])([H:8])[H:9]>>[C:1]([O:2][C:3]([C:4][H:12])([H:10])[H:11])([H:7])([H:8])[H:9].[C:5]([O:6][H:16])([H:13])([H:14])[H:15]"
C        2.48215304      -0.77778571      -0.43355808
O        1.41804538      -0.32123990       0.35777953
C        0.48316195       0.48903461      -0.36052468
C       -0.66105366       0.80231458       0.53657006
C       -2.49659352       0.31924084       0.12428353
O       -1.22336431      -0.50234600       1.02557675
H        2.12502147      -1.37527792      -1.28295446
H        3.07626181       0.05796273      -0.82515040
H        3.11986275      -1.40057891       0.19344664
H        0.18766068      -0.05547716      -1.26901485
H        0.94113374       1.43522829      -0.67872379
H       -0.35208942       1.32732428       1.44171941
H       -3.23448057       0.48568066       0.90566602
H       -2.74004723      -0.55649687      -0.48256140
H       -2.62014224       1.15655123      -0.55639843
H       -0.50552986      -1.08413475       1.30384414
16
Frame=11 idx=005024 GeodesicLength=0.871590933750489 rxn_smarts="[C:1]([O:2][C:3]([C@@:4]([C:5]([H:13])([H:14])[H:15])([O:6][H:16])[H:12])([H:10])[H:11])([H:7])([H:8])[H:9]>>[C:1]([O:2][C:3]([C:4][H:12])([H:10])[H:11])([H:7])([H:8])[H:9].[C:5]([O:6][H:16])([H:13])([H:14])[H:15]"
C        2.46314005      -0.78837468      -0.43307400
O        1.40644142      -0.31858995       0.36089182
C        0.47177163       0.49211634      -0.35754251
C       -0.66050812       0.82193201       0.55000885
C       -2.47356611       0.31452847       0.12107106
O       -1.21196262      -0.47030042       1.07693405
H        2.09672342      -1.38907342      -1.27614546
H        3.06080261       0.04038906      -0.83362161
H        3.09964872      -1.41128138       0.19496215
H        0.16623093      -0.05970692      -1.25829849
H        0.93189017       1.43221911      -0.68977052
H       -0.34027240       1.36575796       1.43998248
H       -3.25566811       0.38681503       0.87431872
H       -2.64154273      -0.53501644      -0.54516296
H       -2.63128516       1.18537003      -0.50984908
H       -0.48184367      -1.06678480       1.28529548
16
Frame=12 idx=005024 GeodesicLength=0.9517402139962743 rxn_smarts="[C:1]([O:2][C:3]([C@@:4]([C:5]([H:13])([H:14])[H:15])([O:6][H:16])[H:12])([H:10])[H:11])([H:7])([H:8])[H:9]>>[C:1]([O:2][C:3]([C:4][H:12])([H:10])[H:11])([H:7])([H:8])[H:9].[C:5]([O:6][H:16])([H:13])([H:14])[H:15]"
C        2.44436832      -0.79912339      -0.43200830
O        1.39437938      -0.31657348       0.36365851
C        0.46122141       0.49579034      -0.35522589
C       -0.66010839       0.84155697       0.56129405
C       -2.45106234       0.30915885       0.11922484
O       -1.19967100      -0.43851841       1.12408676
H        2.06944799      -1.40201890      -1.26967302
H        3.04624960       0.02272781      -0.84004383
H        3.07876638      -1.42289258       0.19723164
H        0.14656559      -0.06207571      -1.24913096
H        0.92411682       1.42983692      -0.69984876
H       -0.32922399       1.40330746       1.43613619
H       -3.26790472       0.28639094       0.83904080
H       -2.54731270      -0.50767122      -0.59960803
H       -2.64659655       1.20779073      -0.46137496
H       -0.46323579      -1.04768632       1.26624096
16
Frame=13 idx=005024 GeodesicLength=1.032176260421433 rxn_smarts="[C:1]([O:2][C:3]([C@@:4]([C:5]([H:13])([H:14])[H:15])([O:6][H:16])[H:12])([H:10])[H:11])([H:7])([H:8])[H:9]>>[C:1]([O:2][C:3]([C:4][H:12])([H:10])[H:11])([H:7])([H:8])[H:9].[C:5]([O:6][H:16])([H:13])([H:14])[H:15]"
C        2.42570552      -0.81013378      -0.43038259
O        1.38201429      -0.31484825       0.36619973
C        0.45148328       0.50011907      -0.35350292
C       -0.65997444       0.86116124       0.57053312
C       -2.42906431       0.30312278       0.11826136
O       -1.18654252      -0.40715827       1.16720007
H        2.04277025      -1.41446143      -1.26329163
H        3.03250047       0.00467514      -0.84484608
H        3.05709191      -1.43544739       0.20027404
H        0.12862132      -0.06265255      -1.24142106
H        0.91775241       1.42817711      -0.70899351
H       -0.31920159       1.44005237       1.43033834
H       -3.27068737       0.18454782       0.80026889
H       -2.45817311      -0.47473137      -0.64769845
H       -2.66593932       1.22427516      -0.41062550
H       -0.44835679      -1.02669764       1.24768619
16
Frame=14 idx=005024 GeodesicLength=1.1126751215922634 rxn_smarts="[C:1]([O:2][C:3]([C@@:4]([C:5]([H:13])([H:14])[H:15])([O:6][H:16])[H:12])([H:10])[H:11])([H:7])([H:8])[H:9]>>[C:1]([O:2][C:3]([C:4][H:12])([H:10])[H:11])([H:7])([H:8])[H:9].[C:5]([O:6][H:16])([H:13])([H:14])[H:15]"
C        2.40735217      -0.82114562      -0.42821071
O        1.36932099      -0.31362492       0.36852636
C        0.44230485       0.50461112      -0.35237385
C       -0.66012619       0.88040845       0.57802135
C       -2.40761046       0.29661355       0.11788669
O       -1.17295031      -0.37649999       1.20662585
H        2.01713161      -1.42630909      -1.25703942
H        3.01942119      -0.01325410      -0.84806745
H        3.03513366      -1.44834456       0.20409374
H        0.11203418      -0.06228969      -1.23496313
H        0.91230602       1.42676226      -0.71761595
H       -0.31008259       1.47563804       1.42291469
H       -3.26392154       0.08324267       0.75851179
H       -2.37536195      -0.43649909      -0.69051622
H       -2.68834879       1.23508642      -0.35776382
H       -0.43660283      -1.00439545       1.22997008
16
Frame=15 idx=005024 GeodesicLength=1.1934299930868744 rxn_smarts="[C:1]([O:2][C:3]([C@@:4]([C:5]([H:13])([H:14])[H:15])([O:6][H:16])[H:12])([H:10])[H:11])([H:7])([H:8])[H:9]>>[C:1]([O:2][C:3]([C:4][H:12])([H:10])[H:11])([H:7])([H:8])[H:9].[C:5]([O:6][H:16])([H:13])([H:14])[H:15]"
C        2.38919302      -0.83227683      -0.42543349
O        1.35647777      -0.31249374       0.37076136
C        0.43367146       0.50934328      -0.35181589
C       -0.66062987       0.89935477       0.58380859
C       -2.38663995       0.28969573       0.11775966
O       -1.15894088      -0.34651712       1.24258420
H        1.99211804      -1.43802019      -1.25049307
H        3.00690592      -0.03143243      -0.85014091
H        3.01279980      -1.46154846       0.20886329
H        0.09677543      -0.06109945      -1.22964683
H        0.90771315       1.42566133      -0.72584901
H       -0.30201717       1.51024570       1.41392647
H       -3.24744795      -0.01753462       0.71401419
H       -2.29897296      -0.39286034      -0.72950150
H       -2.71394056       1.24038158      -0.30202667
H       -0.42706525      -0.98089920       1.21318962
16
Frame=16 idx=005024 GeodesicLength=1.2741760003166644 rxn_smarts="[C:1]([O:2][C:3]([C@@:4]([C:5]([H:13])([H:14])[H:15])([O:6][H:16])[H:12])([H:10])[H:11])([H:7])([H:8])[H:9]>>[C:1]([O:2][C:3]([C:4][H:12])([H:10])[H:11])([H:7])([H:8])[H:9].[C:5]([O:6][H:16])([H:13])([H:14])[H:15]"
C        2.37139641      -0.84326993      -0.42213939
O        1.34337373      -0.31179283       0.37286645
C        0.42531968       0.51386789      -0.35177942
C       -0.66146902       0.91773130       0.58824190
C       -2.36611966       0.28252288       0.11767153
O       -1.14487619      -0.31736494       1.27551666
H        1.96819796      -1.44926889      -1.24395286
H        2.99487212      -0.04927359      -0.85091182
H        2.99047657      -1.47466932       0.21439553
H        0.08243555      -0.05977374      -1.22523918
H        0.90351660       1.42442464      -0.73395467
H       -0.29480407       1.54357239       1.40372243
H       -3.22179694      -0.11552527       0.66719985
H       -2.22953492      -0.34442019      -0.76499909
H       -2.74147533       1.23996197      -0.24411019
H       -0.41951249      -0.95672238       1.19747227
