12
Frame=0 idx=001270 GeodesicLength=0.0 rxn_smarts="[C:1]([c:2]1[c:3]([H:10])[n:4]([H:11])[c:5]([H:12])[n:6]1)([H:7])([H:8])[H:9]>>[C:1]([C:3](=[C:2]=[N:6][C:5](=[N:4][H:11])[H:12])[H:10])([H:7])([H:8])[H:9]"
C       -1.91886712      -0.13665969       0.02995888
C       -0.26150179       0.03603329      -0.02234480
C       -0.64199189       1.28087098      -0.14019264
N        2.32060357       0.44507695       0.01644186
C        1.83437401      -0.71189986      -0.15991513
N        0.46924083      -0.99730696      -0.09078811
H       -2.59533468       0.71268731       0.12217109
H       -2.00737174      -0.76304920       0.91574295
H       -2.14628552      -0.66016469      -0.89221170
H       -0.81430886       1.96282121       0.68188828
H        3.32995785       0.43234118      -0.08680748
H        2.43148533      -1.60075056      -0.37394324
12
Frame=1 idx=001270 GeodesicLength=0.08725842198432333 rxn_smarts="[C:1]([c:2]1[c:3]([H:10])[n:4]([H:11])[c:5]([H:12])[n:6]1)([H:7])([H:8])[H:9]>>[C:1]([C:3](=[C:2]=[N:6][C:5](=[N:4][H:11])[H:12])[H:10])([H:7])([H:8])[H:9]"
C       -1.92919689      -0.12585312       0.02828892
C       -0.26195171      -0.00574792      -0.07221294
C       -0.60365167       1.25291375      -0.12881614
N        2.28609848       0.45645881       0.01212857
C        1.84021038      -0.72315510      -0.13846366
N        0.48078911      -1.03268295      -0.10723689
H       -2.58606027       0.73407700       0.15664916
H       -2.01549812      -0.77171638       0.90036494
H       -2.19770499      -0.62672263      -0.89604908
H       -0.77265896       1.95461747       0.67513304
H        3.29392327       0.48447275      -0.09893872
H        2.46570138      -1.59666169      -0.33084718
12
Frame=2 idx=001270 GeodesicLength=0.17435734968653627 rxn_smarts="[C:1]([c:2]1[c:3]([H:10])[n:4]([H:11])[c:5]([H:12])[n:6]1)([H:7])([H:8])[H:9]>>[C:1]([C:3](=[C:2]=[N:6][C:5](=[N:4][H:11])[H:12])[H:10])([H:7])([H:8])[H:9]"
C       -1.93749592      -0.11597118       0.02956124
C       -0.26336370      -0.04558104      -0.12844887
C       -0.56689054       1.22296594      -0.12147615
N        2.25185762       0.46659652       0.00871825
C        1.84440460      -0.73179327      -0.12415734
N        0.49218500      -1.06478158      -0.12791324
H       -2.57483724       0.75193772       0.19666436
H       -2.01827064      -0.78077184       0.88799421
H       -2.25034072      -0.59296245      -0.89411759
H       -0.73237642       1.94948085       0.65880548
H        3.25859534       0.53090516      -0.09326531
H        2.49653261      -1.59002484      -0.29236504
12
Frame=3 idx=001270 GeodesicLength=0.2612331372577614 rxn_smarts="[C:1]([c:2]1[c:3]([H:10])[n:4]([H:11])[c:5]([H:12])[n:6]1)([H:7])([H:8])[H:9]>>[C:1]([C:3](=[C:2]=[N:6][C:5](=[N:4][H:11])[H:12])[H:10])([H:7])([H:8])[H:9]"
C       -1.94352160      -0.10693515       0.03239518
C       -0.26476841      -0.08342963      -0.18212353
C       -0.53069842       1.19116597      -0.11433265
N        2.21864002       0.47430318       0.01131692
C        1.84743839      -0.73954022      -0.11277192
N        0.50337523      -1.09422028      -0.14858196
H       -2.56187740       0.76647820       0.23780569
H       -2.01994466      -0.79046807       0.87657380
H       -2.29923500      -0.55855670      -0.88917217
H       -0.69608084       1.94925197       0.63322279
H        3.22294761       0.57367514      -0.08214662
H        2.52372506      -1.58172442      -0.26218553
12
Frame=4 idx=001270 GeodesicLength=0.3478450457604384 rxn_smarts="[C:1]([c:2]1[c:3]([H:10])[n:4]([H:11])[c:5]([H:12])[n:6]1)([H:7])([H:8])[H:9]>>[C:1]([C:3](=[C:2]=[N:6][C:5](=[N:4][H:11])[H:12])[H:10])([H:7])([H:8])[H:9]"
C       -1.94760034      -0.09884346       0.03773853
C       -0.26617498      -0.11901497      -0.23161194
C       -0.49579217       1.15820932      -0.10716433
N        2.18629360       0.48013941       0.01575678
C        1.84964186      -0.74630848      -0.11008295
N        0.51434335      -1.12113267      -0.17251803
H       -2.54766171       0.77756594       0.28127955
H       -2.02041865      -0.80106143       0.86696211
H       -2.34456235      -0.52383566      -0.88030241
H       -0.66424533       1.95515671       0.59593780
H        3.18804215       0.61226205      -0.05853222
H        2.54813457      -1.57313676      -0.23746289
12
Frame=5 idx=001270 GeodesicLength=0.434150889121496 rxn_smarts="[C:1]([c:2]1[c:3]([H:10])[n:4]([H:11])[c:5]([H:12])[n:6]1)([H:7])([H:8])[H:9]>>[C:1]([C:3](=[C:2]=[N:6][C:5](=[N:4][H:11])[H:12])[H:10])([H:7])([H:8])[H:9]"
C       -1.94986906      -0.09154414       0.04557957
C       -0.26736255      -0.15218633      -0.27641523
C       -0.46207680       1.12468400      -0.09857557
N        2.15476720       0.48345998       0.02626045
C        1.85158472      -0.75268081      -0.11543418
N        0.52528093      -1.14594046      -0.20073784
H       -2.53231389       0.78540174       0.32723706
H       -2.01993798      -0.81272477       0.85882955
H       -2.38606341      -0.48856910      -0.86783523
H       -0.63710524       1.96734551       0.54507768
H        3.15281061       0.64751402      -0.02595204
H        2.57028546      -1.56475963      -0.21803424
12
Frame=6 idx=001270 GeodesicLength=0.519998649603325 rxn_smarts="[C:1]([c:2]1[c:3]([H:10])[n:4]([H:11])[c:5]([H:12])[n:6]1)([H:7])([H:8])[H:9]>>[C:1]([C:3](=[C:2]=[N:6][C:5](=[N:4][H:11])[H:12])[H:10])([H:7])([H:8])[H:9]"
C       -1.95045694      -0.08510183       0.05643414
C       -0.26860693      -0.18206259      -0.31851217
C       -0.42983568       1.09131439      -0.08701920
N        2.12395111       0.48508664       0.03783725
C        1.85345033      -0.75812297      -0.12958072
N        0.53628801      -1.16796064      -0.23700338
H       -2.51570771       0.78946917       0.37798991
H       -2.01741414      -0.82661704       0.85169966
H       -2.42477026      -0.45193781      -0.85126092
H       -0.61424262       1.98461723       0.47902898
H        3.11759671       0.67848304       0.01852482
H        2.58974811      -1.55716759      -0.19813837
12
Frame=7 idx=001270 GeodesicLength=0.6050552741098729 rxn_smarts="[C:1]([c:2]1[c:3]([H:10])[n:4]([H:11])[c:5]([H:12])[n:6]1)([H:7])([H:8])[H:9]>>[C:1]([C:3](=[C:2]=[N:6][C:5](=[N:4][H:11])[H:12])[H:10])([H:7])([H:8])[H:9]"
C       -1.94965027      -0.07937656       0.06919159
C       -0.26943670      -0.20756934      -0.35688702
C       -0.39855856       1.05839940      -0.06747709
N        2.09437351       0.48477533       0.05320123
C        1.85559210      -0.76259937      -0.14832191
N        0.54759730      -1.18642784      -0.28004845
H       -2.49832399       0.78941528       0.43275720
H       -2.01465037      -0.84389034       0.84278637
H       -2.45932753      -0.41221030      -0.83310965
H       -0.59501914       2.00384713       0.39924879
H        3.08186094       0.70634676       0.06291197
H        2.60554271      -1.55071016      -0.17425303
12
Frame=8 idx=001270 GeodesicLength=0.6889944986608019 rxn_smarts="[C:1]([c:2]1[c:3]([H:10])[n:4]([H:11])[c:5]([H:12])[n:6]1)([H:7])([H:8])[H:9]>>[C:1]([C:3](=[C:2]=[N:6][C:5](=[N:4][H:11])[H:12])[H:10])([H:7])([H:8])[H:9]"
C       -1.94771409      -0.07434712       0.08483372
C       -0.27035968      -0.22755079      -0.39347854
C       -0.36894114       1.02676818      -0.04212295
N        2.06621297       0.48481268       0.06303121
C        1.85771261      -0.76505445      -0.17121923
N        0.55903144      -1.19973763      -0.33163341
H       -2.48016491       0.78524568       0.49223670
H       -2.01009727      -0.86336511       0.83391472
H       -2.49134730      -0.37115334      -0.81088023
H       -0.57693871       2.02003263       0.30329773
H        3.04645197       0.72886625       0.11950339
H        2.61615411      -1.54451698      -0.14748311
12
Frame=9 idx=001270 GeodesicLength=0.7723799932029661 rxn_smarts="[C:1]([c:2]1[c:3]([H:10])[n:4]([H:11])[c:5]([H:12])[n:6]1)([H:7])([H:8])[H:9]>>[C:1]([C:3](=[C:2]=[N:6][C:5](=[N:4][H:11])[H:12])[H:10])([H:7])([H:8])[H:9]"
C       -1.94536598      -0.06931042       0.10123022
C       -0.27073233      -0.24183490      -0.42592438
C       -0.34089033       0.99686848      -0.01096692
N        2.03952730       0.48468699       0.07570646
C        1.85967321      -0.76585462      -0.19130000
N        0.57062737      -1.20756676      -0.38594245
H       -2.46245118       0.77805050       0.55221360
H       -2.00666874      -0.88364080       0.82308365
H       -2.51944939      -0.32841543      -0.78783108
H       -0.55705010       2.02576703       0.19880642
H        3.01084378       0.74950053       0.17160261
H        2.62193639      -1.53825059      -0.12067811
12
Frame=10 idx=001270 GeodesicLength=0.8568628475881912 rxn_smarts="[C:1]([c:2]1[c:3]([H:10])[n:4]([H:11])[c:5]([H:12])[n:6]1)([H:7])([H:8])[H:9]>>[C:1]([C:3](=[C:2]=[N:6][C:5](=[N:4][H:11])[H:12])[H:10])([H:7])([H:8])[H:9]"
C       -1.94280630      -0.06381126       0.11785289
C       -0.27112730      -0.25239850      -0.45640090
C       -0.31531242       0.96978529       0.01516485
N        2.01332182       0.48553629       0.08835324
C        1.86115202      -0.76468586      -0.20871460
N        0.58235980      -1.21085876      -0.44021252
H       -2.44458898       0.76968405       0.61057592
H       -2.00338902      -0.90175745       0.81251024
H       -2.54568601      -0.28667348      -0.76261161
H       -0.53218858       2.01746527       0.09502973
H        2.97422210       0.76873914       0.22430598
H        2.62404288      -1.53102473      -0.09585321
12
Frame=11 idx=001270 GeodesicLength=0.9430474716448869 rxn_smarts="[C:1]([c:2]1[c:3]([H:10])[n:4]([H:11])[c:5]([H:12])[n:6]1)([H:7])([H:8])[H:9]>>[C:1]([C:3](=[C:2]=[N:6][C:5](=[N:4][H:11])[H:12])[H:10])([H:7])([H:8])[H:9]"
C       -1.93944483      -0.05773763       0.13446222
C       -0.27169436      -0.26134840      -0.48706805
C       -0.29217393       0.94618193       0.02959301
N        1.98635102       0.48624997       0.10432946
C        1.86209895      -0.76213355      -0.22352829
N        0.59454604      -1.21112542      -0.49364505
H       -2.42521628       0.76109632       0.66678348
H       -1.99881311      -0.91660539       0.80350564
H       -2.57100725      -0.24708604      -0.73435835
H       -0.50398145       1.99865396      -0.00354543
H        2.93537762       0.78686058       0.27826341
H        2.62395757      -1.52300631      -0.07479206
12
Frame=12 idx=001270 GeodesicLength=1.0304788979353416 rxn_smarts="[C:1]([c:2]1[c:3]([H:10])[n:4]([H:11])[c:5]([H:12])[n:6]1)([H:7])([H:8])[H:9]>>[C:1]([C:3](=[C:2]=[N:6][C:5](=[N:4][H:11])[H:12])[H:10])([H:7])([H:8])[H:9]"
C       -1.93510737      -0.05127434       0.15075745
C       -0.27235530      -0.26985693      -0.51812767
C       -0.27099501       0.92544741       0.03365601
N        1.95879770       0.48698375       0.12044495
C        1.86270559      -0.75867812      -0.23635728
N        0.60750070      -1.20931788      -0.54584183
H       -2.40392540       0.75204913       0.72108649
H       -1.99329682      -0.92899774       0.79529439
H       -2.59515227      -0.20894854      -0.70380154
H       -0.47449665       1.97364239      -0.09496630
H        2.89432209       0.80358810       0.33271724
H        2.62200273      -1.51463724      -0.05486192
12
Frame=13 idx=001270 GeodesicLength=1.11860512582319 rxn_smarts="[C:1]([c:2]1[c:3]([H:10])[n:4]([H:11])[c:5]([H:12])[n:6]1)([H:7])([H:8])[H:9]>>[C:1]([C:3](=[C:2]=[N:6][C:5](=[N:4][H:11])[H:12])[H:10])([H:7])([H:8])[H:9]"
C       -1.92965856      -0.04429875       0.16658640
C       -0.27284049      -0.27844549      -0.54932185
C       -0.25121973       0.90721995       0.02929631
N        1.93049166       0.48680905       0.13849499
C        1.86319516      -0.75485413      -0.24720892
N        0.62141146      -1.20611504      -0.59628597
H       -2.38065173       0.74257205       0.77356923
H       -1.98706289      -0.93914325       0.78756374
H       -2.61776117      -0.17178709      -0.67143781
H       -0.44633762       1.94535124      -0.18058808
H        2.85130322       0.81909188       0.38634134
H        2.61913068      -1.50640041      -0.03700938
12
Frame=14 idx=001270 GeodesicLength=1.2073150841850973 rxn_smarts="[C:1]([c:2]1[c:3]([H:10])[n:4]([H:11])[c:5]([H:12])[n:6]1)([H:7])([H:8])[H:9]>>[C:1]([C:3](=[C:2]=[N:6][C:5](=[N:4][H:11])[H:12])[H:10])([H:7])([H:8])[H:9]"
C       -1.92325056      -0.03728771       0.18210918
C       -0.27312429      -0.28694663      -0.58028662
C       -0.23254150       0.89047542       0.02059874
N        1.90286592       0.48779453       0.15111007
C        1.86359336      -0.75074184      -0.25667678
N        0.63647648      -1.20109356      -0.64653759
H       -2.35550110       0.73137338       0.82548570
H       -1.98102621      -0.94885986       0.77860117
H       -2.63845913      -0.13400624      -0.63787782
H       -0.41911024       1.91488811      -0.26021896
H        2.80669407       0.83311304       0.43889207
H        2.61338319      -1.49870864      -0.01519917
12
Frame=15 idx=001270 GeodesicLength=1.296325999709488 rxn_smarts="[C:1]([c:2]1[c:3]([H:10])[n:4]([H:11])[c:5]([H:12])[n:6]1)([H:7])([H:8])[H:9]>>[C:1]([C:3](=[C:2]=[N:6][C:5](=[N:4][H:11])[H:12])[H:10])([H:7])([H:8])[H:9]"
C       -1.91631672      -0.03012377       0.19700281
C       -0.27298577      -0.29582522      -0.60996852
C       -0.21473829       0.87460057       0.00956672
N        1.87618248       0.48959616       0.16006792
C        1.86413338      -0.74661703      -0.26449483
N        0.65264776      -1.19500773      -0.69466608
H       -2.32920500       0.71845710       0.87628568
H       -1.97663653      -0.95813023       0.76776798
H       -2.65697670      -0.09495908      -0.60408211
H       -0.39315757       1.88283372      -0.33401688
H        2.76123402       0.84661166       0.48785618
H        2.60581894      -1.49143615       0.00868113
12
Frame=16 idx=001270 GeodesicLength=1.3854923830490284 rxn_smarts="[C:1]([c:2]1[c:3]([H:10])[n:4]([H:11])[c:5]([H:12])[n:6]1)([H:7])([H:8])[H:9]>>[C:1]([C:3](=[C:2]=[N:6][C:5](=[N:4][H:11])[H:12])[H:10])([H:7])([H:8])[H:9]"
C       -1.90926220      -0.02246704       0.21116739
C       -0.27237251      -0.30572398      -0.63745934
C       -0.19777012       0.85920005      -0.00292067
N        1.84997045       0.49129604       0.16840247
C        1.86502397      -0.74243671      -0.27099293
N        0.66966823      -1.18886400      -0.73873710
H       -2.30264134       0.70476309       0.92485356
H       -1.97475725      -0.96596615       0.75580029
H       -2.67322768      -0.05501866      -0.57054098
H       -0.36856062       1.84928301      -0.40329622
H        2.71501857       0.85979017       0.53359691
H        2.59891050      -1.48385583       0.03012662
