14
Frame=0 idx=003576 GeodesicLength=0.0 rxn_smarts="[C:1]([C@@:2]1([H:10])[O:3][C:4]([H:11])([H:12])[C@:5]1([O:6][H:14])[H:13])([H:7])([H:8])[H:9]>>[C:1]([C@@:2]1([H:10])[O+:3]=[C-:4][C@:5]1([O:6][H:14])[H:13])([H:7])([H:8])[H:9].[H:11][H:12]"
C        1.40903346       0.65059317       0.19400339
C        0.72788674      -0.64536246      -0.14003914
O        0.07758355      -1.22899897       1.03743371
C       -1.16724960      -0.94953366       0.63327813
C       -0.68763240      -0.55064289      -0.76790755
O       -1.11967905       0.58435154      -1.43265168
H        0.73331000       1.32631349       0.72540695
H        2.27958840       0.47203861       0.82474699
H        1.73485824       1.14122679      -0.72428479
H        1.41380384      -1.36855518      -0.58566181
H       -1.47092881       0.76295655       1.17261680
H       -1.84121585      -0.09103670       1.29080275
H       -0.86341807      -1.39450032      -1.43957866
H       -1.22594049       1.29115005      -0.78816509
14
Frame=1 idx=003576 GeodesicLength=0.05559943296400783 rxn_smarts="[C:1]([C@@:2]1([H:10])[O:3][C:4]([H:11])([H:12])[C@:5]1([O:6][H:14])[H:13])([H:7])([H:8])[H:9]>>[C:1]([C@@:2]1([H:10])[O+:3]=[C-:4][C@:5]1([O:6][H:14])[H:13])([H:7])([H:8])[H:9].[H:11][H:12]"
C        1.41689036       0.65093758       0.18787310
C        0.73134649      -0.64453655      -0.14020117
O        0.08229088      -1.22372784       1.03946197
C       -1.16353870      -0.94043400       0.63514160
C       -0.68401644      -0.54900001      -0.76771238
O       -1.11372697       0.58813782      -1.43136817
H        0.74291831       1.33110308       0.71567617
H        2.28620144       0.47219657       0.82034755
H        1.74528381       1.13601089      -0.73246588
H        1.41501666      -1.37033940      -0.58522418
H       -1.49218863       0.75072634       1.18648581
H       -1.88073017      -0.10216668       1.29704432
H       -0.86281420      -1.39246870      -1.43895773
H       -1.22293284       1.29356090      -0.78610102
14
Frame=2 idx=003576 GeodesicLength=0.11120138181393975 rxn_smarts="[C:1]([C@@:2]1([H:10])[O:3][C:4]([H:11])([H:12])[C@:5]1([O:6][H:14])[H:13])([H:7])([H:8])[H:9]>>[C:1]([C@@:2]1([H:10])[O+:3]=[C-:4][C@:5]1([O:6][H:14])[H:13])([H:7])([H:8])[H:9].[H:11][H:12]"
C        1.42501366       0.65126296       0.18157423
C        0.73487804      -0.64363909      -0.14030821
O        0.08713228      -1.21818586       1.04165196
C       -1.15971451      -0.93079379       0.63737418
C       -0.68038935      -0.54719573      -0.76730158
O       -1.10769484       0.59209740      -1.42989416
H        0.75295890       1.33600287       0.70575353
H        2.29312863       0.47231590       0.81570180
H        1.75590621       1.13060887      -0.74088229
H        1.41614243      -1.37219155      -0.58471867
H       -1.51468486       0.73799059       1.20051110
H       -1.92051664      -0.11412903       1.30239002
H       -0.86244090      -1.39033353      -1.43796722
H       -1.21971904       1.29618999      -0.78388469
14
Frame=3 idx=003576 GeodesicLength=0.16679724879348745 rxn_smarts="[C:1]([C@@:2]1([H:10])[O:3][C:4]([H:11])([H:12])[C@:5]1([O:6][H:14])[H:13])([H:7])([H:8])[H:9]>>[C:1]([C@@:2]1([H:10])[O+:3]=[C-:4][C@:5]1([O:6][H:14])[H:13])([H:7])([H:8])[H:9].[H:11][H:12]"
C        1.43341301       0.65156570       0.17509470
C        0.73847486      -0.64266506      -0.14034803
O        0.09210119      -1.21233871       1.04402542
C       -1.15578035      -0.92060076       0.63997963
C       -0.67675757      -0.54521412      -0.76666047
O       -1.10158369       0.59624535      -1.42821876
H        0.76345635       1.34102306       0.69562176
H        2.30038314       0.47239221       0.81079355
H        1.76673077       1.12500006      -0.74955343
H        1.41716376      -1.37411994      -0.58412262
H       -1.53846452       0.72472163       1.21465310
H       -1.96054545      -0.12699337       1.30683873
H       -0.86230043      -1.38807259      -1.43659676
H       -1.21629110       1.29905655      -0.78150682
14
Frame=4 idx=003576 GeodesicLength=0.22238493606156712 rxn_smarts="[C:1]([C@@:2]1([H:10])[O:3][C:4]([H:11])([H:12])[C@:5]1([O:6][H:14])[H:13])([H:7])([H:8])[H:9]>>[C:1]([C@@:2]1([H:10])[O+:3]=[C-:4][C@:5]1([O:6][H:14])[H:13])([H:7])([H:8])[H:9].[H:11][H:12]"
C        1.44209767       0.65184215       0.16842171
C        0.74212927      -0.64160872      -0.14030737
O        0.09718826      -1.20614722       1.04660623
C       -1.15174055      -0.90983931       0.64296111
C       -0.67312846      -0.54303761      -0.76577382
O       -1.09539412       0.60059828      -1.42633157
H        0.77443537       1.34617507       0.68526066
H        2.30797692       0.47242141       0.80560654
H        1.77776271       1.11916146      -0.75849997
H        1.41806137      -1.37613375      -0.58340996
H       -1.56356483       0.71088740       1.22887329
H       -2.00078920      -0.14083837       1.31038949
H       -0.86239544      -1.38566304      -1.43483623
H       -1.21263896       1.30218224      -0.77896009
14
Frame=5 idx=003576 GeodesicLength=0.2779666351423395 rxn_smarts="[C:1]([C@@:2]1([H:10])[O:3][C:4]([H:11])([H:12])[C@:5]1([O:6][H:14])[H:13])([H:7])([H:8])[H:9]>>[C:1]([C@@:2]1([H:10])[O+:3]=[C-:4][C@:5]1([O:6][H:14])[H:13])([H:7])([H:8])[H:9].[H:11][H:12]"
C        1.45107442       0.65208808       0.16154376
C        0.74583272      -0.64046452      -0.14017330
O        0.10238362      -1.19957469       1.04941677
C       -1.14760157      -0.89848952       0.64632343
C       -0.66950942      -0.54064936      -0.76462875
O       -1.08912587       0.60517146      -1.42422461
H        0.78591701       1.35146865       0.67465043
H        2.31591927       0.47239937       0.80012696
H        1.78900563       1.11307035      -0.76774007
H        1.41881562      -1.37824159      -0.58255507
H       -1.59001080       0.69646540       1.24313084
H       -2.04121580      -0.15574953       1.31304252
H       -0.86273096      -1.38308075      -1.43267431
H       -1.20875387       1.30558664      -0.77623859
14
Frame=6 idx=003576 GeodesicLength=0.3335168173288686 rxn_smarts="[C:1]([C@@:2]1([H:10])[O:3][C:4]([H:11])([H:12])[C@:5]1([O:6][H:14])[H:13])([H:7])([H:8])[H:9]>>[C:1]([C@@:2]1([H:10])[O+:3]=[C-:4][C@:5]1([O:6][H:14])[H:13])([H:7])([H:8])[H:9].[H:11][H:12]"
C        1.46035542       0.65229952       0.15444559
C        0.74957586      -0.63922386      -0.13993001
O        0.10767367      -1.19257256       1.05248356
C       -1.14337054      -0.88650954       0.65007733
C       -0.66590825      -0.53802489      -0.76320856
O       -1.08277586       0.60998730      -1.42189073
H        0.79793177       1.35691915       0.66376352
H        2.32422324       0.47231986       0.79433834
H        1.80046936       1.10669730      -0.77729773
H        1.41940120      -1.38045408      -0.58152566
H       -1.61784350       0.68138994       1.25737897
H       -2.08179136      -0.17182755       1.31479490
H       -0.86331899      -1.38030083      -1.43008975
H       -1.20462202       1.30930023      -0.77333977
14
Frame=7 idx=003576 GeodesicLength=0.38903208538537115 rxn_smarts="[C:1]([C@@:2]1([H:10])[O:3][C:4]([H:11])([H:12])[C@:5]1([O:6][H:14])[H:13])([H:7])([H:8])[H:9]>>[C:1]([C@@:2]1([H:10])[O+:3]=[C-:4][C@:5]1([O:6][H:14])[H:13])([H:7])([H:8])[H:9].[H:11][H:12]"
C        1.46994787       0.65247117       0.14711464
C        0.75334774      -0.63787883      -0.13956267
O        0.11304423      -1.18509806       1.05583013
C       -1.13905619      -0.87385963       0.65423238
C       -0.66233317      -0.53514137      -0.76149894
O       -1.07634153       0.61506464      -1.41932596
H        0.81050319       1.36253759       0.65257486
H        2.33289622       0.47217652       0.78822818
H        1.81215888       1.10001461      -0.78719189
H        1.41979294      -1.38277930      -0.58029148
H       -1.64708337       0.66561662       1.27157284
H       -2.12247482      -0.18917449       1.31564587
H       -0.86417155      -1.37729839      -1.42706295
H       -1.20023044       1.31334891      -0.77026502
14
Frame=8 idx=003576 GeodesicLength=0.4445128664345502 rxn_smarts="[C:1]([C@@:2]1([H:10])[O:3][C:4]([H:11])([H:12])[C@:5]1([O:6][H:14])[H:13])([H:7])([H:8])[H:9]>>[C:1]([C@@:2]1([H:10])[O+:3]=[C-:4][C@:5]1([O:6][H:14])[H:13])([H:7])([H:8])[H:9].[H:11][H:12]"
C        1.47986296       0.65259715       0.13953473
C        0.75713675      -0.63641879      -0.13905312
O        0.11847980      -1.17709771       1.05948542
C       -1.13466679      -0.86048055       0.65880487
C       -0.65879187      -0.53197094      -0.75948149
O       -1.06981748       0.62042972      -1.41652455
H        0.82366345       1.36833851       0.64105237
H        2.34194874       0.47196032       0.78177923
H        1.82408181       1.09298722      -0.79744797
H        1.41996027      -1.38522780      -0.57881519
H       -1.67775506       0.64907614       1.28565906
H       -2.16323285      -0.20791680       1.31558457
H       -0.86530622      -1.37404491      -1.42356415
H       -1.19556351       1.31776845      -0.76701378
14
Frame=9 idx=003576 GeodesicLength=0.49991339481179614 rxn_smarts="[C:1]([C@@:2]1([H:10])[O:3][C:4]([H:11])([H:12])[C@:5]1([O:6][H:14])[H:13])([H:7])([H:8])[H:9]>>[C:1]([C@@:2]1([H:10])[O+:3]=[C-:4][C@:5]1([O:6][H:14])[H:13])([H:7])([H:8])[H:9].[H:11][H:12]"
C        1.49013024       0.65266968       0.13167443
C        0.76092777      -0.63482232      -0.13836528
O        0.12395407      -1.16845231       1.06350975
C       -1.13021439      -0.84627574       0.66381942
C       -0.65528765      -0.52846230      -0.75714189
O       -1.06320565       0.62614397      -1.41345115
H        0.83748319       1.37435250       0.62913685
H        2.35141647       0.47165693       0.77495617
H        1.83626052       1.08555395      -0.80811119
H        1.41985783      -1.38782005      -0.57701361
H       -1.70990565       0.63148220       1.29947739
H       -2.20403783      -0.22813197       1.31460158
H       -0.86675523      -1.37050138      -1.41955845
H       -1.19062370       1.32260684      -0.76353400
14
Frame=10 idx=003576 GeodesicLength=0.5552233424944731 rxn_smarts="[C:1]([C@@:2]1([H:10])[O:3][C:4]([H:11])([H:12])[C@:5]1([O:6][H:14])[H:13])([H:7])([H:8])[H:9]>>[C:1]([C@@:2]1([H:10])[O+:3]=[C-:4][C@:5]1([O:6][H:14])[H:13])([H:7])([H:8])[H:9].[H:11][H:12]"
C        1.50073677       0.65267965       0.12353542
C        0.76470393      -0.63308677      -0.13749358
O        0.12945253      -1.15916214       1.06790221
C       -1.12570826      -0.83119799       0.66928498
C       -0.65184167      -0.52460337      -0.75445746
O       -1.05649321       0.63220441      -1.41013433
H        0.85195207       1.38057497       0.61681789
H        2.36127920       0.47125821       0.76776618
H        1.84868499       1.07769485      -0.81918029
H        1.41945803      -1.39055503      -0.57488326
H       -1.74354089       0.61293811       1.31305615
H       -2.24477469      -0.24999352       1.31268837
H       -0.86853571      -1.36664954      -1.41501661
H       -1.18537310       1.32789816      -0.75988566
14
Frame=11 idx=003576 GeodesicLength=0.6104662354311707 rxn_smarts="[C:1]([C@@:2]1([H:10])[O:3][C:4]([H:11])([H:12])[C@:5]1([O:6][H:14])[H:13])([H:7])([H:8])[H:9]>>[C:1]([C@@:2]1([H:10])[O+:3]=[C-:4][C@:5]1([O:6][H:14])[H:13])([H:7])([H:8])[H:9].[H:11][H:12]"
C        1.51168677       0.65261733       0.11510502
C        0.76844510      -0.63119933      -0.13641587
O        0.13494990      -1.14916500       1.07269200
C       -1.12116288      -0.81517477       0.67521456
C       -0.64847003      -0.52036002      -0.75141100
O       -1.04967390       0.63863790      -1.40657502
H        0.86709599       1.38701714       0.60405901
H        2.37154039       0.47075261       0.76019875
H        1.86135909       1.06936548      -0.83067361
H        1.41872054      -1.39344208      -0.57237677
H       -1.77865981       0.59336592       1.32632564
H       -2.28536738      -0.27364410       1.30984887
H       -0.87067391      -1.36245332      -1.40990992
H       -1.17978986       1.33368224      -0.75608166
14
Frame=12 idx=003576 GeodesicLength=0.6656393332440554 rxn_smarts="[C:1]([C@@:2]1([H:10])[O:3][C:4]([H:11])([H:12])[C@:5]1([O:6][H:14])[H:13])([H:7])([H:8])[H:9]>>[C:1]([C@@:2]1([H:10])[O+:3]=[C-:4][C@:5]1([O:6][H:14])[H:13])([H:7])([H:8])[H:9].[H:11][H:12]"
C        1.52298369       0.65247006       0.10636840
C        0.77212764      -0.62914528      -0.13510647
O        0.14041572      -1.13839040       1.07791130
C       -1.11659529      -0.79811821       0.68162124
C       -0.64518992      -0.51569481      -0.74798282
O       -1.04274013       0.64547898      -1.40277743
H        0.88294341       1.39369076       0.59081767
H        2.38220072       0.47012498       0.75224310
H        1.87428648       1.06051284      -0.84261215
H        1.41759816      -1.39649130      -0.56943867
H       -1.81526602       0.57266722       1.33922389
H       -2.32571624      -0.29923774       1.30607471
H       -0.87319734      -1.35787903      -1.40420358
H       -1.17385090       1.34001193      -0.75213921
14
Frame=13 idx=003576 GeodesicLength=0.7207659925339951 rxn_smarts="[C:1]([C@@:2]1([H:10])[O:3][C:4]([H:11])([H:12])[C@:5]1([O:6][H:14])[H:13])([H:7])([H:8])[H:9]>>[C:1]([C@@:2]1([H:10])[O+:3]=[C-:4][C@:5]1([O:6][H:14])[H:13])([H:7])([H:8])[H:9].[H:11][H:12]"
C        1.53462976       0.65222355       0.09731335
C        0.77572551      -0.62690798      -0.13353880
O        0.14581858      -1.12676802       1.08359123
C       -1.11202348      -0.77992609       0.68852360
C       -0.64202100      -0.51056464      -0.74415233
O       -1.03568280       0.65276205      -1.39874761
H        0.89952303       1.40060480       0.57705187
H        2.39325931       0.46935708       0.74389100
H        1.88746885       1.05108204      -0.85501247
H        1.41603771      -1.39971066      -0.56601378
H       -1.85335123       0.55074240       1.35166342
H       -2.36571059      -0.32694579       1.30136614
H       -0.87614462      -1.35288741      -1.39785529
H       -1.16752903       1.34693866      -0.74808034
14
Frame=14 idx=003576 GeodesicLength=0.7758328835346598 rxn_smarts="[C:1]([C@@:2]1([H:10])[O:3][C:4]([H:11])([H:12])[C@:5]1([O:6][H:14])[H:13])([H:7])([H:8])[H:9]>>[C:1]([C@@:2]1([H:10])[O+:3]=[C-:4][C@:5]1([O:6][H:14])[H:13])([H:7])([H:8])[H:9].[H:11][H:12]"
C        1.54662802       0.65186041       0.08792450
C        0.77920417      -0.62446597      -0.13167885
O        0.15111305      -1.11420657       1.08977018
C       -1.10747189      -0.76046130       0.69594559
C       -0.63898774      -0.50491612      -0.73989539
O       -1.02848896       0.66053122      -1.39449877
H        0.91687169       1.40777316       0.56270672
H        2.40471192       0.46842475       0.73513456
H        1.90091064       1.04100232      -0.86789564
H        1.41397214      -1.40311056      -0.56202895
H       -1.89290239       0.52743489       1.36355603
H       -2.40520424      -0.35696699       1.29571051
H       -0.87956420      -1.34743203      -1.39081203
H       -1.16079221       1.35453280      -0.74393846
14
Frame=15 idx=003576 GeodesicLength=0.8308384161286045 rxn_smarts="[C:1]([C@@:2]1([H:10])[O:3][C:4]([H:11])([H:12])[C@:5]1([O:6][H:14])[H:13])([H:7])([H:8])[H:9]>>[C:1]([C@@:2]1([H:10])[O+:3]=[C-:4][C@:5]1([O:6][H:14])[H:13])([H:7])([H:8])[H:9].[H:11][H:12]"
C        1.55897364       0.65135954       0.07819207
C        0.78252208      -0.62179635      -0.12949092
O        0.15624436      -1.10061574       1.09648312
C       -1.10297204      -0.73957520       0.70390633
C       -0.63611910      -0.49869298      -0.73518959
O       -1.02114421       0.66883046      -1.39005343
H        0.93501896       1.41520476       0.54772862
H        2.41654344       0.46730002       0.72597483
H        1.91461124       1.03019889      -0.88127387
H        1.41132574      -1.40669772      -0.55740818
H       -1.93387579       0.50259751       1.37480471
H       -2.44401113      -0.38951573       1.28910558
H       -0.88350976      -1.34146521      -1.38301932
H       -1.15360742       1.36286773      -0.73975995
14
Frame=16 idx=003576 GeodesicLength=0.8857840161148154 rxn_smarts="[C:1]([C@@:2]1([H:10])[O:3][C:4]([H:11])([H:12])[C@:5]1([O:6][H:14])[H:13])([H:7])([H:8])[H:9]>>[C:1]([C@@:2]1([H:10])[O+:3]=[C-:4][C@:5]1([O:6][H:14])[H:13])([H:7])([H:8])[H:9].[H:11][H:12]"
C        1.57166391       0.65069529       0.06810399
C        0.78562861      -0.61887089      -0.12693207
O        0.16114506      -1.08588223       1.10377314
C       -1.09856014      -0.71707738       0.71243233
C       -0.63345156      -0.49182454      -0.73000848
O       -1.01363003       0.67771706      -1.38543915
H        0.95400539       1.42291153       0.53205289
H        2.42874000       0.46594712       0.71641317
H        1.92857429       1.01857938      -0.89516227
H        1.40800558      -1.41048217      -0.55205941
H       -1.97622904       0.47603251       1.38529094
H       -2.48190680      -0.42485016       1.28154679
H       -0.88805359      -1.33493241      -1.37440927
H       -1.14593167       1.37203689      -0.73560260
