11
Frame=0 idx=002072 GeodesicLength=0.0 rxn_smarts="[C:1]([c:2]1[c:3]([H:10])[o:4][c:5]([H:11])[n:6]1)([H:7])([H:8])[H:9]>>[C:1](=[C:2]1[C:3]([H:7])([H:10])[O:4][C:5]([H:11])=[N:6]1)([H:8])[H:9]"
C       -1.63195340      -0.14953952      -0.38495640
C       -0.23679993       0.04577096      -0.41900661
C        0.19598351       0.47163660       0.84024093
O        1.56916280       0.09232625       0.87839592
C        1.80621216      -0.30597796      -0.37828895
N        0.82946726      -0.30006658      -1.22466908
H       -1.17260963       0.21822098       1.09952700
H       -1.97433006      -0.96484393       0.24032559
H       -2.27557816       0.04516234      -1.23925121
H        0.07999516       1.49850760       1.17189632
H        2.81045025      -0.65119674      -0.58421346
11
Frame=1 idx=002072 GeodesicLength=0.043647498624001385 rxn_smarts="[C:1]([c:2]1[c:3]([H:10])[o:4][c:5]([H:11])[n:6]1)([H:7])([H:8])[H:9]>>[C:1](=[C:2]1[C:3]([H:7])([H:10])[O:4][C:5]([H:11])=[N:6]1)([H:8])[H:9]"
C       -1.63126503      -0.15340722      -0.38242318
C       -0.23862148       0.05707425      -0.42160892
C        0.20028481       0.48318818       0.83811928
O        1.57223535       0.10560828       0.87451022
C        1.80586416      -0.31011958      -0.37721901
N        0.82424019      -0.32642433      -1.21605146
H       -1.17503058       0.20178667       1.10941840
H       -1.97759705      -0.98459711       0.21898518
H       -2.27490358       0.06706611      -1.23029090
H        0.08294077       1.50987473       1.16982531
H        2.81185244      -0.65004997      -0.58326492
11
Frame=2 idx=002072 GeodesicLength=0.087281599244508 rxn_smarts="[C:1]([c:2]1[c:3]([H:10])[o:4][c:5]([H:11])[n:6]1)([H:7])([H:8])[H:9]>>[C:1](=[C:2]1[C:3]([H:7])([H:10])[O:4][C:5]([H:11])=[N:6]1)([H:8])[H:9]"
C       -1.63059086      -0.15716633      -0.37995292
C       -0.24033642       0.06687878      -0.42395682
C        0.20456280       0.49447480       0.83591756
O        1.57522532       0.11829785       0.87078509
C        1.80550921      -0.31488358      -0.37571096
N        0.81876241      -0.35399712      -1.20603816
H       -1.17722995       0.18506065       1.11914522
H       -1.98215615      -1.00324839       0.19683747
H       -2.27400610       0.08951730      -1.22062421
H        0.08625047       1.52131314       1.16679346
H        2.81400926      -0.64624710      -0.58319572
11
Frame=3 idx=002072 GeodesicLength=0.13086829900591868 rxn_smarts="[C:1]([c:2]1[c:3]([H:10])[o:4][c:5]([H:11])[n:6]1)([H:7])([H:8])[H:9]>>[C:1](=[C:2]1[C:3]([H:7])([H:10])[O:4][C:5]([H:11])=[N:6]1)([H:8])[H:9]"
C       -1.62978493      -0.16102802      -0.37747441
C       -0.24192403       0.07591568      -0.42614196
C        0.20883742       0.50581365       0.83365670
O        1.57826348       0.13120621       0.86691767
C        1.80521192      -0.31916349      -0.37416920
N        0.81320419      -0.38081952      -1.19507333
H       -1.17907234       0.16780636       1.12876629
H       -1.98722779      -1.02137503       0.17372306
H       -2.27289644       0.11166774      -1.21017840
H        0.08963350       1.53295375       1.16324220
H        2.81575501      -0.64297734      -0.58326862
11
Frame=4 idx=002072 GeodesicLength=0.17450529626611572 rxn_smarts="[C:1]([c:2]1[c:3]([H:10])[o:4][c:5]([H:11])[n:6]1)([H:7])([H:8])[H:9]>>[C:1](=[C:2]1[C:3]([H:7])([H:10])[O:4][C:5]([H:11])=[N:6]1)([H:8])[H:9]"
C       -1.62895526      -0.16497029      -0.37498505
C       -0.24341172       0.08401587      -0.42817209
C        0.21309053       0.51712922       0.83133954
O        1.58133066       0.14403739       0.86304006
C        1.80499204      -0.32343776      -0.37242858
N        0.80762277      -0.40739390      -1.18317533
H       -1.18064994       0.15013302       1.13830702
H       -1.99309298      -1.03877712       0.14972443
H       -2.27163674       0.13371926      -1.19897835
H        0.09315964       1.54479027       1.15904028
H        2.81755099      -0.63924597      -0.58371194
11
Frame=5 idx=002072 GeodesicLength=0.2181840153770673 rxn_smarts="[C:1]([c:2]1[c:3]([H:10])[o:4][c:5]([H:11])[n:6]1)([H:7])([H:8])[H:9]>>[C:1](=[C:2]1[C:3]([H:7])([H:10])[O:4][C:5]([H:11])=[N:6]1)([H:8])[H:9]"
C       -1.62814279      -0.16893140      -0.37249973
C       -0.24479187       0.09099845      -0.43001413
C        0.21732228       0.52830781       0.82895221
O        1.58431272       0.15638320       0.85933226
C        1.80464652      -0.32870726      -0.37007148
N        0.80202472      -0.43430620      -1.17008971
H       -1.18205814       0.13224627       1.14771097
H       -2.00001283      -1.05521468       0.12487680
H       -2.27011279       0.15584867      -1.18707200
H        0.09705750       1.55679540       1.15395519
H        2.81975469      -0.63342026      -0.58508037
11
Frame=6 idx=002072 GeodesicLength=0.26188095107974 rxn_smarts="[C:1]([c:2]1[c:3]([H:10])[o:4][c:5]([H:11])[n:6]1)([H:7])([H:8])[H:9]>>[C:1](=[C:2]1[C:3]([H:7])([H:10])[O:4][C:5]([H:11])=[N:6]1)([H:8])[H:9]"
C       -1.62720506      -0.17314196      -0.36994827
C       -0.24608203       0.09750927      -0.43176688
C        0.22152995       0.53967128       0.82648589
O        1.58735221       0.16909172       0.85544818
C        1.80431276      -0.33379143      -0.36757027
N        0.79651186      -0.45991378      -1.15639493
H       -1.18309948       0.11381132       1.15706891
H       -2.00720280      -1.07126631       0.09897013
H       -2.26848062       0.17751480      -1.17424321
H        0.10094731       1.56912122       1.14838031
H        2.82141590      -0.62860614      -0.58642985
11
Frame=7 idx=002072 GeodesicLength=0.30561332178700584 rxn_smarts="[C:1]([c:2]1[c:3]([H:10])[o:4][c:5]([H:11])[n:6]1)([H:7])([H:8])[H:9]>>[C:1](=[C:2]1[C:3]([H:7])([H:10])[O:4][C:5]([H:11])=[N:6]1)([H:8])[H:9]"
C       -1.62627995      -0.17745895      -0.36737407
C       -0.24726888       0.10307572      -0.43335962
C        0.22572192       0.55094495       0.82393776
O        1.59027430       0.18125641       0.85178467
C        1.80383109      -0.34002587      -0.36429598
N        0.79105939      -0.48557529      -1.14171315
H       -1.18401138       0.09526043       1.16629384
H       -2.01531373      -1.08637753       0.07217647
H       -2.26660444       0.19905786      -1.16066007
H        0.10526013       1.58164918       1.14192315
H        2.82333155      -0.62180690      -0.58871300
11
Frame=8 idx=002072 GeodesicLength=0.3493483230633888 rxn_smarts="[C:1]([c:2]1[c:3]([H:10])[o:4][c:5]([H:11])[n:6]1)([H:7])([H:8])[H:9]>>[C:1](=[C:2]1[C:3]([H:7])([H:10])[O:4][C:5]([H:11])=[N:6]1)([H:8])[H:9]"
C       -1.62526254      -0.18206310      -0.36471626
C       -0.24838637       0.10817700      -0.43486429
C        0.22988872       0.56236100       0.82129162
O        1.59317785       0.19348592       0.84807005
C        1.80329868      -0.34650285      -0.36062479
N        0.78575271      -0.51009229      -1.12653249
H       -1.18464465       0.07634872       1.17544965
H       -2.02374919      -1.10095605       0.04435075
H       -2.26463188       0.22009847      -1.14612553
H        0.10970685       1.59448112       1.13486144
H        2.82484983      -0.61533793      -0.59116016
11
Frame=9 idx=002072 GeodesicLength=0.39309670368734334 rxn_smarts="[C:1]([c:2]1[c:3]([H:10])[o:4][c:5]([H:11])[n:6]1)([H:7])([H:8])[H:9]>>[C:1](=[C:2]1[C:3]([H:7])([H:10])[O:4][C:5]([H:11])=[N:6]1)([H:8])[H:9]"
C       -1.62415395      -0.18700150      -0.36196509
C       -0.24945168       0.11287184      -0.43628650
C        0.23403057       0.57392020       0.81854382
O        1.59602480       0.20567296       0.84434123
C        1.80272416      -0.35316500      -0.35657033
N        0.78061399      -0.53339226      -1.11097758
H       -1.18504441       0.05717126       1.18453698
H       -2.03247121      -1.11497910       0.01551357
H       -2.26258595       0.24052698      -1.13062551
H        0.11434796       1.60761228       1.12720492
H        2.82596572      -0.60923767      -0.59371552
11
Frame=10 idx=002072 GeodesicLength=0.43680960863332724 rxn_smarts="[C:1]([c:2]1[c:3]([H:10])[o:4][c:5]([H:11])[n:6]1)([H:7])([H:8])[H:9]>>[C:1](=[C:2]1[C:3]([H:7])([H:10])[O:4][C:5]([H:11])=[N:6]1)([H:8])[H:9]"
C       -1.62295571      -0.19230418      -0.35909131
C       -0.25050102       0.11727169      -0.43763115
C        0.23815163       0.58564355       0.81568904
O        1.59880954       0.21779531       0.84058770
C        1.80212699      -0.35979953      -0.35222295
N        0.77564929      -0.55532948      -1.09521864
H       -1.18520016       0.03776156       1.19356948
H       -2.04136819      -1.12843105      -0.01434384
H       -2.26052953       0.26018120      -1.11414537
H        0.11918145       1.62103692       1.11900773
H        2.82663572      -0.60382598      -0.59620070
11
Frame=11 idx=002072 GeodesicLength=0.48048811053247403 rxn_smarts="[C:1]([c:2]1[c:3]([H:10])[o:4][c:5]([H:11])[n:6]1)([H:7])([H:8])[H:9]>>[C:1](=[C:2]1[C:3]([H:7])([H:10])[O:4][C:5]([H:11])=[N:6]1)([H:8])[H:9]"
C       -1.62166178      -0.19804089      -0.35609132
C       -0.25156231       0.12145010      -0.43892054
C        0.24223634       0.59754892       0.81271048
O        1.60149784       0.22984167       0.83680003
C        1.80152769      -0.36621291      -0.34769260
N        0.77087485      -0.57580834      -1.07940478
H       -1.18514285       0.01813814       1.20255420
H       -2.05032777      -1.14131311      -0.04518265
H       -2.25850210       0.27902023      -1.09662664
H        0.12419603       1.63475073       1.11029725
H        2.82686406      -0.59937453      -0.59844343
11
Frame=12 idx=002072 GeodesicLength=0.5241591106668163 rxn_smarts="[C:1]([c:2]1[c:3]([H:10])[o:4][c:5]([H:11])[n:6]1)([H:7])([H:8])[H:9]>>[C:1](=[C:2]1[C:3]([H:7])([H:10])[O:4][C:5]([H:11])=[N:6]1)([H:8])[H:9]"
C       -1.62027848      -0.20421109      -0.35294348
C       -0.25265695       0.12543751      -0.44015961
C        0.24628570       0.60967002       0.80959153
O        1.60410646       0.24188326       0.83295670
C        1.80093134      -0.37236572      -0.34300904
N        0.76626769      -0.59492966      -1.06357042
H       -1.18482067      -0.00176410       1.21152620
H       -2.05932399      -1.15360868      -0.07715523
H       -2.25658213       0.29706259      -1.07794731
H        0.12936176       1.64879056       1.10105280
H        2.82670927      -0.59596469      -0.60034213
11
Frame=13 idx=002072 GeodesicLength=0.5678285270432852 rxn_smarts="[C:1]([c:2]1[c:3]([H:10])[o:4][c:5]([H:11])[n:6]1)([H:7])([H:8])[H:9]>>[C:1](=[C:2]1[C:3]([H:7])([H:10])[O:4][C:5]([H:11])=[N:6]1)([H:8])[H:9]"
C       -1.61884232      -0.21076809      -0.34966871
C       -0.25375678       0.12900603      -0.44129930
C        0.25031342       0.62189041       0.80633108
O        1.60659805       0.25364451       0.82922165
C        1.80032835      -0.37859604      -0.33796436
N        0.76180238      -0.61336735      -1.04741836
H       -1.18431248      -0.02186453       1.22048384
H       -2.06863570      -1.16502438      -0.11026061
H       -2.25463582       0.31446354      -1.05818515
H        0.13480715       1.66308797       1.09108303
H        2.82633375      -0.59247206      -0.60232311
11
Frame=14 idx=002072 GeodesicLength=0.6114725856608006 rxn_smarts="[C:1]([c:2]1[c:3]([H:10])[o:4][c:5]([H:11])[n:6]1)([H:7])([H:8])[H:9]>>[C:1](=[C:2]1[C:3]([H:7])([H:10])[O:4][C:5]([H:11])=[N:6]1)([H:8])[H:9]"
C       -1.61731675      -0.21782230      -0.34624024
C       -0.25491174       0.13238183      -0.44239867
C        0.25428564       0.63431307       0.80287979
O        1.60896662       0.26535994       0.82544128
C        1.79973947      -0.38448092      -0.33281048
N        0.75751231      -0.63061221      -1.03129821
H       -1.18357392      -0.04225440       1.22943654
H       -2.07794435      -1.17567597      -0.14454354
H       -2.25281895       0.33107843      -1.03709755
H        0.14039964       1.67767134       1.08049208
H        2.82566204      -0.58995881      -0.60386099
11
Frame=15 idx=002072 GeodesicLength=0.6551246136659823 rxn_smarts="[C:1]([c:2]1[c:3]([H:10])[o:4][c:5]([H:11])[n:6]1)([H:7])([H:8])[H:9]>>[C:1](=[C:2]1[C:3]([H:7])([H:10])[O:4][C:5]([H:11])=[N:6]1)([H:8])[H:9]"
C       -1.61573397      -0.22535672      -0.34266033
C       -0.25613452       0.13548169      -0.44343467
C        0.25822073       0.64691420       0.79924517
O        1.61123882       0.27698259       0.82167524
C        1.79916704      -0.39014190      -0.32748332
N        0.75336504      -0.64699267      -1.01509124
H       -1.18257580      -0.06295966       1.23841588
H       -2.08737076      -1.18539007      -0.18007999
H       -2.25111663       0.34693793      -1.01471290
H        0.14616216       1.69254914       1.06921827
H        2.82477790      -0.58802453      -0.60509212
11
Frame=16 idx=002072 GeodesicLength=0.6987240406060475 rxn_smarts="[C:1]([c:2]1[c:3]([H:10])[o:4][c:5]([H:11])[n:6]1)([H:7])([H:8])[H:9]>>[C:1](=[C:2]1[C:3]([H:7])([H:10])[O:4][C:5]([H:11])=[N:6]1)([H:8])[H:9]"
C       -1.61407000      -0.23342188      -0.33891809
C       -0.25743867       0.13837172      -0.44442340
C        0.26208851       0.65969825       0.79537311
O        1.61336424       0.28854090       0.81786393
C        1.79860296      -0.39543221      -0.32206988
N        0.74938854      -0.66235069      -0.99891326
H       -1.18135424      -0.08398688       1.24739212
H       -2.09678603      -1.19407302      -0.21684195
H       -2.24953657       0.36194056      -0.99088049
H        0.15205826       1.70766404       1.05724497
H        2.82368301      -0.58695080      -0.60582705
