15
Frame=0 idx=010447 GeodesicLength=0.0 rxn_smarts="[N:1]([C:2](=[O:3])[C:4]([N:5]1[C:6]([H:12])([H:13])[C:7]1([H:14])[H:15])([H:10])[H:11])([H:8])[H:9]>>[H:13][H:15].[N:1]([C:2](=[O:3])[C:4]([N:5]1[C:6]([H:12])=[C:7]1[H:14])([H:10])[H:11])([H:8])[H:9]"
N        1.30444686       0.03961185      -1.26968711
C        1.72870353      -0.19650436      -0.01727103
O        2.87543384      -0.09973013       0.36171182
C        0.66457624      -0.66539828       0.98222300
N       -0.70386009      -0.43725225       0.58652325
C       -1.59244964       0.46686937       0.68334806
C       -1.56377566      -0.37199252      -0.61216813
H        1.98466367       0.34718020      -1.94227046
H        0.31823933      -0.02878045      -1.51566823
H        0.81417755      -1.73547078       1.13337879
H        0.85198615      -0.15385486       1.92531326
H       -2.06222260       1.04657208       1.46069424
H       -1.10688369       1.80661776      -0.26488647
H       -2.24404109      -1.22791419      -0.61635660
H       -1.26899446       1.21004660      -0.89488438
15
Frame=1 idx=010447 GeodesicLength=0.1010143373752546 rxn_smarts="[N:1]([C:2](=[O:3])[C:4]([N:5]1[C:6]([H:12])([H:13])[C:7]1([H:14])[H:15])([H:10])[H:11])([H:8])[H:9]>>[H:13][H:15].[N:1]([C:2](=[O:3])[C:4]([N:5]1[C:6]([H:12])=[C:7]1[H:14])([H:10])[H:11])([H:8])[H:9]"
N        1.31800236       0.06944267      -1.26015836
C        1.74007752      -0.20166548      -0.01198149
O        2.89079813      -0.13180152       0.36276787
C        0.67173529      -0.67900504       0.97717699
N       -0.68973187      -0.40180404       0.60341578
C       -1.60036562       0.49277003       0.67753009
C       -1.57548482      -0.39009881      -0.57575137
H        2.00318918       0.38197038      -1.92934422
H        0.33428192      -0.00653625      -1.51282684
H        0.79268579      -1.75827243       1.08814694
H        0.87443683      -0.20404867       1.93645328
H       -2.08595705       1.07919246       1.44376141
H       -1.13639165       1.81214099      -0.30660093
H       -2.24263221      -1.25536126      -0.55553716
H       -1.29464382       1.19307699      -0.93705201
15
Frame=2 idx=010447 GeodesicLength=0.20196143930707183 rxn_smarts="[N:1]([C:2](=[O:3])[C:4]([N:5]1[C:6]([H:12])([H:13])[C:7]1([H:14])[H:15])([H:10])[H:11])([H:8])[H:9]>>[H:13][H:15].[N:1]([C:2](=[O:3])[C:4]([N:5]1[C:6]([H:12])=[C:7]1[H:14])([H:10])[H:11])([H:8])[H:9]"
N        1.33270666       0.10248885      -1.24922603
C        1.75187726      -0.20777170      -0.00702632
O        2.90604037      -0.16600745       0.36327575
C        0.67813858      -0.69231602       0.97102550
N       -0.67433782      -0.36430336       0.61948356
C       -1.60830130       0.51850336       0.67162852
C       -1.58623819      -0.40768939      -0.53696630
H        2.02459259       0.41325877      -1.91634293
H        0.35176877       0.02016702      -1.50976875
H        0.76894898      -1.77860547       1.04138021
H        0.89590033      -0.25593090       1.94554972
H       -2.11023209       1.11069351       1.42664078
H       -1.16940727       1.81624517      -0.34935792
H       -2.23996757      -1.28147126      -0.49112858
H       -1.32148931       1.17273886      -0.97916721
15
Frame=3 idx=010447 GeodesicLength=0.30272590701206004 rxn_smarts="[N:1]([C:2](=[O:3])[C:4]([N:5]1[C:6]([H:12])([H:13])[C:7]1([H:14])[H:15])([H:10])[H:11])([H:8])[H:9]>>[H:13][H:15].[N:1]([C:2](=[O:3])[C:4]([N:5]1[C:6]([H:12])=[C:7]1[H:14])([H:10])[H:11])([H:8])[H:9]"
N        1.34874525       0.13611910      -1.23745759
C        1.76391935      -0.21605168      -0.00286926
O        2.92089012      -0.20321747       0.36276122
C        0.68354257      -0.70538668       0.96380989
N       -0.65777693      -0.32524806       0.63449216
C       -1.61578046       0.54415479       0.66540887
C       -1.59616385      -0.42489514      -0.49564995
H        2.04742848       0.44737761      -1.90131108
H        0.37068808       0.05003560      -1.50674676
H        0.74280080      -1.79635821       0.99436154
H        0.91602790      -0.30867031       1.95213444
H       -2.13411028       1.14165708       1.40900362
H       -1.20500254       1.81820208      -0.39377176
H       -2.23670559      -1.30586807      -0.42266863
H       -1.34850290       1.14814937      -1.02149670
15
Frame=4 idx=010447 GeodesicLength=0.4032567691636346 rxn_smarts="[N:1]([C:2](=[O:3])[C:4]([N:5]1[C:6]([H:12])([H:13])[C:7]1([H:14])[H:15])([H:10])[H:11])([H:8])[H:9]>>[H:13][H:15].[N:1]([C:2](=[O:3])[C:4]([N:5]1[C:6]([H:12])=[C:7]1[H:14])([H:10])[H:11])([H:8])[H:9]"
N        1.36621538       0.16922751      -1.22524813
C        1.77593974      -0.22652977       0.00022847
O        2.93497114      -0.24284748       0.36116915
C        0.68776540      -0.71807512       0.95544339
N       -0.64026686      -0.28537350       0.64804280
C       -1.62260185       0.56947097       0.65888709
C       -1.60545295      -0.44149679      -0.45190510
H        2.07173057       0.48499593      -1.88385500
H        0.39097499       0.08306890      -1.50390845
H        0.71461240      -1.81138025       0.94767543
H        0.93425048      -0.36156757       1.95596645
H       -2.15705028       1.17188543       1.39107006
H       -1.24268264       1.81757671      -0.43942715
H       -2.23334436      -1.32804896      -0.35051214
H       -1.37506117       1.11909401      -1.06362688
15
Frame=5 idx=010447 GeodesicLength=0.5035156457146633 rxn_smarts="[N:1]([C:2](=[O:3])[C:4]([N:5]1[C:6]([H:12])([H:13])[C:7]1([H:14])[H:15])([H:10])[H:11])([H:8])[H:9]>>[H:13][H:15].[N:1]([C:2](=[O:3])[C:4]([N:5]1[C:6]([H:12])=[C:7]1[H:14])([H:10])[H:11])([H:8])[H:9]"
N        1.38514066       0.20197596      -1.21267868
C        1.78766040      -0.23842901       0.00226334
O        2.94792199      -0.28349793       0.35881524
C        0.69070195      -0.73018883       0.94579198
N       -0.62214398      -0.24554682       0.65978527
C       -1.62875324       0.59407784       0.65219834
C       -1.61432605      -0.45717444      -0.40601822
H        2.09805793       0.52343013      -1.86473946
H        0.41258604       0.11990761      -1.50116727
H        0.68508966      -1.82358650       0.90127632
H        0.94994799      -0.41421132       1.95699366
H       -2.17873921       1.20093007       1.37330681
H       -1.28210709       1.81414006      -0.48546555
H       -2.23025287      -1.34759701      -0.27547025
H       -1.40078418       1.08577018      -1.10489154
15
Frame=6 idx=010447 GeodesicLength=0.603469272832901 rxn_smarts="[N:1]([C:2](=[O:3])[C:4]([N:5]1[C:6]([H:12])([H:13])[C:7]1([H:14])[H:15])([H:10])[H:11])([H:8])[H:9]>>[H:13][H:15].[N:1]([C:2](=[O:3])[C:4]([N:5]1[C:6]([H:12])=[C:7]1[H:14])([H:10])[H:11])([H:8])[H:9]"
N        1.40541243       0.23409519      -1.19990469
C        1.79883327      -0.25148836       0.00313438
O        2.95950310      -0.32443157       0.35580315
C        0.69231082      -0.74175522       0.93479810
N       -0.60377442      -0.20665226       0.66954482
C       -1.63407971       0.61785674       0.64530376
C       -1.62312634      -0.47183016      -0.35811504
H        2.12629346       0.56294241      -1.84375710
H        0.43541712       0.16039058      -1.49846614
H        0.65477448      -1.83319425       0.85525785
H        0.96280151      -0.46624727       1.95519129
H       -2.19855630       1.22905233       1.35577474
H       -1.32255466       1.80750108      -0.53167978
H       -2.22802745      -1.36425216      -0.19783626
H       -1.42522733       1.04801292      -1.14504906
15
Frame=7 idx=010447 GeodesicLength=0.7031170956931998 rxn_smarts="[N:1]([C:2](=[O:3])[C:4]([N:5]1[C:6]([H:12])([H:13])[C:7]1([H:14])[H:15])([H:10])[H:11])([H:8])[H:9]>>[H:13][H:15].[N:1]([C:2](=[O:3])[C:4]([N:5]1[C:6]([H:12])=[C:7]1[H:14])([H:10])[H:11])([H:8])[H:9]"
N        1.42685971       0.26570311      -1.18692006
C        1.80925871      -0.26538853       0.00279047
O        2.96957403      -0.36508892       0.35219729
C        0.69261745      -0.75288718       0.92239698
N       -0.58549300      -0.16941369       0.67729914
C       -1.63850729       0.64079255       0.63810985
C       -1.63218051      -0.48540948      -0.30823167
H        2.15630159       0.60366258      -1.82070343
H        0.45938547       0.20445202      -1.49563219
H        0.62412037      -1.84053362       0.80941322
H        0.97268837      -0.51761125       1.95059261
H       -2.21600382       1.25673405       1.33837943
H       -1.36342987       1.79729426      -0.57805647
H       -2.22711235      -1.37788160      -0.11767903
H       -1.44807885       1.00557572      -1.18395611
15
Frame=8 idx=010447 GeodesicLength=0.8024769338380362 rxn_smarts="[N:1]([C:2](=[O:3])[C:4]([N:5]1[C:6]([H:12])([H:13])[C:7]1([H:14])[H:15])([H:10])[H:11])([H:8])[H:9]>>[H:13][H:15].[N:1]([C:2](=[O:3])[C:4]([N:5]1[C:6]([H:12])=[C:7]1[H:14])([H:10])[H:11])([H:8])[H:9]"
N        1.44933562       0.29739093      -1.17348137
C        1.81880747      -0.27962254       0.00128288
O        2.97808397      -0.40495062       0.34808946
C        0.69168646      -0.76370508       0.90849971
N       -0.56759377      -0.13431655       0.68317357
C       -1.64211371       0.66289530       0.63052420
C       -1.64171851      -0.49783556      -0.25635561
H        2.18806145       0.64468783      -1.79584306
H        0.48446724       0.25244153      -1.49226824
H        0.59348549      -1.84590317       0.76318459
H        0.97959756      -0.56852824       1.94325493
H       -2.23090768       1.28442147       1.32095131
H       -1.40442485       1.78323449      -0.62457152
H       -2.22766428      -1.38844441      -0.03501011
H       -1.46910246       0.95823463      -1.22143074
15
Frame=9 idx=010447 GeodesicLength=0.9015487027311829 rxn_smarts="[N:1]([C:2](=[O:3])[C:4]([N:5]1[C:6]([H:12])([H:13])[C:7]1([H:14])[H:15])([H:10])[H:11])([H:8])[H:9]>>[H:13][H:15].[N:1]([C:2](=[O:3])[C:4]([N:5]1[C:6]([H:12])=[C:7]1[H:14])([H:10])[H:11])([H:8])[H:9]"
N        1.47267786       0.32957291      -1.15933607
C        1.82737865      -0.29398674      -0.00144567
O        2.98501994      -0.44406443       0.34329509
C        0.68958197      -0.77438888       0.89301459
N       -0.55028450      -0.10161346       0.68740032
C       -1.64495853       0.68428173       0.62235626
C       -1.65189859      -0.50906281      -0.20230121
H        2.22137754       0.68630532      -1.76892481
H        0.51062383       0.30460915      -1.48793054
H        0.56295847      -1.84959568       0.71604516
H        0.98368239      -0.61931826       1.93316082
H       -2.24313352       1.31277249       1.30304649
H       -1.44531530       1.76490090      -0.67151323
H       -2.22969315      -1.39589929       0.05053979
H       -1.48801707       0.90548705      -1.25740699
15
Frame=10 idx=010447 GeodesicLength=1.0003659224262333 rxn_smarts="[N:1]([C:2](=[O:3])[C:4]([N:5]1[C:6]([H:12])([H:13])[C:7]1([H:14])[H:15])([H:10])[H:11])([H:8])[H:9]>>[H:13][H:15].[N:1]([C:2](=[O:3])[C:4]([N:5]1[C:6]([H:12])=[C:7]1[H:14])([H:10])[H:11])([H:8])[H:9]"
N        1.49677662       0.36280754      -1.14411209
C        1.83489392      -0.30820334      -0.00543230
O        2.99037021      -0.48250176       0.33758767
C        0.68635581      -0.78506170       0.87582884
N       -0.53372475      -0.07137583       0.69029936
C       -1.64722196       0.70502477       0.61343105
C       -1.66274697      -0.51896080      -0.14587663
H        2.25614197       0.72802148      -1.74008894
H        0.53786937       0.36157607      -1.48193943
H        0.53250280      -1.85175380       0.66735006
H        0.98512803      -0.67039128       1.92023967
H       -2.25286689       1.34224213       1.28416724
H       -1.48608357       1.74189497      -0.71906269
H       -2.23295242      -1.40018046       0.13928478
H       -1.50444216       0.84686200      -1.29167659
15
Frame=11 idx=010447 GeodesicLength=1.0989158542278123 rxn_smarts="[N:1]([C:2](=[O:3])[C:4]([N:5]1[C:6]([H:12])([H:13])[C:7]1([H:14])[H:15])([H:10])[H:11])([H:8])[H:9]>>[H:13][H:15].[N:1]([C:2](=[O:3])[C:4]([N:5]1[C:6]([H:12])=[C:7]1[H:14])([H:10])[H:11])([H:8])[H:9]"
N        1.52150645       0.39766602      -1.12733599
C        1.84124609      -0.32198160      -0.01070261
O        2.99406156      -0.52051713       0.33060452
C        0.68202972      -0.79579540       0.85683179
N       -0.51802270      -0.04350991       0.69228727
C       -1.64911178       0.72516915       0.60354867
C       -1.67415054      -0.52733275      -0.08687060
H        2.29218560       0.76923831      -1.70961169
H        0.56618320       0.42406142      -1.47341249
H        0.50194317      -1.85234535       0.61641840
H        0.98412303      -0.72223091       1.90435056
H       -2.26045476       1.37316322       1.26367547
H       -1.52672551       1.71372161      -0.76739498
H       -2.23696552      -1.40115789       0.23154076
H       -1.51784802       0.78185121      -1.32392906
15
Frame=12 idx=010447 GeodesicLength=1.1972877525471126 rxn_smarts="[N:1]([C:2](=[O:3])[C:4]([N:5]1[C:6]([H:12])([H:13])[C:7]1([H:14])[H:15])([H:10])[H:11])([H:8])[H:9]>>[H:13][H:15].[N:1]([C:2](=[O:3])[C:4]([N:5]1[C:6]([H:12])=[C:7]1[H:14])([H:10])[H:11])([H:8])[H:9]"
N        1.54665024       0.43411260      -1.10881374
C        1.84628654      -0.33561002      -0.01767799
O        2.99601173      -0.55890106       0.32142404
C        0.67658181      -0.80671521       0.83593151
N       -0.50323599      -0.01787819       0.69382171
C       -1.65072021       0.74483873       0.59240348
C       -1.68599738      -0.53395494      -0.02494340
H        2.32909358       0.81161078      -1.67646540
H        0.59551774       0.49210108      -1.46168615
H        0.47076501      -1.85137113       0.56299661
H        0.98103590      -0.77506976       1.88525332
H       -2.26608191       1.40611554       1.24063309
H       -1.56695997       1.67965354      -0.81691438
H       -2.24136768      -1.39855028       0.32790239
H       -1.52757940       0.70961832      -1.35386508
15
Frame=13 idx=010447 GeodesicLength=1.295463410431275 rxn_smarts="[N:1]([C:2](=[O:3])[C:4]([N:5]1[C:6]([H:12])([H:13])[C:7]1([H:14])[H:15])([H:10])[H:11])([H:8])[H:9]>>[H:13][H:15].[N:1]([C:2](=[O:3])[C:4]([N:5]1[C:6]([H:12])=[C:7]1[H:14])([H:10])[H:11])([H:8])[H:9]"
N        1.57195090       0.47254667      -1.08803427
C        1.84978539      -0.34871645      -0.02641371
O        2.99596778      -0.59791218       0.30940027
C        0.66997249      -0.81770067       0.81310545
N       -0.48938696       0.00584082       0.69550892
C       -1.65233108       0.76391170       0.57981931
C       -1.69787061      -0.53842996       0.03991116
H        2.36654047       0.85406358      -1.64120569
H        0.62573236       0.56608387      -1.44568199
H        0.43858097      -1.84838405       0.50660190
H        0.97605212      -0.82926647       1.86274554
H       -2.27050793       1.44090043       1.21426247
H       -1.60639788       1.63921488      -0.86742733
H       -2.24526250      -1.39211004       0.42819380
H       -1.53282553       0.62995785      -1.38078582
15
Frame=14 idx=010447 GeodesicLength=1.393567525522549 rxn_smarts="[N:1]([C:2](=[O:3])[C:4]([N:5]1[C:6]([H:12])([H:13])[C:7]1([H:14])[H:15])([H:10])[H:11])([H:8])[H:9]>>[H:13][H:15].[N:1]([C:2](=[O:3])[C:4]([N:5]1[C:6]([H:12])=[C:7]1[H:14])([H:10])[H:11])([H:8])[H:9]"
N        1.59712461       0.51276175      -1.06480054
C        1.85151861      -0.36122002      -0.03715463
O        2.99371646      -0.63796968       0.29356569
C        0.66215263      -0.82852607       0.78847618
N       -0.47646799       0.02804513       0.69799104
C       -1.65425569       0.78219505       0.56566843
C       -1.70928578      -0.54034303       0.10747497
H        2.40402713       0.89634088      -1.60401332
H        0.65668353       0.64573579      -1.42448331
H        0.40484686      -1.84286231       0.44735162
H        0.96947442      -0.88469872       1.83668785
H       -2.27468687       1.47705552       1.18380606
H       -1.64426696       1.59217646      -0.91850401
H       -2.24778074      -1.38166298       0.53181508
H       -1.53280021       0.54297223      -1.40388112
15
Frame=15 idx=010447 GeodesicLength=1.4917820703449618 rxn_smarts="[N:1]([C:2](=[O:3])[C:4]([N:5]1[C:6]([H:12])([H:13])[C:7]1([H:14])[H:15])([H:10])[H:11])([H:8])[H:9]>>[H:13][H:15].[N:1]([C:2](=[O:3])[C:4]([N:5]1[C:6]([H:12])=[C:7]1[H:14])([H:10])[H:11])([H:8])[H:9]"
N        1.62176370       0.55385760      -1.03945436
C        1.85118185      -0.37344200      -0.05047122
O        2.98896213      -0.67940129       0.27276585
C        0.65307635      -0.83889798       0.76233694
N       -0.46436149       0.04917816       0.70177633
C       -1.65671040       0.79941763       0.54990166
C       -1.71968300      -0.53926588       0.17723198
H        2.44101097       0.93940804      -1.56409988
H        0.68817414       0.72943260      -1.39800047
H        0.36890822      -1.83436692       0.38622455
H        0.96170605      -0.94064739       1.80710148
H       -2.27949584       1.51376070       1.14877773
H       -1.67931647       1.53880747      -0.96942578
H       -2.24811193      -1.36711204       0.63765502
H       -1.52710430       0.44927132      -1.42231983
15
Frame=16 idx=010447 GeodesicLength=1.590335865259013 rxn_smarts="[N:1]([C:2](=[O:3])[C:4]([N:5]1[C:6]([H:12])([H:13])[C:7]1([H:14])[H:15])([H:10])[H:11])([H:8])[H:9]>>[H:13][H:15].[N:1]([C:2](=[O:3])[C:4]([N:5]1[C:6]([H:12])=[C:7]1[H:14])([H:10])[H:11])([H:8])[H:9]"
N        1.64558780       0.59488404      -1.01244836
C        1.84855769      -0.38528103      -0.06652749
O        2.98143835      -0.72218572       0.24627126
C        0.64276422      -0.84829521       0.73517185
N       -0.45289755       0.06980712       0.70720413
C       -1.66004254       0.81512131       0.53268073
C       -1.72841907      -0.53492602       0.24819728
H        2.47719866       0.98241861      -1.52182359
H        0.72002801       0.81568476      -1.36614740
H        0.33046054      -1.82230738       0.32443426
H        0.95302435      -0.99610935       1.77430218
H       -2.28616729       1.54952906       1.10923711
H       -1.71036601       1.48013725      -1.01903050
H       -2.24536818      -1.34879221       0.74380357
H       -1.51579899       0.35031478      -1.43532503
