15
Frame=0 idx=008179 GeodesicLength=0.0 rxn_smarts="[C:1]1([H:8])([H:9])[C@@:2]2([H:10])[O:3][C@:4]3([H:11])[C:5]([H:12])([H:13])[C@@:6]2([H:14])[C@:7]13[H:15]>>[C:1]1([H:8])([H:9])[C:2][C@@:6]2([H:14])[C:5]([H:12])([H:13])[C@:4]([O:3][H:10])([H:11])[C@@:7]12[H:15]"
C       -1.66904503      -0.05647871      -0.17863907
C       -0.88183333      -0.14786294       1.10532784
O        0.21450810      -1.71674946       0.22492701
C        0.77194434      -0.71486795      -0.56610095
C        1.50574243       0.27533181       0.35930239
C        0.11787629       0.88488693       0.55765234
C       -0.34495049       0.36918377      -0.83074325
H       -2.24395509      -0.92177318      -0.50156776
H       -2.30701261       0.83321926      -0.13662656
H       -0.27962207      -1.31006816       1.20155202
H        1.28322120      -1.16575566      -1.41667379
H        2.02577120      -0.16187311       1.21168875
H        2.15538265       0.96500653      -0.18180397
H       -0.04515529       1.90719331       0.89760063
H       -0.30287231       0.96060761      -1.74589568
15
Frame=1 idx=008179 GeodesicLength=0.06210222050913593 rxn_smarts="[C:1]1([H:8])([H:9])[C@@:2]2([H:10])[O:3][C@:4]3([H:11])[C:5]([H:12])([H:13])[C@@:6]2([H:14])[C@:7]13[H:15]>>[C:1]1([H:8])([H:9])[C:2][C@@:6]2([H:14])[C:5]([H:12])([H:13])[C@:4]([O:3][H:10])([H:11])[C@@:7]12[H:15]"
C       -1.66585374      -0.05522358      -0.17517107
C       -0.87127420      -0.14412851       1.10563665
O        0.21573901      -1.71863474       0.21723583
C        0.77165411      -0.71183883      -0.57057304
C        1.50251963       0.27457234       0.35978362
C        0.11702910       0.89379482       0.55030955
C       -0.34546494       0.36908737      -0.83519298
H       -2.24222372      -0.92171208      -0.49309239
H       -2.30891704       0.83040815      -0.12917413
H       -0.28380408      -1.33191926       1.20828947
H        1.28766508      -1.15491418      -1.42196799
H        2.00589315      -0.16289593       1.22235958
H        2.16366382       0.96023586      -0.17184656
H       -0.03724040       1.91810938       0.88724456
H       -0.30938579       0.95505918      -1.75384110
15
Frame=2 idx=008179 GeodesicLength=0.12421864374052416 rxn_smarts="[C:1]1([H:8])([H:9])[C@@:2]2([H:10])[O:3][C@:4]3([H:11])[C:5]([H:12])([H:13])[C@@:6]2([H:14])[C@:7]13[H:15]>>[C:1]1([H:8])([H:9])[C:2][C@@:6]2([H:14])[C:5]([H:12])([H:13])[C@:4]([O:3][H:10])([H:11])[C@@:7]12[H:15]"
C       -1.66259879      -0.05391523      -0.17168288
C       -0.86061277      -0.14040749       1.10589911
O        0.21705939      -1.72042441       0.20976773
C        0.77140984      -0.70880476      -0.57496679
C        1.49927861       0.27391905       0.36026940
C        0.11618704       0.90271643       0.54295331
C       -0.34595008       0.36899305      -0.83961819
H       -2.24038676      -0.92158962      -0.48461094
H       -2.31070348       0.82761796      -0.12157525
H       -0.28851965      -1.35416870       1.21470298
H        1.29212611      -1.14410865      -1.42707928
H        1.98608359      -0.16368798       1.23261884
H        2.17179678       0.95546159      -0.16174553
H       -0.02924269       1.92898698       0.87680949
H       -0.31592713       0.94941177      -1.76174199
15
Frame=3 idx=008179 GeodesicLength=0.18633681258778517 rxn_smarts="[C:1]1([H:8])([H:9])[C@@:2]2([H:10])[O:3][C@:4]3([H:11])[C:5]([H:12])([H:13])[C@@:6]2([H:14])[C@:7]13[H:15]>>[C:1]1([H:8])([H:9])[C:2][C@@:6]2([H:14])[C:5]([H:12])([H:13])[C@:4]([O:3][H:10])([H:11])[C@@:7]12[H:15]"
C       -1.65928263      -0.05255564      -0.16817830
C       -0.84986524      -0.13669606       1.10611746
O        0.21846769      -1.72211750       0.20253360
C        0.77120996      -0.70576764      -0.57927920
C        1.49602416       0.27337615       0.36075331
C        0.11534911       0.91164182       0.53559454
C       -0.34640519       0.36890122      -0.84401297
H       -2.23844408      -0.92140857      -0.47613113
H       -2.31237295       0.82484705      -0.11384013
H       -0.29376815      -1.37680579       1.22078736
H        1.29659829      -1.13334397      -1.43200765
H        1.96636806      -0.16425072       1.24246516
H        2.17977332       0.95069466      -0.15151386
H       -0.02115973       1.93981726       0.86630076
H       -0.32249262       0.94366771      -1.76958895
15
Frame=4 idx=008179 GeodesicLength=0.24845295783582627 rxn_smarts="[C:1]1([H:8])([H:9])[C@@:2]2([H:10])[O:3][C@:4]3([H:11])[C:5]([H:12])([H:13])[C@@:6]2([H:14])[C@:7]13[H:15]>>[C:1]1([H:8])([H:9])[C:2][C@@:6]2([H:14])[C:5]([H:12])([H:13])[C@:4]([O:3][H:10])([H:11])[C@@:7]12[H:15]"
C       -1.65590808      -0.05114698      -0.16466144
C       -0.83904842      -0.13298853       1.10629406
O        0.21996109      -1.72371387       0.19554066
C        0.77105246      -0.70272897      -0.58350765
C        1.49276079       0.27294664       0.36123008
C        0.11451420       0.92056184       0.52824374
C       -0.34682984       0.36881281      -0.84837172
H       -2.23639591      -0.92117250      -0.46765978
H       -2.31392742       0.82209324      -0.10598016
H       -0.29954407      -1.39981958       1.22654198
H        1.30107588      -1.12262321      -1.43675448
H        1.94677023      -0.16458731       1.25189918
H        2.18758669       0.94594493      -0.14116403
H       -0.01298897       1.95059180       0.85572229
H       -0.32907864       0.93782969      -1.77737273
15
Frame=5 idx=008179 GeodesicLength=0.31056142977366485 rxn_smarts="[C:1]1([H:8])([H:9])[C@@:2]2([H:10])[O:3][C@:4]3([H:11])[C:5]([H:12])([H:13])[C@@:6]2([H:14])[C@:7]13[H:15]>>[C:1]1([H:8])([H:9])[C:2][C@@:6]2([H:14])[C:5]([H:12])([H:13])[C@:4]([O:3][H:10])([H:11])[C@@:7]12[H:15]"
C       -1.65247823      -0.04969105      -0.16113605
C       -0.82817878      -0.12927842       1.10643175
O        0.22153630      -1.72521253       0.18879770
C        0.77093504      -0.69968970      -0.58764942
C        1.48949288       0.27263424       0.36169434
C        0.11368094       0.92946889       0.52091082
C       -0.34722391       0.36872902      -0.85268926
H       -2.23424298      -0.92088459      -0.45920274
H       -2.31536936       0.81935477      -0.09800715
H       -0.30583892      -1.42320360       1.23196319
H        1.30555257      -1.11195048      -1.44132036
H        1.92731367      -0.16470169       1.26092295
H        2.19523087       0.94122173      -0.13070798
H       -0.00472865       1.96130273       0.84507730
H       -0.33568143       0.93190068      -1.78508508
15
Frame=6 idx=008179 GeodesicLength=0.37266773865784975 rxn_smarts="[C:1]1([H:8])([H:9])[C@@:2]2([H:10])[O:3][C@:4]3([H:11])[C:5]([H:12])([H:13])[C@@:6]2([H:14])[C@:7]13[H:15]>>[C:1]1([H:8])([H:9])[C:2][C@@:6]2([H:14])[C:5]([H:12])([H:13])[C@:4]([O:3][H:10])([H:11])[C@@:7]12[H:15]"
C       -1.64899627      -0.04818963      -0.15760573
C       -0.81727324      -0.12555768       1.10653382
O        0.22318925      -1.72661333       0.18230993
C        0.77085536      -0.69665076      -0.59170172
C        1.48622412       0.27244125       0.36214271
C        0.11284830       0.93835601       0.51360492
C       -0.34758741       0.36865079      -0.85696076
H       -2.23198665      -0.92054796      -0.45076497
H       -2.31670104       0.81663059      -0.08993401
H       -0.31264100      -1.44695562       1.23705112
H        1.31002247      -1.10132758      -1.44570602
H        1.90802040      -0.16459705       1.26953745
H        2.20269924       0.93653303      -0.12015581
H        0.00362380       1.97194457       0.83436694
H       -0.34229733       0.92588334      -1.79271786
15
Frame=7 idx=008179 GeodesicLength=0.43476046533535717 rxn_smarts="[C:1]1([H:8])([H:9])[C@@:2]2([H:10])[O:3][C@:4]3([H:11])[C:5]([H:12])([H:13])[C@@:6]2([H:14])[C@:7]13[H:15]>>[C:1]1([H:8])([H:9])[C:2][C@@:6]2([H:14])[C:5]([H:12])([H:13])[C@:4]([O:3][H:10])([H:11])[C@@:7]12[H:15]"
C       -1.64546547      -0.04664425      -0.15407351
C       -0.80634704      -0.12181833       1.10660377
O        0.22491604      -1.72791547       0.17608531
C        0.77081075      -0.69361335      -0.59566125
C        1.48295956       0.27236951       0.36257154
C        0.11201543       0.94721767       0.50633481
C       -0.34792006       0.36857949      -0.86118128
H       -2.22962807      -0.92016560      -0.44235105
H       -2.31792575       0.81391865      -0.08177155
H       -0.31994088      -1.47107361       1.24179882
H        1.31447954      -1.09075852      -1.44991216
H        1.88891080      -0.16427579       1.27774786
H        2.20998851       0.93188761      -0.10952190
H        0.01206865       1.98251164       0.82359401
H       -0.34892200       0.91978033      -1.80026343
15
Frame=8 idx=008179 GeodesicLength=0.4968434663137048 rxn_smarts="[C:1]1([H:8])([H:9])[C@@:2]2([H:10])[O:3][C@:4]3([H:11])[C:5]([H:12])([H:13])[C@@:6]2([H:14])[C@:7]13[H:15]>>[C:1]1([H:8])([H:9])[C:2][C@@:6]2([H:14])[C:5]([H:12])([H:13])[C@:4]([O:3][H:10])([H:11])[C@@:7]12[H:15]"
C       -1.64188924      -0.04505614      -0.15054216
C       -0.79541495      -0.11805018       1.10664534
O        0.22671229      -1.72911806       0.17012810
C        0.77079849      -0.69057734      -0.59952583
C        1.47970235       0.27242199       0.36297724
C        0.11118122       0.95605001       0.49910741
C       -0.34822257       0.36851657      -0.86534727
H       -2.22716917      -0.91974094      -0.43396239
H       -2.31904704       0.81121786      -0.07353213
H       -0.32772411      -1.49556101       1.24620385
H        1.31891805      -1.08024454      -1.45393998
H        1.87000339      -0.16374411       1.28556255
H        2.21709652       0.92729258      -0.09881620
H        0.02060756       1.99299943       0.81275718
H       -0.35555281       0.91359389      -1.80771571
15
Frame=9 idx=008179 GeodesicLength=0.5589129070869374 rxn_smarts="[C:1]1([H:8])([H:9])[C@@:2]2([H:10])[O:3][C@:4]3([H:11])[C:5]([H:12])([H:13])[C@@:6]2([H:14])[C@:7]13[H:15]>>[C:1]1([H:8])([H:9])[C:2][C@@:6]2([H:14])[C:5]([H:12])([H:13])[C@:4]([O:3][H:10])([H:11])[C@@:7]12[H:15]"
C       -1.63827057      -0.04342690      -0.14701359
C       -0.78448909      -0.11424432       1.10666293
O        0.22857442      -1.73022006       0.16444456
C        0.77081658      -0.68754304      -0.60329268
C        1.47645718       0.27260089       0.36335686
C        0.11034493       0.96484957       0.49192965
C       -0.34849495       0.36846307      -0.86945485
H       -2.22461125      -0.91927646      -0.42560167
H       -2.32006764       0.80852693      -0.06522673
H       -0.33598359      -1.52042392       1.25026162
H        1.32333250      -1.06978835      -1.45779028
H        1.85131694      -0.16300254       1.29298507
H        2.22401978       0.92275354      -0.08804928
H        0.02924031       2.00340464       0.80185639
H       -0.36218556       0.90732695      -1.81506800
15
Frame=10 idx=008179 GeodesicLength=0.6209842460958532 rxn_smarts="[C:1]1([H:8])([H:9])[C@@:2]2([H:10])[O:3][C@:4]3([H:11])[C:5]([H:12])([H:13])[C@@:6]2([H:14])[C@:7]13[H:15]>>[C:1]1([H:8])([H:9])[C:2][C@@:6]2([H:14])[C:5]([H:12])([H:13])[C@:4]([O:3][H:10])([H:11])[C@@:7]12[H:15]"
C       -1.63461271      -0.04175671      -0.14348887
C       -0.77358328      -0.11038621       1.10666045
O        0.23049722      -1.73122048       0.15903612
C        0.77086169      -0.68450954      -0.60695935
C        1.47322646       0.27290775       0.36370951
C        0.10950615       0.97361704       0.48480506
C       -0.34873848       0.36842078      -0.87350137
H       -2.22195666      -0.91877553      -0.41726521
H       -2.32099189       0.80584552      -0.05686701
H       -0.34470157      -1.54567906       1.25396606
H        1.32771829      -1.05938952      -1.46146411
H        1.83286540      -0.16205664       1.30002776
H        2.23075908       0.91827587      -0.07722851
H        0.03796927       2.01372691       0.79088592
H       -0.36881898       0.90097982      -1.82231648
15
Frame=11 idx=008179 GeodesicLength=0.6830537560565865 rxn_smarts="[C:1]1([H:8])([H:9])[C@@:2]2([H:10])[O:3][C@:4]3([H:11])[C:5]([H:12])([H:13])[C@@:6]2([H:14])[C@:7]13[H:15]>>[C:1]1([H:8])([H:9])[C:2][C@@:6]2([H:14])[C:5]([H:12])([H:13])[C@:4]([O:3][H:10])([H:11])[C@@:7]12[H:15]"
C       -1.63091839      -0.04004590      -0.13996864
C       -0.76270800      -0.10646502       1.10664274
O        0.23247722      -1.73211768       0.15390786
C        0.77093183      -0.68147668      -0.61052281
C        1.47001360       0.27334495       0.36403373
C        0.10866474       0.98235193       0.47773769
C       -0.34895356       0.36839057      -0.87748406
H       -2.21920726      -0.91823975      -0.40895149
H       -2.32182271       0.80317395      -0.04846306
H       -0.35386927      -1.57134155       1.25730776
H        1.33207084      -1.04904965      -1.46496115
H        1.81466407      -0.16090770       1.30669967
H        2.23731238       0.91386523      -0.06636454
H        0.04679471       2.02396414       0.77984264
H       -0.37545020       0.89455317      -1.82945635
15
Frame=12 idx=008179 GeodesicLength=0.7451291416498552 rxn_smarts="[C:1]1([H:8])([H:9])[C@@:2]2([H:10])[O:3][C@:4]3([H:11])[C:5]([H:12])([H:13])[C@@:6]2([H:14])[C@:7]13[H:15]>>[C:1]1([H:8])([H:9])[C:2][C@@:6]2([H:14])[C:5]([H:12])([H:13])[C@:4]([O:3][H:10])([H:11])[C@@:7]12[H:15]"
C       -1.62719007      -0.03829453      -0.13645179
C       -0.75187220      -0.10246550       1.10661473
O        0.23451117      -1.73290984       0.14906372
C        0.77102457      -0.67844319      -0.61398025
C        1.46682204       0.27391519       0.36432797
C        0.10782094       0.99105742       0.47072900
C       -0.34914142       0.36837355      -0.88140051
H       -2.21636492      -0.91767169      -0.40065503
H       -2.32256352       0.80051194      -0.04002290
H       -0.36347658      -1.59743593       1.26027277
H        1.33638582      -1.03876938      -1.46828231
H        1.79672283      -0.15955867       1.31301594
H        2.24368220       0.90952559      -0.05546519
H        0.05571720       2.03411852       0.76871849
H       -0.38207806       0.88804651      -1.83648464
15
Frame=13 idx=008179 GeodesicLength=0.8072105490207019 rxn_smarts="[C:1]1([H:8])([H:9])[C@@:2]2([H:10])[O:3][C@:4]3([H:11])[C:5]([H:12])([H:13])[C@@:6]2([H:14])[C@:7]13[H:15]>>[C:1]1([H:8])([H:9])[C:2][C@@:6]2([H:14])[C:5]([H:12])([H:13])[C@:4]([O:3][H:10])([H:11])[C@@:7]12[H:15]"
C       -1.62343010      -0.03650202      -0.13293752
C       -0.74108444      -0.09837495       1.10658176
O        0.23659537      -1.73359499       0.14450851
C        0.77113797      -0.67540830      -0.61732793
C        1.46365425       0.27462105       0.36459240
C        0.10697486       0.99973575       0.46378067
C       -0.34930281       0.36837023      -0.88524866
H       -2.21343143      -0.91707257      -0.39237045
H       -2.32321711       0.79786105      -0.03155612
H       -0.37351569      -1.62398726       1.26284793
H        1.34065941      -1.02855022      -1.47142649
H        1.77905479      -0.15800897       1.31898400
H        2.24986835       0.90526132      -0.04453736
H        0.06473692       2.04419075       0.75750755
H       -0.38870033       0.88145912      -1.84339829
15
Frame=14 idx=008179 GeodesicLength=0.8692977400873957 rxn_smarts="[C:1]1([H:8])([H:9])[C@@:2]2([H:10])[O:3][C@:4]3([H:11])[C:5]([H:12])([H:13])[C@@:6]2([H:14])[C@:7]13[H:15]>>[C:1]1([H:8])([H:9])[C:2][C@@:6]2([H:14])[C:5]([H:12])([H:13])[C@:4]([O:3][H:10])([H:11])[C@@:7]12[H:15]"
C       -1.61964050      -0.03466723      -0.12942286
C       -0.73035068      -0.09417635       1.10654957
O        0.23872734      -1.73416971       0.14025038
C        0.77126979      -0.67237123      -0.62056143
C        1.46051386       0.27546608       0.36482635
C        0.10612701       1.00839255       0.45689248
C       -0.34943877       0.36838113      -0.88902624
H       -2.21040865      -0.91644349      -0.38408862
H       -2.32378666       0.79522263      -0.02306880
H       -0.38398070      -1.65103163       1.26500532
H        1.34488737      -1.01839492      -1.47439184
H        1.76166838      -0.15625703       1.32462090
H        2.25587411       0.90107665      -0.03359007
H        0.07385413       2.05418455       0.74619975
H       -0.39531603       0.87478800      -1.85019489
15
Frame=15 idx=008179 GeodesicLength=0.9313894604693477 rxn_smarts="[C:1]1([H:8])([H:9])[C@@:2]2([H:10])[O:3][C@:4]3([H:11])[C:5]([H:12])([H:13])[C@@:6]2([H:14])[C@:7]13[H:15]>>[C:1]1([H:8])([H:9])[C:2][C@@:6]2([H:14])[C:5]([H:12])([H:13])[C@:4]([O:3][H:10])([H:11])[C@@:7]12[H:15]"
C       -1.61582283      -0.03278873      -0.12590471
C       -0.71967614      -0.08985493       1.10652423
O        0.24090475      -1.73463104       0.13629649
C        0.77141847      -0.66933112      -0.62367614
C        1.45740366       0.27645393       0.36503012
C        0.10527845       1.01703314       0.45006315
C       -0.34955016       0.36840600      -0.89273149
H       -2.20729819      -0.91578469      -0.37580037
H       -2.32427428       0.79259923      -0.01456694
H       -0.39486886      -1.67860468       1.26672027
H        1.34906662      -1.00830593      -1.47717616
H        1.74457292      -0.15430042       1.32993910
H        2.26170113       0.89697634      -0.02263084
H        0.08306861       2.06410340       0.73478578
H       -0.40192415       0.86802948      -1.85687250
15
Frame=16 idx=008179 GeodesicLength=0.9934815461324764 rxn_smarts="[C:1]1([H:8])([H:9])[C@@:2]2([H:10])[O:3][C@:4]3([H:11])[C:5]([H:12])([H:13])[C@@:6]2([H:14])[C@:7]13[H:15]>>[C:1]1([H:8])([H:9])[C:2][C@@:6]2([H:14])[C:5]([H:12])([H:13])[C@:4]([O:3][H:10])([H:11])[C@@:7]12[H:15]"
C       -1.61197836      -0.03086479      -0.12237866
C       -0.70906432      -0.08539421       1.10651221
O        0.24312615      -1.73497508       0.13265646
C        0.77158256      -0.66628730      -0.62666671
C        1.45432695       0.27758904       0.36520375
C        0.10443008       1.02566405       0.44329094
C       -0.34963788       0.36844437      -0.89636235
H       -2.20410139      -0.91509626      -0.36749422
H       -2.32468211       0.78999359      -0.00605552
H       -0.40618025      -1.70674671       1.26795989
H        1.35319376      -0.99828672      -1.47977653
H        1.72777612      -0.15213549       1.33495394
H        2.26735261       0.89296555      -0.01166848
H        0.09237994       2.07395116       0.72325459
H       -0.40852386       0.86117880      -1.86342930
