13
Frame=0 idx=003373 GeodesicLength=0.0 rxn_smarts="[C:1]([O:2][C:3](=[O:4])[C:5]([N:6]([H:12])[H:13])([H:10])[H:11])([H:7])([H:8])[H:9]>>[C:1]([O+:2]=[C-:3][O:4][H:12])([H:7])([H:8])[H:9].[C:5](=[N:6][H:13])([H:10])[H:11]"
C        2.42419767       0.48067092      -0.02863601
O        1.43694982      -0.46461067       0.42811788
C        0.17692496      -0.25050583       0.16322977
O       -0.07822446       0.80379977      -0.49911051
C       -1.95798409      -0.78885186       0.52378214
N       -2.43161944       0.06599312      -0.34052843
H        3.37891976       0.09674462       0.31973525
H        2.22831695       1.46450329       0.39569273
H        2.40992602       0.54489726      -1.11587728
H       -1.83776077      -0.47581269       1.55607610
H       -1.94664888      -1.86570105       0.36330000
H       -1.16264484       0.78461759      -0.54476994
H       -2.64035271      -0.39574448      -1.22101169
13
Frame=1 idx=003373 GeodesicLength=0.06985250489613133 rxn_smarts="[C:1]([O:2][C:3](=[O:4])[C:5]([N:6]([H:12])[H:13])([H:10])[H:11])([H:7])([H:8])[H:9]>>[C:1]([O+:2]=[C-:3][O:4][H:12])([H:7])([H:8])[H:9].[C:5](=[N:6][H:13])([H:10])[H:11]"
C        2.42628230       0.48093186      -0.02316834
O        1.43611331      -0.46009660       0.43459318
C        0.17843613      -0.25061365       0.15046925
O       -0.07397416       0.80381370      -0.51142958
C       -1.94672241      -0.79296629       0.52233717
N       -2.43134803       0.06984001      -0.33256179
H        3.37873655       0.10033838       0.33501977
H        2.22782244       1.46846790       0.39133796
H        2.42038238       0.53684470      -1.11099035
H       -1.81712999      -0.48575925       1.55544541
H       -1.95804632      -1.86951182       0.35949720
H       -1.17734013       0.78623388      -0.56109382
H       -2.66321208      -0.38752282      -1.20945604
13
Frame=2 idx=003373 GeodesicLength=0.13962377667201176 rxn_smarts="[C:1]([O:2][C:3](=[O:4])[C:5]([N:6]([H:12])[H:13])([H:10])[H:11])([H:7])([H:8])[H:9]>>[C:1]([O+:2]=[C-:3][O:4][H:12])([H:7])([H:8])[H:9].[C:5](=[N:6][H:13])([H:10])[H:11]"
C        2.42847815       0.48064400      -0.01876005
O        1.43492938      -0.45432618       0.44266469
C        0.17954894      -0.24810087       0.14169898
O       -0.07006732       0.80619429      -0.52016318
C       -1.93584408      -0.79766737       0.52003904
N       -2.43083573       0.07237461      -0.32628293
H        3.37878022       0.10240430       0.34763391
H        2.22971880       1.47241990       0.38545789
H        2.42888874       0.52735695      -1.10708021
H       -1.79968664      -0.49608081       1.55418058
H       -1.96816865      -1.87359461       0.35550933
H       -1.19292642       0.78915413      -0.57514438
H       -2.68281540      -0.38077834      -1.19975367
13
Frame=3 idx=003373 GeodesicLength=0.20942033740374694 rxn_smarts="[C:1]([O:2][C:3](=[O:4])[C:5]([N:6]([H:12])[H:13])([H:10])[H:11])([H:7])([H:8])[H:9]>>[C:1]([O+:2]=[C-:3][O:4][H:12])([H:7])([H:8])[H:9].[C:5](=[N:6][H:13])([H:10])[H:11]"
C        2.43052554       0.48053792      -0.01374621
O        1.43354293      -0.44917644       0.44944441
C        0.18092184      -0.24683479       0.13036323
O       -0.06582301       0.80758249      -0.53106210
C       -1.92447644      -0.80220961       0.51768005
N       -2.43028942       0.07516853      -0.31942389
H        3.37838416       0.10498793       0.36170749
H        2.23051487       1.47608562       0.38054516
H        2.43851377       0.51877998      -1.10240466
H       -1.78040236      -0.50607034       1.55251726
H       -1.97903135      -1.87720057       0.35251293
H       -1.20890807       0.79201465      -0.58949810
H       -2.70347246      -0.37366537      -1.18863557
13
Frame=4 idx=003373 GeodesicLength=0.2792713178760354 rxn_smarts="[C:1]([O:2][C:3](=[O:4])[C:5]([N:6]([H:12])[H:13])([H:10])[H:11])([H:7])([H:8])[H:9]>>[C:1]([O+:2]=[C-:3][O:4][H:12])([H:7])([H:8])[H:9].[C:5](=[N:6][H:13])([H:10])[H:11]"
C        2.43255230       0.48035983      -0.00872320
O        1.43190908      -0.44390468       0.45607602
C        0.18233647      -0.24544306       0.11879558
O       -0.06144633       0.80908842      -0.54221469
C       -1.91296453      -0.80690023       0.51494747
N       -2.42972480       0.07767166      -0.31274409
H        3.37780959       0.10744506       0.37588287
H        2.23147305       1.47964836       0.37553169
H        2.44824909       0.51008233      -1.09760598
H       -1.76107119      -0.51606784       1.55038959
H       -1.98990532      -1.88063070       0.34999100
H       -1.22552826       0.79544615      -0.60300629
H       -2.72368916      -0.36679528      -1.17731998
13
Frame=5 idx=003373 GeodesicLength=0.34915148785836975 rxn_smarts="[C:1]([O:2][C:3](=[O:4])[C:5]([N:6]([H:12])[H:13])([H:10])[H:11])([H:7])([H:8])[H:9]>>[C:1]([O+:2]=[C-:3][O:4][H:12])([H:7])([H:8])[H:9].[C:5](=[N:6][H:13])([H:10])[H:11]"
C        2.43453734       0.48009894      -0.00367767
O        1.43000754      -0.43855007       0.46249009
C        0.18378194      -0.24392732       0.10694665
O       -0.05693463       0.81074232      -0.55362243
C       -1.90128140      -0.81171980       0.51184234
N       -2.42913639       0.07987137      -0.30625417
H        3.37702579       0.10973603       0.39015560
H        2.23257529       1.48306790       0.37049657
H        2.45808125       0.50132927      -1.09266141
H       -1.74165359      -0.52601909       1.54778058
H       -2.00075310      -1.88386320       0.34802482
H       -1.24280770       0.79945056      -0.61570657
H       -2.74344232      -0.36021691      -1.16581441
13
Frame=6 idx=003373 GeodesicLength=0.41907732378138274 rxn_smarts="[C:1]([O:2][C:3](=[O:4])[C:5]([N:6]([H:12])[H:13])([H:10])[H:11])([H:7])([H:8])[H:9]>>[C:1]([O+:2]=[C-:3][O:4][H:12])([H:7])([H:8])[H:9].[C:5](=[N:6][H:13])([H:10])[H:11]"
C        2.43643464       0.47981163       0.00154345
O        1.42781569      -0.43329023       0.46841829
C        0.18531991      -0.24263418       0.09419958
O       -0.05221174       0.81223107      -0.56584879
C       -1.88933661      -0.81661125       0.50840873
N       -2.42853245       0.08190510      -0.29974299
H        3.37592596       0.11203833       0.40492317
H        2.23349098       1.48632209       0.36564844
H        2.46829146       0.49270825      -1.08740347
H       -1.72167716      -0.53587220       1.54467669
H       -2.01171427      -1.88681404       0.34674843
H       -1.26073033       0.80396326      -0.62775634
H       -2.76307609      -0.35375783      -1.15381519
13
Frame=7 idx=003373 GeodesicLength=0.4890496091014615 rxn_smarts="[C:1]([O:2][C:3](=[O:4])[C:5]([N:6]([H:12])[H:13])([H:10])[H:11])([H:7])([H:8])[H:9]>>[C:1]([O+:2]=[C-:3][O:4][H:12])([H:7])([H:8])[H:9].[C:5](=[N:6][H:13])([H:10])[H:11]"
C        2.43824281       0.47946088       0.00688505
O        1.42531443      -0.42808268       0.47392145
C        0.18692094      -0.24141094       0.08077293
O       -0.04729455       0.81370666      -0.57867792
C       -1.87715295      -0.82158915       0.50461222
N       -2.42791363       0.08369967      -0.29330661
H        3.37451460       0.11424352       0.42002621
H        2.23434885       1.48939664       0.36094646
H        2.47875753       0.48416928      -1.08188471
H       -1.70131564      -0.54560695       1.54105653
H       -2.02266926      -1.88949437       0.34618015
H       -1.27934104       0.80904380      -0.63906467
H       -2.78241211      -0.34753635      -1.14146708
13
Frame=8 idx=003373 GeodesicLength=0.5590741729021574 rxn_smarts="[C:1]([O:2][C:3](=[O:4])[C:5]([N:6]([H:12])[H:13])([H:10])[H:11])([H:7])([H:8])[H:9]>>[C:1]([O+:2]=[C-:3][O:4][H:12])([H:7])([H:8])[H:9].[C:5](=[N:6][H:13])([H:10])[H:11]"
C        2.43994204       0.47904222       0.01236432
O        1.42248032      -0.42295349       0.47896161
C        0.18858822      -0.24027992       0.06659692
O       -0.04216576       0.81514516      -0.59218234
C       -1.86471451      -0.82664697       0.50044186
N       -2.42728165       0.08526072      -0.28692518
H        3.37275148       0.11635263       0.43551234
H        2.23511214       1.49228424       0.35641257
H        2.48950078       0.47571999      -1.07608133
H       -1.68051551      -0.55520665       1.53689925
H       -2.03357806      -1.89188192       0.34636048
H       -1.29866158       0.81471871      -0.64960552
H       -2.80145792      -0.34155471      -1.12875498
13
Frame=9 idx=003373 GeodesicLength=0.6291269333848841 rxn_smarts="[C:1]([O:2][C:3](=[O:4])[C:5]([N:6]([H:12])[H:13])([H:10])[H:11])([H:7])([H:8])[H:9]>>[C:1]([O+:2]=[C-:3][O:4][H:12])([H:7])([H:8])[H:9].[C:5](=[N:6][H:13])([H:10])[H:11]"
C        2.44158843       0.47845992       0.01778675
O        1.41933014      -0.41768880       0.48384379
C        0.19022644      -0.23874882       0.05246286
O       -0.03690707       0.81700988      -0.60561914
C       -1.85213530      -0.83183731       0.49583229
N       -2.42667187       0.08637313      -0.28089680
H        3.37076337       0.11807819       0.45085358
H        2.23623752       1.49498101       0.35182466
H        2.50014115       0.46712930      -1.07020331
H       -1.65989601      -0.56465900       1.53221674
H       -2.04415585      -1.89406900       0.34719309
H       -1.31878576       0.82111786      -0.65912449
H       -2.81973520      -0.33614635      -1.11617002
13
Frame=10 idx=003373 GeodesicLength=0.6992448183257168 rxn_smarts="[C:1]([O:2][C:3](=[O:4])[C:5]([N:6]([H:12])[H:13])([H:10])[H:11])([H:7])([H:8])[H:9]>>[C:1]([O+:2]=[C-:3][O:4][H:12])([H:7])([H:8])[H:9].[C:5](=[N:6][H:13])([H:10])[H:11]"
C        2.44310216       0.47778810       0.02335304
O        1.41581781      -0.41253097       0.48821901
C        0.19192082      -0.23728871       0.03755293
O       -0.03141633       0.81885546      -0.61976516
C       -1.83929549      -0.83709012       0.49083167
N       -2.42606744       0.08723482      -0.27493369
H        3.36837802       0.11966616       0.46658782
H        2.23726181       1.49746788       0.34743737
H        2.51104724       0.45862736      -1.06402672
H       -1.63882488      -0.57391817       1.52697485
H       -2.05456452      -1.89593591       0.34883519
H       -1.33967879       0.82816518      -0.66778140
H       -2.83768040      -0.33104110      -1.10328491
13
Frame=11 idx=003373 GeodesicLength=0.7694286422859441 rxn_smarts="[C:1]([O:2][C:3](=[O:4])[C:5]([N:6]([H:12])[H:13])([H:10])[H:11])([H:7])([H:8])[H:9]>>[C:1]([O+:2]=[C-:3][O:4][H:12])([H:7])([H:8])[H:9].[C:5](=[N:6][H:13])([H:10])[H:11]"
C        2.44447843       0.47699773       0.02902550
O        1.41192976      -0.40744863       0.49213254
C        0.19364683      -0.23579511       0.02201376
O       -0.02570121       0.82077117      -0.63449969
C       -1.82621733      -0.84240660       0.48542136
N       -2.42547845       0.08779690      -0.26910165
H        3.36559267       0.12104553       0.48261738
H        2.23826528       1.49973666       0.34320981
H        2.52213591       0.45015767      -1.05758731
H       -1.61742049      -0.58295374       1.52116592
H       -2.06468303      -1.89748848       0.35128995
H       -1.36138265       0.83591656      -0.67545632
H       -2.85516573      -0.32632968      -1.09023125
13
Frame=12 idx=003373 GeodesicLength=0.8396929946512633 rxn_smarts="[C:1]([O:2][C:3](=[O:4])[C:5]([N:6]([H:12])[H:13])([H:10])[H:11])([H:7])([H:8])[H:9]>>[C:1]([O+:2]=[C-:3][O:4][H:12])([H:7])([H:8])[H:9].[C:5](=[N:6][H:13])([H:10])[H:11]"
C        2.44567719       0.47609154       0.03484331
O        1.40763188      -0.40250203       0.49549993
C        0.19541533      -0.23435457       0.00567263
O       -0.01973278       0.82266320      -0.65000763
C       -1.81287538      -0.84776459       0.47960313
N       -2.42489626       0.08809221      -0.26335074
H        3.36233228       0.12224948       0.49905538
H        2.23913956       1.50177633       0.33918970
H        2.53346653       0.44175024      -1.05083304
H       -1.59555283      -0.59173062       1.51476754
H       -2.07446746      -1.89868801       0.35460975
H       -1.38390992       0.84439637      -0.68209085
H       -2.87222813      -0.32197956      -1.07695913
13
Frame=13 idx=003373 GeodesicLength=0.910037111146763 rxn_smarts="[C:1]([O:2][C:3](=[O:4])[C:5]([N:6]([H:12])[H:13])([H:10])[H:11])([H:7])([H:8])[H:9]>>[C:1]([O+:2]=[C-:3][O:4][H:12])([H:7])([H:8])[H:9].[C:5](=[N:6][H:13])([H:10])[H:11]"
C        2.44669806       0.47503425       0.04075386
O        1.40291369      -0.39763682       0.49839722
C        0.19719340      -0.23283284      -0.01127036
O       -0.01352535       0.82464364      -0.66612530
C       -1.79930414      -0.85316456       0.47336385
N       -2.42433655       0.08805695      -0.25776672
H        3.35860490       0.12319423       0.51577194
H        2.23999449       1.50358189       0.33530616
H        2.54493052       0.43331746      -1.04381581
H       -1.57338437      -0.60021125       1.50778347
H       -2.08377272      -1.89955080       0.35877523
H       -1.40730950       0.85367387      -0.68751896
H       -2.88870243      -0.31810604      -1.06365459
13
Frame=14 idx=003373 GeodesicLength=0.9804441159765148 rxn_smarts="[C:1]([O:2][C:3](=[O:4])[C:5]([N:6]([H:12])[H:13])([H:10])[H:11])([H:7])([H:8])[H:9]>>[C:1]([O+:2]=[C-:3][O:4][H:12])([H:7])([H:8])[H:9].[C:5](=[N:6][H:13])([H:10])[H:11]"
C        2.44759430       0.47375519       0.04662359
O        1.39780834      -0.39271808       0.50101231
C        0.19890465      -0.23089479      -0.02828846
O       -0.00713693       0.82703828      -0.68234138
C       -1.78559898      -0.85860837       0.46670039
N       -2.42385829       0.08752847      -0.25257714
H        3.35452727       0.12366507       0.53239178
H        2.24115169       1.50513289       0.33144495
H        2.55627021       0.42472121      -1.03669024
H       -1.55134848      -0.60830270       1.50026564
H       -2.09237745      -1.90014204       0.36373242
H       -1.43168311       0.86382757      -0.69152235
H       -2.90425322      -0.31500270      -1.05075149
13
Frame=15 idx=003373 GeodesicLength=1.0509190040076097 rxn_smarts="[C:1]([O:2][C:3](=[O:4])[C:5]([N:6]([H:12])[H:13])([H:10])[H:11])([H:7])([H:8])[H:9]>>[C:1]([O+:2]=[C-:3][O:4][H:12])([H:7])([H:8])[H:9].[C:5](=[N:6][H:13])([H:10])[H:11]"
C        2.44835607       0.47224152       0.05245036
O        1.39230607      -0.38774654       0.50333881
C        0.20053651      -0.22853527      -0.04539547
O       -0.00055947       0.82983710      -0.69869435
C       -1.77176914      -0.86407175       0.45963198
N       -2.42348230       0.08649678      -0.24779266
H        3.35008316       0.12365057       0.54892508
H        2.24260536       1.50642123       0.32759619
H        2.56748019       0.41592928      -1.02945779
H       -1.52944507      -0.61594836       1.49223278
H       -2.10019839      -1.90045671       0.36947716
H       -1.45707890       0.87489295      -0.69395939
H       -2.91883410      -0.31271081      -1.03835269
13
Frame=16 idx=003373 GeodesicLength=1.121481797980643 rxn_smarts="[C:1]([O:2][C:3](=[O:4])[C:5]([N:6]([H:12])[H:13])([H:10])[H:11])([H:7])([H:8])[H:9]>>[C:1]([O+:2]=[C-:3][O:4][H:12])([H:7])([H:8])[H:9].[C:5](=[N:6][H:13])([H:10])[H:11]"
C        2.44893498       0.47050310       0.05828388
O        1.38636670      -0.38277773       0.50529115
C        0.20210308      -0.22588482      -0.06282340
O        0.00624279       0.83288636      -0.71545329
C       -1.75778589      -0.86952148       0.45218131
N       -2.42319890       0.08501841      -0.24333549
H        3.34518125       0.12322444       0.56553888
H        2.24420698       1.50744474       0.32378257
H        2.57864855       0.40694616      -1.02205199
H       -1.50749610      -0.62311308       1.48367952
H       -2.10719414      -1.90045851       0.37602226
H       -1.48351236       0.88688812      -0.69469736
H       -2.93249694      -0.31115571      -1.02641804
