12
Frame=0 idx=004915 GeodesicLength=0.0 rxn_smarts="[O:1]=[C:2]1[C:3]([H:7])([H:8])[C:4]([H:9])([H:10])[O:5][C:6]1([H:11])[H:12]>>[O:1]=[C:2]([C:3]([H:7])([H:8])[H:9])[C:6]([O+:5]=[C-:4][H:10])([H:11])[H:12]"
O        0.83932992       2.01873963       0.77961154
C        0.38001236       1.02317748       0.27605051
C       -1.04613210       0.72408257       0.04483123
C       -0.53253393      -1.48903673      -0.06093429
O        0.53851057      -1.12945709      -0.75141634
C        1.30252799      -0.16431278      -0.04157381
H       -1.33767496       0.61967100      -0.99542544
H       -1.73061145       1.32914541       0.63113186
H       -0.96466978      -0.56381125       0.64123919
H       -1.25705314      -1.93137194      -0.75732269
H        2.13662723       0.13731738      -0.67007780
H        1.67166732      -0.57414372       0.90388602
12
Frame=1 idx=004915 GeodesicLength=0.05545770931380744 rxn_smarts="[O:1]=[C:2]1[C:3]([H:7])([H:8])[C:4]([H:9])([H:10])[O:5][C:6]1([H:11])[H:12]>>[O:1]=[C:2]([C:3]([H:7])([H:8])[H:9])[C:6]([O+:5]=[C-:4][H:10])([H:11])[H:12]"
O        0.83929155       2.02509251       0.76508117
C        0.38205889       1.02419449       0.27139490
C       -1.04586716       0.71639079       0.04831212
C       -0.53681893      -1.48679998      -0.06835032
O        0.54204658      -1.13066905      -0.75106740
C        1.30370688      -0.16435887      -0.04039313
H       -1.33879425       0.63161080      -0.99382499
H       -1.72632174       1.32558347       0.63529314
H       -0.97655263      -0.56598563       0.66250790
H       -1.25208000      -1.93698219      -0.76924220
H        2.14027057       0.13599839      -0.66639166
H        1.66906023      -0.57407472       0.90668047
12
Frame=2 idx=004915 GeodesicLength=0.11090206335980335 rxn_smarts="[O:1]=[C:2]1[C:3]([H:7])([H:8])[C:4]([H:9])([H:10])[O:5][C:6]1([H:11])[H:12]>>[O:1]=[C:2]([C:3]([H:7])([H:8])[H:9])[C:6]([O+:5]=[C-:4][H:10])([H:11])[H:12]"
O        0.83916783       2.03122573       0.75069058
C        0.38409749       1.02516566       0.26671538
C       -1.04554572       0.70872529       0.05167652
C       -0.54109517      -1.48442467      -0.07574652
O        0.54562873      -1.13200553      -0.75064266
C        1.30490251      -0.16440610      -0.03926472
H       -1.33993770       0.64376601      -0.99197939
H       -1.72192615       1.32198125       0.63943172
H       -0.98879898      -0.56797118       0.68343050
H       -1.24686515      -1.94280010      -0.78092489
H        2.14386769       0.13471659      -0.66279708
H        1.66650463      -0.57397293       0.90941056
12
Frame=3 idx=004915 GeodesicLength=0.16633940161969957 rxn_smarts="[O:1]=[C:2]1[C:3]([H:7])([H:8])[C:4]([H:9])([H:10])[O:5][C:6]1([H:11])[H:12]>>[O:1]=[C:2]([C:3]([H:7])([H:8])[H:9])[C:6]([O+:5]=[C-:4][H:10])([H:11])[H:12]"
O        0.83896617       2.03712597       0.73647891
C        0.38613370       1.02609399       0.26200661
C       -1.04516278       0.70108689       0.05491655
C       -0.54535111      -1.48193076      -0.08312972
O        0.54925170      -1.13345241      -0.75015112
C        1.30611361      -0.16444804      -0.03819659
H       -1.34109165       0.65610381      -0.98988338
H       -1.71742017       1.31833848       0.64352952
H       -1.00143348      -0.56974193       0.70401813
H       -1.24141875      -1.94882539      -0.79234899
H        2.14741771       0.13348626      -0.65930150
H        1.66399503      -0.57383688       0.91206159
12
Frame=4 idx=004915 GeodesicLength=0.2217607657301615 rxn_smarts="[O:1]=[C:2]1[C:3]([H:7])([H:8])[C:4]([H:9])([H:10])[O:5][C:6]1([H:11])[H:12]>>[O:1]=[C:2]([C:3]([H:7])([H:8])[H:9])[C:6]([O+:5]=[C-:4][H:10])([H:11])[H:12]"
O        0.83869670       2.04282364       0.72239679
C        0.38816947       1.02698485       0.25725786
C       -1.04472452       0.69347774       0.05804238
C       -0.54957451      -1.47933706      -0.09052849
O        0.55292122      -1.13499937      -0.74960759
C        1.30734552      -0.16448999      -0.03717942
H       -1.34229019       0.66861070      -0.98751084
H       -1.71280041       1.31465949       0.64761778
H       -1.01447215      -0.57129391       0.72427551
H       -1.23573635      -1.95505321      -0.80353756
H        2.15094348       0.13228941      -0.65588022
H        1.66152175      -0.57367228       0.91465379
12
Frame=5 idx=004915 GeodesicLength=0.2771742863560127 rxn_smarts="[O:1]=[C:2]1[C:3]([H:7])([H:8])[C:4]([H:9])([H:10])[O:5][C:6]1([H:11])[H:12]>>[O:1]=[C:2]([C:3]([H:7])([H:8])[H:9])[C:6]([O+:5]=[C-:4][H:10])([H:11])[H:12]"
O        0.83836158       2.04830781       0.70848827
C        0.39020626       1.02783914       0.25247207
C       -1.04422906       0.68589994       0.06104903
C       -0.55374951      -1.47666111      -0.09794916
O        0.55663399      -1.13663829      -0.74902274
C        1.30859730      -0.16452863      -0.03622184
H       -1.34351866       0.68125612      -0.98486494
H       -1.70806651       1.31095724       0.65167429
H       -1.02793794      -0.57260413       0.74422029
H       -1.22982456      -1.96148329      -0.81447035
H        2.15443633       0.13113747      -0.65254769
H        1.65909078      -0.57348226       0.91717278
12
Frame=6 idx=004915 GeodesicLength=0.3325788950400269 rxn_smarts="[O:1]=[C:2]1[C:3]([H:7])([H:8])[C:4]([H:9])([H:10])[O:5][C:6]1([H:11])[H:12]>>[O:1]=[C:2]([C:3]([H:7])([H:8])[H:9])[C:6]([O+:5]=[C-:4][H:10])([H:11])[H:12]"
O        0.83796886       2.05358575       0.69474788
C        0.39224729       1.02865958       0.24764135
C       -1.04367878       0.67835177       0.06393998
C       -0.55786660      -1.47391876      -0.10540859
O        0.56039264      -1.13835832      -0.74840737
C        1.30987319      -0.16456374      -0.03532334
H       -1.34478894       0.69401985      -0.98193246
H       -1.70321744       1.30723299       0.65570378
H       -1.04184975      -0.57365586       0.76386312
H       -1.22368848      -1.96811262      -0.82514930
H        2.15790928       0.13003003      -0.64929608
H        1.65669872      -0.57327067       0.91962104
12
Frame=7 idx=004915 GeodesicLength=0.3879596081734465 rxn_smarts="[O:1]=[C:2]1[C:3]([H:7])([H:8])[C:4]([H:9])([H:10])[O:5][C:6]1([H:11])[H:12]>>[O:1]=[C:2]([C:3]([H:7])([H:8])[H:9])[C:6]([O+:5]=[C-:4][H:10])([H:11])[H:12]"
O        0.83752368       2.05866427       0.68116783
C        0.39429452       1.02944834       0.24275619
C       -1.04307182       0.67083066       0.06672067
C       -0.56191508      -1.47112214      -0.11292565
O        0.56419855      -1.14015009      -0.74777224
C        1.31117233      -0.16459559      -0.03448261
H       -1.34611327       0.70687875      -0.97869797
H       -1.69824393       1.30348681       0.65971571
H       -1.05621957      -0.57442743       0.78321006
H       -1.21732749      -1.97493860      -0.83557903
H        2.16136784       0.12896228      -0.64611476
H        1.65433423      -0.57303724       0.92200179
12
Frame=8 idx=004915 GeodesicLength=0.44333569499164366 rxn_smarts="[O:1]=[C:2]1[C:3]([H:7])([H:8])[C:4]([H:9])([H:10])[O:5][C:6]1([H:11])[H:12]>>[O:1]=[C:2]([C:3]([H:7])([H:8])[H:9])[C:6]([O+:5]=[C-:4][H:10])([H:11])[H:12]"
O        0.83702898       2.06353410       0.66779348
C        0.39634788       1.03020341       0.23782595
C       -1.04241146       0.66333338       0.06938841
C       -0.56588168      -1.46828883      -0.12050297
O        0.56805104      -1.14200789      -0.74712733
C        1.31249843      -0.16462066      -0.03370938
H       -1.34746941       0.71980304      -0.97516803
H       -1.69315540       1.29973436       0.66367816
H       -1.07107419      -0.57489998       0.80228993
H       -1.21075598      -1.98195390      -0.84574275
H        2.16480611       0.12795074      -0.64302370
H        1.65201569      -0.57278778       0.92429822
12
Frame=9 idx=004915 GeodesicLength=0.4987001404246558 rxn_smarts="[O:1]=[C:2]1[C:3]([H:7])([H:8])[C:4]([H:9])([H:10])[O:5][C:6]1([H:11])[H:12]>>[O:1]=[C:2]([C:3]([H:7])([H:8])[H:9])[C:6]([O+:5]=[C-:4][H:10])([H:11])[H:12]"
O        0.83649238       2.06821756       0.65456563
C        0.39840970       1.03092752       0.23283308
C       -1.04169808       0.65585434       0.07195893
C       -0.56976136      -1.46542349      -0.12817351
O        0.57195720      -1.14391934      -0.74648492
C        1.31385253      -0.16464272      -0.03299422
H       -1.34888756       0.73277935      -0.97131553
H       -1.68793795       1.29596295       0.66763121
H       -1.08642475      -0.57505351       0.82110908
H       -1.20396544      -1.98915783      -0.85566656
H        2.16824578       0.12697804      -0.63999196
H        1.64971756      -0.57252287       0.92652876
12
Frame=10 idx=004915 GeodesicLength=0.5540381200540846 rxn_smarts="[O:1]=[C:2]1[C:3]([H:7])([H:8])[C:4]([H:9])([H:10])[O:5][C:6]1([H:11])[H:12]>>[O:1]=[C:2]([C:3]([H:7])([H:8])[H:9])[C:6]([O+:5]=[C-:4][H:10])([H:11])[H:12]"
O        0.83591598       2.07270819       0.64152896
C        0.40048003       1.03161880       0.22778525
C       -1.04093347       0.64838925       0.07443219
C       -0.57353907      -1.46254751      -0.13593526
O        0.57591704      -1.14588404      -0.74585270
C        1.31523727      -0.16465877      -0.03234571
H       -1.35035157       0.74578100      -0.96714283
H       -1.68259803       1.29219040       0.67154510
H       -1.10229315      -0.57486938       0.83967965
H       -1.19697031      -1.99654145      -0.86533480
H        2.17167791       0.12606048      -0.63703870
H        1.64745738      -0.57224699       0.92867884
12
Frame=11 idx=004915 GeodesicLength=0.609371266809035 rxn_smarts="[O:1]=[C:2]1[C:3]([H:7])([H:8])[C:4]([H:9])([H:10])[O:5][C:6]1([H:11])[H:12]>>[O:1]=[C:2]([C:3]([H:7])([H:8])[H:9])[C:6]([O+:5]=[C-:4][H:10])([H:11])[H:12]"
O        0.83530779       2.07702665       0.62861774
C        0.40256111       1.03228042       0.22266160
C       -1.04011840       0.64092968       0.07682592
C       -0.57721609      -1.45965714      -0.14382809
O        0.57993838      -1.14788830      -0.74524143
C        1.31665428      -0.16467118      -0.03175372
H       -1.35188978       0.75878589      -0.96262531
H       -1.67711833       1.28840063       0.67546201
H       -1.11868960      -0.57432489       0.85802748
H       -1.18976280      -2.00410349      -0.87478426
H        2.17512627       0.12518237      -0.63412896
H        1.64520718      -0.57196062       0.93076702
12
Frame=12 idx=004915 GeodesicLength=0.6646879475463798 rxn_smarts="[O:1]=[C:2]1[C:3]([H:7])([H:8])[C:4]([H:9])([H:10])[O:5][C:6]1([H:11])[H:12]>>[O:1]=[C:2]([C:3]([H:7])([H:8])[H:9])[C:6]([O+:5]=[C-:4][H:10])([H:11])[H:12]"
O        0.83466199       2.08115523       0.61588801
C        0.40464791       1.03290377       0.21747305
C       -1.03925513       0.63346802       0.07914141
C       -0.58077392      -1.45677195      -0.15184510
O        0.58402391      -1.14993310      -0.74465795
C        1.31810477      -0.16467835      -0.03123159
H       -1.35347285       0.77176662      -0.95776252
H       -1.67151191       1.28461263       0.67934252
H       -1.13564100      -0.57338908       0.87616587
H       -1.18235064      -2.01182517      -0.88399288
H        2.17857792       0.12435713      -0.63129074
H        1.64298895      -0.57166574       0.93276993
12
Frame=13 idx=004915 GeodesicLength=0.7199905468632312 rxn_smarts="[O:1]=[C:2]1[C:3]([H:7])([H:8])[C:4]([H:9])([H:10])[O:5][C:6]1([H:11])[H:12]>>[O:1]=[C:2]([C:3]([H:7])([H:8])[H:9])[C:6]([O+:5]=[C-:4][H:10])([H:11])[H:12]"
O        0.83399021       2.08512241       0.60328440
C        0.40674498       1.03349561       0.21220884
C       -1.03834419       0.62599966       0.08139588
C       -0.58421424      -1.45389539      -0.16002141
O        0.58817775      -1.15201134      -0.74411443
C        1.31959084      -0.16468207      -0.03076918
H       -1.35512981       0.78470850      -0.95253671
H       -1.66576141       1.28081787       0.68322549
H       -1.15315837      -0.57204219       0.89410912
H       -1.17473018      -2.01972312      -0.89299378
H        2.18205053       0.12357706      -0.62849540
H        1.64078389      -0.57136700       0.93470720
12
Frame=14 idx=004915 GeodesicLength=0.7752928609657124 rxn_smarts="[O:1]=[C:2]1[C:3]([H:7])([H:8])[C:4]([H:9])([H:10])[O:5][C:6]1([H:11])[H:12]>>[O:1]=[C:2]([C:3]([H:7])([H:8])[H:9])[C:6]([O+:5]=[C-:4][H:10])([H:11])[H:12]"
O        0.83329655       2.08894677       0.59075442
C        0.40885054       1.03405318       0.20686348
C       -1.03739034       0.61851476       0.08361161
C       -0.58753485      -1.45103306      -0.16838719
O        0.59240843      -1.15411906      -0.74361974
C        1.32111537      -0.16468568      -0.03036067
H       -1.35687071       0.79759654      -0.94692068
H       -1.65986072       1.27701753       0.68713408
H       -1.17126480      -0.57026381       0.91187775
H       -1.16689121      -2.02779408      -0.90181717
H        2.18555914       0.12283354      -0.62572383
H        1.63858259      -0.57106662       0.93658795
12
Frame=15 idx=004915 GeodesicLength=0.8305933774714555 rxn_smarts="[O:1]=[C:2]1[C:3]([H:7])([H:8])[C:4]([H:9])([H:10])[O:5][C:6]1([H:11])[H:12]>>[O:1]=[C:2]([C:3]([H:7])([H:8])[H:9])[C:6]([O+:5]=[C-:4][H:10])([H:11])[H:12]"
O        0.83258328       2.09263906       0.57824285
C        0.41096274       1.03457044       0.20143283
C       -1.03639257       0.61100138       0.08580856
C       -0.59072855      -1.44818496      -0.17696983
O        0.59672332      -1.15624668      -0.74318293
C        1.32267673      -0.16469061      -0.02999945
H       -1.35870225       0.81041475      -0.94088771
H       -1.65379338       1.27320374       0.69109271
H       -1.18998590      -0.56803013       0.92948439
H       -1.15882176      -2.03603084      -0.91048550
H        2.18910985       0.12212176      -0.62295732
H        1.63636851      -0.57076791       0.93842140
12
Frame=16 idx=004915 GeodesicLength=0.8858764521070689 rxn_smarts="[O:1]=[C:2]1[C:3]([H:7])([H:8])[C:4]([H:9])([H:10])[O:5][C:6]1([H:11])[H:12]>>[O:1]=[C:2]([C:3]([H:7])([H:8])[H:9])[C:6]([O+:5]=[C-:4][H:10])([H:11])[H:12]"
O        0.83184390       2.09618298       0.56578489
C        0.41307876       1.03504416       0.19591160
C       -1.03534811       0.60344895       0.08799200
C       -0.59378705      -1.44535682      -0.18577840
O        0.60112328      -1.15838951      -0.74280899
C        1.32427206      -0.16469470      -0.02969307
H       -1.36061010       0.82312600      -0.93443982
H       -1.64755607       1.26937972       0.69508165
H       -1.20932228      -0.56530064       0.94695465
H       -1.15052753      -2.04441925      -0.91899482
H        2.19269332       0.12145213      -0.62020572
H        1.63413982      -0.57047304       0.94019604
