16
Frame=0 idx=006473 GeodesicLength=0.0 rxn_smarts="[C:1]([C@@:2]([C:3]([O:4][H:14])([H:12])[H:13])([N:5]([C:6](=[O:7])[H:16])[H:15])[H:11])([H:8])([H:9])[H:10]>>[C:1]([C-:2]([N:5]([C:6](=[O+:7][C:3]([O:4][H:14])([H:12])[H:13])[H:16])[H:15])[H:11])([H:8])([H:9])[H:10]"
C       -1.17606874       1.96324254      -0.21968422
C       -0.25161167       0.83162132       0.09497649
C       -0.38475869      -1.90324977       0.22546423
O       -0.58536964      -2.04592954       1.53910693
N        0.92625747       0.76265760      -0.58804107
C        1.76157591      -0.26475379      -0.45632170
O        1.44652444      -1.16785734       0.37162227
H       -0.85776194       2.92580410       0.20624446
H       -2.16956898       1.75536468       0.18075802
H       -1.29503819       2.10637849      -1.29853538
H       -0.21940454       0.42858565       1.09648229
H       -1.21920159      -1.43214660      -0.26947346
H        0.10817985      -2.70556085      -0.30905144
H        0.24915302      -2.30815390       1.94362175
H        1.08937891       1.40810467      -1.34614351
H        2.57771445      -0.35410732      -1.17102563
16
Frame=1 idx=006473 GeodesicLength=0.05152152902369422 rxn_smarts="[C:1]([C@@:2]([C:3]([O:4][H:14])([H:12])[H:13])([N:5]([C:6](=[O:7])[H:16])[H:15])[H:11])([H:8])([H:9])[H:10]>>[C:1]([C-:2]([N:5]([C:6](=[O+:7][C:3]([O:4][H:14])([H:12])[H:13])[H:16])[H:15])[H:11])([H:8])([H:9])[H:10]"
C       -1.17678648       1.95052060      -0.21529551
C       -0.25191199       0.81939176       0.10332186
C       -0.38013222      -1.88496891       0.21394454
O       -0.59617590      -2.03242383       1.52744064
N        0.92906664       0.75861579      -0.57919720
C        1.76850232      -0.26671866      -0.45422849
O        1.45989769      -1.17668907       0.37087720
H       -0.85930150       2.91266105       0.21121733
H       -2.17138958       1.74364567       0.18322369
H       -1.29161879       2.09317337      -1.29456597
H       -0.20342757       0.44495993       1.11573105
H       -1.22683776      -1.44601732      -0.29144489
H        0.10151444      -2.69982197      -0.31407489
H        0.24112102      -2.26208643       1.94577775
H        1.08609517       1.40359368      -1.33888131
H        2.57138449      -0.35783566      -1.18384580
16
Frame=2 idx=006473 GeodesicLength=0.1031421350325687 rxn_smarts="[C:1]([C@@:2]([C:3]([O:4][H:14])([H:12])[H:13])([N:5]([C:6](=[O:7])[H:16])[H:15])[H:11])([H:8])([H:9])[H:10]>>[C:1]([C-:2]([N:5]([C:6](=[O+:7][C:3]([O:4][H:14])([H:12])[H:13])[H:16])[H:15])[H:11])([H:8])([H:9])[H:10]"
C       -1.17746381       1.93791134      -0.21096444
C       -0.25187947       0.80761726       0.11219393
C       -0.37592078      -1.86688239       0.20241493
O       -0.60600321      -2.01917990       1.51590999
N        0.93192277       0.75460892      -0.57022371
C        1.77514031      -0.26895629      -0.45226618
O        1.47278806      -1.18598114       0.36966434
H       -0.86091051       2.89995200       0.21560115
H       -2.17309249       1.73207491       0.18583893
H       -1.28835445       2.07949103      -1.29072698
H       -0.18782297       0.46141615       1.13430997
H       -1.23412274      -1.46004762      -0.31238752
H        0.09419684      -2.69395321      -0.31935651
H        0.23318586      -2.21611189       1.94712090
H        1.08287125       1.39907341      -1.33150768
H        2.56546534      -0.36103259      -1.19562110
16
Frame=3 idx=006473 GeodesicLength=0.1549818369924697 rxn_smarts="[C:1]([C@@:2]([C:3]([O:4][H:14])([H:12])[H:13])([N:5]([C:6](=[O:7])[H:16])[H:15])[H:11])([H:8])([H:9])[H:10]>>[C:1]([C-:2]([N:5]([C:6](=[O+:7][C:3]([O:4][H:14])([H:12])[H:13])[H:16])[H:15])[H:11])([H:8])([H:9])[H:10]"
C       -1.17803321       1.92515655      -0.20664454
C       -0.25150384       0.79621349       0.12158246
C       -0.37218483      -1.84870871       0.19089355
O       -0.61488255      -2.00594882       1.50450592
N        0.93482193       0.75053641      -0.56116195
C        1.78143401      -0.27141715      -0.45047009
O        1.48506047      -1.19558591       0.36785924
H       -0.86253728       2.88732198       0.21931707
H       -2.17458032       1.72042898       0.18872441
H       -1.28514314       2.06499730      -1.28688990
H       -0.17265120       0.47789627       1.15218759
H       -1.24111323      -1.47389411      -0.33198974
H        0.08616311      -2.68751794      -0.32493184
H        0.22522823      -2.17026643       1.94728698
H        1.07968454       1.39426910      -1.32411411
H        2.56023731      -0.36348100      -1.20615505
16
Frame=4 idx=006473 GeodesicLength=0.20691226719232012 rxn_smarts="[C:1]([C@@:2]([C:3]([O:4][H:14])([H:12])[H:13])([N:5]([C:6](=[O:7])[H:16])[H:15])[H:11])([H:8])([H:9])[H:10]>>[C:1]([C-:2]([N:5]([C:6](=[O+:7][C:3]([O:4][H:14])([H:12])[H:13])[H:16])[H:15])[H:11])([H:8])([H:9])[H:10]"
C       -1.17857566       1.91259656      -0.20245107
C       -0.25092936       0.78524409       0.13135917
C       -0.36871202      -1.83079439       0.17934996
O       -0.62277121      -1.99305675       1.49328366
N        0.93779014       0.74657335      -0.55185875
C        1.78750294      -0.27403054      -0.44857969
O        1.49687456      -1.20548433       0.36585436
H       -0.86427546       2.87511172       0.22262563
H       -2.17604370       1.70897022       0.19146629
H       -1.28189375       2.05032190      -1.28324290
H       -0.15804475       0.49444802       1.16944537
H       -1.24770963      -1.48788830      -0.35058377
H        0.07785321      -2.68097300      -0.33069349
H        0.21747434      -2.12471621       1.94668740
H        1.07672388       1.38964754      -1.31637235
H        2.55473646      -0.36596990      -1.21628982
16
Frame=5 idx=006473 GeodesicLength=0.2589400664838104 rxn_smarts="[C:1]([C@@:2]([C:3]([O:4][H:14])([H:12])[H:13])([N:5]([C:6](=[O:7])[H:16])[H:15])[H:11])([H:8])([H:9])[H:10]>>[C:1]([C-:2]([N:5]([C:6](=[O+:7][C:3]([O:4][H:14])([H:12])[H:13])[H:16])[H:15])[H:11])([H:8])([H:9])[H:10]"
C       -1.17906346       1.90020239      -0.19837033
C       -0.25023684       0.77463128       0.14140773
C       -0.36560085      -1.81308278       0.16783966
O       -0.62960454      -1.98044636       1.48233026
N        0.94070211       0.74257863      -0.54251272
C        1.79324143      -0.27685791      -0.44673747
O        1.50814263      -1.21570311       0.36347556
H       -0.86599932       2.86319809       0.22554370
H       -2.17744883       1.69775077       0.19412444
H       -1.27860297       2.03550276      -1.27972591
H       -0.14402921       0.51102059       1.18601125
H       -1.25411150      -1.50193187      -0.36788380
H        0.06911501      -2.67422576      -0.33665911
H        0.21000530      -2.07962594       1.94515582
H        1.07383888       1.38497896      -1.30852702
H        2.54965216      -0.36798976      -1.22547204
16
Frame=6 idx=006473 GeodesicLength=0.31110681771813503 rxn_smarts="[C:1]([C@@:2]([C:3]([O:4][H:14])([H:12])[H:13])([N:5]([C:6](=[O:7])[H:16])[H:15])[H:11])([H:8])([H:9])[H:10]>>[C:1]([C-:2]([N:5]([C:6](=[O+:7][C:3]([O:4][H:14])([H:12])[H:13])[H:16])[H:15])[H:11])([H:8])([H:9])[H:10]"
C       -1.17950912       1.88793856      -0.19443035
C       -0.24940348       0.76439807       0.15175654
C       -0.36279966      -1.79553184       0.15633408
O       -0.63544513      -1.96808755       1.47163358
N        0.94364723       0.73862893      -0.53300220
C        1.79871292      -0.27983848      -0.44485188
O        1.51888932      -1.22616182       0.36083089
H       -0.86780034       2.85156139       0.22807656
H       -2.17882737       1.68667026       0.19660559
H       -1.27520876       2.02049474      -1.27637908
H       -0.13060535       0.52765289       1.20198181
H       -1.26028484      -1.51594029      -0.38396717
H        0.06007612      -2.66723539      -0.34280695
H        0.20281970      -2.03508755       1.94272308
H        1.07116342       1.38039028      -1.30041616
H        2.54457534      -0.36985218      -1.23408833
16
Frame=7 idx=006473 GeodesicLength=0.36347703957957683 rxn_smarts="[C:1]([C@@:2]([C:3]([O:4][H:14])([H:12])[H:13])([N:5]([C:6](=[O:7])[H:16])[H:15])[H:11])([H:8])([H:9])[H:10]>>[C:1]([C-:2]([N:5]([C:6](=[O+:7][C:3]([O:4][H:14])([H:12])[H:13])[H:16])[H:15])[H:11])([H:8])([H:9])[H:10]"
C       -1.17992982       1.87577665      -0.19064646
C       -0.24841620       0.75456776       0.16242622
C       -0.36032963      -1.77809915       0.14480706
O       -0.64031743      -1.95596739       1.46122179
N        0.94665608       0.73474265      -0.52330286
C        1.80393984      -0.28298201      -0.44291510
O        1.52912455      -1.23688436       0.35790734
H       -0.86971027       2.84019543       0.23016211
H       -2.18018986       1.67568230       0.19891457
H       -1.27173780       2.00521496      -1.27322347
H       -0.11771150       0.54437675       1.21743362
H       -1.26634200      -1.52980223      -0.39880137
H        0.05071391      -2.65997387      -0.34919053
H        0.19596563      -1.99118969       1.93936472
H        1.06870543       1.37588224      -1.29203961
H        2.53957907      -0.37154004      -1.24211804
16
Frame=8 idx=006473 GeodesicLength=0.4160051702564215 rxn_smarts="[C:1]([C@@:2]([C:3]([O:4][H:14])([H:12])[H:13])([N:5]([C:6](=[O:7])[H:16])[H:15])[H:11])([H:8])([H:9])[H:10]>>[C:1]([C-:2]([N:5]([C:6](=[O+:7][C:3]([O:4][H:14])([H:12])[H:13])[H:16])[H:15])[H:11])([H:8])([H:9])[H:10]"
C       -1.18031445       1.86367482      -0.18702202
C       -0.24721953       0.74515016       0.17339804
C       -0.35809328      -1.76073912       0.13325902
O       -0.64431540      -1.94402433       1.45097159
N        0.94982093       0.73101228      -0.51329746
C        1.80896366      -0.28619516      -0.44082460
O        1.53884637      -1.24771691       0.35487613
H       -0.87183270       2.82905250       0.23186534
H       -2.18151869       1.66466878       0.20097233
H       -1.26810673       1.98965077      -1.27024063
H       -0.10535141       0.56125145       1.23245828
H       -1.27205396      -1.54347335      -0.41260354
H        0.04121563      -2.65241434      -0.35567559
H        0.18934555      -1.94799295       1.93514950
H        1.06657197       1.37157514      -1.28325099
H        2.53404204      -0.37347974      -1.25003540
16
Frame=9 idx=006473 GeodesicLength=0.468715828919359 rxn_smarts="[C:1]([C@@:2]([C:3]([O:4][H:14])([H:12])[H:13])([N:5]([C:6](=[O:7])[H:16])[H:15])[H:11])([H:8])([H:9])[H:10]>>[C:1]([C-:2]([N:5]([C:6](=[O+:7][C:3]([O:4][H:14])([H:12])[H:13])[H:16])[H:15])[H:11])([H:8])([H:9])[H:10]"
C       -1.18067695       1.85168651      -0.18358739
C       -0.24591706       0.73612583       0.18463214
C       -0.35620192      -1.74346974       0.12170855
O       -0.64734579      -1.93226421       1.44106472
N        0.95300959       0.72732958      -0.50314374
C        1.81371428      -0.28958092      -0.43869677
O        1.54803788      -1.25880415       0.35155325
H       -0.87406497       2.81816602       0.23313384
H       -2.18284165       1.65375283       0.20278055
H       -1.26436340       1.97388150      -1.26746699
H       -0.09351664       0.57825030       1.24698557
H       -1.27775626      -1.55689756      -0.42509132
H        0.03140571      -2.64458933      -0.36236302
H        0.18319165      -1.90578006       1.93001044
H        1.06463519       1.36734959      -1.27422368
H        2.52869034      -0.37515618      -1.25729613
16
Frame=10 idx=006473 GeodesicLength=0.5217098041500129 rxn_smarts="[C:1]([C@@:2]([C:3]([O:4][H:14])([H:12])[H:13])([N:5]([C:6](=[O:7])[H:16])[H:15])[H:11])([H:8])([H:9])[H:10]>>[C:1]([C-:2]([N:5]([C:6](=[O+:7][C:3]([O:4][H:14])([H:12])[H:13])[H:16])[H:15])[H:11])([H:8])([H:9])[H:10]"
C       -1.18104232       1.83978197      -0.18034263
C       -0.24451713       0.72751267       0.19617482
C       -0.35460903      -1.72625632       0.11010125
O       -0.64953009      -1.92064496       1.43148349
N        0.95630679       0.72374523      -0.49274400
C        1.81828651      -0.29310190      -0.43648463
O        1.55676871      -1.27008039       0.34801146
H       -0.87646889       2.80752243       0.23398696
H       -2.18421540       1.64286159       0.20430213
H       -1.26047714       1.95785122      -1.26492815
H       -0.08218321       0.59541663       1.26110760
H       -1.28342919      -1.57001353      -0.43643066
H        0.02141012      -2.63649386      -0.36925387
H        0.17750622      -1.86454613       1.92406535
H        1.06299560       1.36328882      -1.26483736
H        2.52319845      -0.37684347      -1.26421177
16
Frame=11 idx=006473 GeodesicLength=0.5747612192357867 rxn_smarts="[C:1]([C@@:2]([C:3]([O:4][H:14])([H:12])[H:13])([N:5]([C:6](=[O:7])[H:16])[H:15])[H:11])([H:8])([H:9])[H:10]>>[C:1]([C-:2]([N:5]([C:6](=[O+:7][C:3]([O:4][H:14])([H:12])[H:13])[H:16])[H:15])[H:11])([H:8])([H:9])[H:10]"
C       -1.18134698       1.82787368      -0.17727808
C       -0.24282225       0.71931094       0.20793605
C       -0.35324621      -1.70904187       0.09852806
O       -0.65100252      -1.90919486       1.42198999
N        0.95980649       0.72039325      -0.48205677
C        1.82263455      -0.29662024      -0.43411157
O        1.56492979      -1.28138583       0.34445700
H       -0.87908416       2.79704462       0.23437406
H       -2.18548226       1.63183210       0.20560661
H       -1.25647013       1.94145439      -1.26255069
H       -0.07128073       0.61277206       1.27495133
H       -1.28873261      -1.58276086      -0.44685491
H        0.01128347      -2.62806598      -0.37613300
H        0.17205392      -1.82436780       1.91736426
H        1.06168861       1.35951297      -1.25510707
H        2.51707101      -0.37875658      -1.27111524
16
Frame=12 idx=006473 GeodesicLength=0.6282196582903262 rxn_smarts="[C:1]([C@@:2]([C:3]([O:4][H:14])([H:12])[H:13])([N:5]([C:6](=[O:7])[H:16])[H:15])[H:11])([H:8])([H:9])[H:10]>>[C:1]([C-:2]([N:5]([C:6](=[O+:7][C:3]([O:4][H:14])([H:12])[H:13])[H:16])[H:15])[H:11])([H:8])([H:9])[H:10]"
C       -1.18165485       1.81601140      -0.17439305
C       -0.24109439       0.71144827       0.21996893
C       -0.35215240      -1.69178059       0.08689944
O       -0.65168668      -1.89774038       1.41278450
N        0.96333131       0.71702671      -0.47115241
C        1.82673731      -0.30033196      -0.43171020
O        1.57259747      -1.29284652       0.34057912
H       -0.88187996       2.78672512       0.23439991
H       -2.18678903       1.62081923       0.20658111
H       -1.25227538       1.92481226      -1.26034567
H       -0.06086752       0.63034424       1.28833977
H       -1.29405103      -1.59510573      -0.45614452
H        0.00103874      -2.61929106      -0.38315790
H        0.16720403      -1.78525471       1.90985578
H        1.06063693       1.35581214      -1.24495768
H        2.51090545      -0.38064842      -1.27754713
16
Frame=13 idx=006473 GeodesicLength=0.6817827651502033 rxn_smarts="[C:1]([C@@:2]([C:3]([O:4][H:14])([H:12])[H:13])([N:5]([C:6](=[O:7])[H:16])[H:15])[H:11])([H:8])([H:9])[H:10]>>[C:1]([C-:2]([N:5]([C:6](=[O+:7][C:3]([O:4][H:14])([H:12])[H:13])[H:16])[H:15])[H:11])([H:8])([H:9])[H:10]"
C       -1.18194231       1.80424239      -0.17171602
C       -0.23924108       0.70398339       0.23221549
C       -0.35135492      -1.67459124       0.07527258
O       -0.65170494      -1.88646242       1.40388022
N        0.96696375       0.71381889      -0.46007457
C        1.83064414      -0.30410294      -0.42923748
O        1.57977925      -1.30443110       0.33656539
H       -0.88479703       2.77665950       0.23400561
H       -2.18810105       1.60980481       0.20728235
H       -1.24797130       1.90797428      -1.25838678
H       -0.05088367       0.64810529       1.30140680
H       -1.29929721      -1.60708843      -0.46445393
H       -0.00937646      -2.61033592      -0.39022870
H        0.16285351      -1.74748654       1.90174272
H        1.05985165       1.35236710      -1.23456802
H        2.50457766      -0.38245708      -1.28370567
16
Frame=14 idx=006473 GeodesicLength=0.7355932471394999 rxn_smarts="[C:1]([C@@:2]([C:3]([O:4][H:14])([H:12])[H:13])([N:5]([C:6](=[O:7])[H:16])[H:15])[H:11])([H:8])([H:9])[H:10]>>[C:1]([C-:2]([N:5]([C:6](=[O+:7][C:3]([O:4][H:14])([H:12])[H:13])[H:16])[H:15])[H:11])([H:8])([H:9])[H:10]"
C       -1.18220732       1.79245692      -0.16919207
C       -0.23729093       0.69688366       0.24464475
C       -0.35078545      -1.65732995       0.06364001
O       -0.65110648      -1.87510844       1.39515048
N        0.97067223       0.71068304      -0.44881286
C        1.83432585      -0.30798918      -0.42669203
O        1.58645087      -1.31610173       0.33239165
H       -0.88788380       2.76664947       0.23321100
H       -2.18938925       1.59873631       0.20776435
H       -1.24351013       1.89080381      -1.25652129
H       -0.04138755       0.66601636       1.31408452
H       -1.30431467      -1.61844741      -0.47181219
H       -0.01986280      -2.60103955      -0.39732331
H        0.15896601      -1.71094031       1.89294778
H        1.05929957       1.34902158      -1.22388768
H        2.49802386      -0.38429460      -1.28959311
16
Frame=15 idx=006473 GeodesicLength=0.7895510712589519 rxn_smarts="[C:1]([C@@:2]([C:3]([O:4][H:14])([H:12])[H:13])([N:5]([C:6](=[O:7])[H:16])[H:15])[H:11])([H:8])([H:9])[H:10]>>[C:1]([C-:2]([N:5]([C:6](=[O+:7][C:3]([O:4][H:14])([H:12])[H:13])[H:16])[H:15])[H:11])([H:8])([H:9])[H:10]"
C       -1.18244689       1.78075600      -0.16685166
C       -0.23528320       0.69011372       0.25723183
C       -0.35047065      -1.64009748       0.05201859
O       -0.64993996      -1.86386991       1.38668199
N        0.97441602       0.70762847      -0.43742795
C        1.83777781      -0.31195101      -0.42410704
O        1.59263256      -1.32785446       0.32804015
H       -0.89104581       2.75683578       0.23204922
H       -2.19067207       1.58771224       0.20799078
H       -1.23893057       1.87348407      -1.25483950
H       -0.03234266       0.68409625       1.32638659
H       -1.30923880      -1.62937594      -0.47826839
H       -0.03043633      -2.59154101      -0.40440511
H        0.15564348      -1.67576276       1.88363384
H        1.05894357       1.34583996      -1.21299534
H        2.49139350      -0.38601391      -1.29513800
16
Frame=16 idx=006473 GeodesicLength=0.843648123266718 rxn_smarts="[C:1]([C@@:2]([C:3]([O:4][H:14])([H:12])[H:13])([N:5]([C:6](=[O:7])[H:16])[H:15])[H:11])([H:8])([H:9])[H:10]>>[C:1]([C-:2]([N:5]([C:6](=[O+:7][C:3]([O:4][H:14])([H:12])[H:13])[H:16])[H:15])[H:11])([H:8])([H:9])[H:10]"
C       -1.18265661       1.76913948      -0.16468100
C       -0.23326548       0.68363897       0.26992299
C       -0.35037930      -1.62288971       0.04042996
O       -0.64825171      -1.85270896       1.37845205
N        0.97815692       0.70462402      -0.42595368
C        1.84098534      -0.31599212      -0.42149790
O        1.59833147      -1.33966603       0.32351335
H       -0.89425605       2.74717038       0.23056573
H       -2.19194935       1.57676738       0.20796474
H       -1.23421209       1.85606695      -1.25329954
H       -0.02378907       0.70229783       1.33827515
H       -1.31401684      -1.63983421      -0.48386275
H       -0.04104552      -2.58184727      -0.41142743
H        0.15289422      -1.64194988       1.87385455
H        1.05876014       1.34279595      -1.20190535
H        2.48469392      -0.38761278      -1.30035086
