12
Frame=0 idx=007085 GeodesicLength=0.0 rxn_smarts="[O:1]=[C:2]1[N:3]([H:8])[C:4]([H:9])([H:10])[C@@:5]2([H:11])[O:6][C@@:7]12[H:12]>>[O:1]([C:2]1=[C:7]2[C@@:5]([H:11])([C:4]([H:9])([H:10])[N:3]1[H:8])[O:6]2)[H:12]"
O        0.44852882       2.31817005       0.49555235
C        0.34606000       1.07603173       0.28647595
N        1.17740183       0.12664572      -0.06946996
C        0.42340479      -1.07911677      -0.46303883
C       -1.02104387      -0.70695686      -0.13076077
O       -1.18824306      -0.45041890       1.23579420
C       -1.06941883       0.69777432       0.34731646
H        2.17438799       0.22298578      -0.16012671
H        0.75964783      -1.95553585       0.09507538
H        0.55642870      -1.25905445      -1.53202902
H       -1.82989527      -1.21048232      -0.64804039
H       -0.77725893       2.21995751       0.54325130
12
Frame=1 idx=007085 GeodesicLength=0.04171774658497731 rxn_smarts="[O:1]=[C:2]1[N:3]([H:8])[C:4]([H:9])([H:10])[C@@:5]2([H:11])[O:6][C@@:7]12[H:12]>>[O:1]([C:2]1=[C:7]2[C@@:5]([H:11])([C:4]([H:9])([H:10])[N:3]1[H:8])[O:6]2)[H:12]"
O        0.45103117       2.31846188       0.49276252
C        0.35113520       1.07443151       0.29639322
N        1.17803025       0.12483067      -0.07182712
C        0.42367059      -1.07976472      -0.46368161
C       -1.01933702      -0.70601790      -0.13022038
O       -1.18803071      -0.45003770       1.23639212
C       -1.06761822       0.69812347       0.34728095
H        2.17517886       0.22282524      -0.16002766
H        0.76020914      -1.95638982       0.09400578
H        0.55423038      -1.26050335      -1.53291749
H       -1.82943941      -1.20675555      -0.64836553
H       -0.78906022       2.22079625       0.54020520
12
Frame=2 idx=007085 GeodesicLength=0.08343658270167968 rxn_smarts="[O:1]=[C:2]1[N:3]([H:8])[C:4]([H:9])([H:10])[C@@:5]2([H:11])[O:6][C@@:7]12[H:12]>>[O:1]([C:2]1=[C:7]2[C@@:5]([H:11])([C:4]([H:9])([H:10])[N:3]1[H:8])[O:6]2)[H:12]"
O        0.45374091       2.31854830       0.49052270
C        0.35617111       1.07288477       0.30603228
N        1.17859088       0.12312571      -0.07432929
C        0.42392901      -1.08038677      -0.46435362
C       -1.01763091      -0.70507972      -0.12964953
O       -1.18773556      -0.44958104       1.23701512
C       -1.06579083       0.69850082       0.34720600
H        2.17593440       0.22262627      -0.15982822
H        0.76082841      -1.95716412       0.09295108
H        0.55197917      -1.26199584      -1.53382213
H       -1.82899341      -1.20307769      -0.64857992
H       -0.80102318       2.22159932       0.53683554
12
Frame=3 idx=007085 GeodesicLength=0.12516080327235404 rxn_smarts="[O:1]=[C:2]1[N:3]([H:8])[C:4]([H:9])([H:10])[C@@:5]2([H:11])[O:6][C@@:7]12[H:12]>>[O:1]([C:2]1=[C:7]2[C@@:5]([H:11])([C:4]([H:9])([H:10])[N:3]1[H:8])[O:6]2)[H:12]"
O        0.45665410       2.31845100       0.48882663
C        0.36117083       1.07139079       0.31538273
N        1.17908801       0.12152816      -0.07697978
C        0.42417928      -1.08098165      -0.46506174
C       -1.01592459      -0.70414386      -0.12904321
O       -1.18734565      -0.44904964       1.23766997
C       -1.06393650       0.69890517       0.34709605
H        2.17666252       0.22237282      -0.15949415
H        0.76150549      -1.95786298       0.09189537
H        0.54966727      -1.26352420      -1.53475137
H       -1.82856096      -1.19944829      -0.64867418
H       -0.81315980       2.22236269       0.53313368
12
Frame=4 idx=007085 GeodesicLength=0.16688226128938974 rxn_smarts="[O:1]=[C:2]1[N:3]([H:8])[C:4]([H:9])([H:10])[C@@:5]2([H:11])[O:6][C@@:7]12[H:12]>>[O:1]([C:2]1=[C:7]2[C@@:5]([H:11])([C:4]([H:9])([H:10])[N:3]1[H:8])[O:6]2)[H:12]"
O        0.45977043       2.31818395       0.48770571
C        0.36613952       1.06994063       0.32446821
N        1.17953199       0.12003215      -0.07976989
C        0.42442199      -1.08154725      -0.46580843
C       -1.01421651      -0.70321047      -0.12839391
O       -1.18685469      -0.44845440       1.23836780
C       -1.06205386       0.69933252       0.34697023
H        2.17735371       0.22206101      -0.15903287
H        0.76224207      -1.95849248       0.09082400
H        0.54728848      -1.26507506      -1.53571070
H       -1.82814542      -1.19585874      -0.64864335
H       -0.82547772       2.22308814       0.52902320
12
Frame=5 idx=007085 GeodesicLength=0.20861373737401823 rxn_smarts="[O:1]=[C:2]1[N:3]([H:8])[C:4]([H:9])([H:10])[C@@:5]2([H:11])[O:6][C@@:7]12[H:12]>>[O:1]([C:2]1=[C:7]2[C@@:5]([H:11])([C:4]([H:9])([H:10])[N:3]1[H:8])[O:6]2)[H:12]"
O        0.46308388       2.31777313       0.48707175
C        0.37108349       1.06853583       0.33327401
N        1.17992158       0.11862128      -0.08266616
C        0.42465808      -1.08209258      -0.46657719
C       -1.01250652      -0.70227478      -0.12771932
O       -1.18628620      -0.44777995       1.23908366
C       -1.06014305       0.69979179       0.34679961
H        2.17802100       0.22170460      -0.15849941
H        0.76302155      -1.95905834       0.08976523
H        0.54486538      -1.26666729      -1.53667613
H       -1.82773732      -1.19230633      -0.64851607
H       -0.83798187       2.22375263       0.52466003
12
Frame=6 idx=007085 GeodesicLength=0.2503492951559843 rxn_smarts="[O:1]=[C:2]1[N:3]([H:8])[C:4]([H:9])([H:10])[C@@:5]2([H:11])[O:6][C@@:7]12[H:12]>>[O:1]([C:2]1=[C:7]2[C@@:5]([H:11])([C:4]([H:9])([H:10])[N:3]1[H:8])[O:6]2)[H:12]"
O        0.46659944       2.31722542       0.48696834
C        0.37600523       1.06716592       0.34182827
N        1.18027054       0.11729261      -0.08566340
C        0.42488972      -1.08261661      -0.46736756
C       -1.01079585      -0.70133636      -0.12701395
O       -1.18564331      -0.44703561       1.23982791
C       -1.05820571       0.70027953       0.34660016
H        2.17865793       0.22130750      -0.15792130
H        0.76384526      -1.95956544       0.08871625
H        0.54239492      -1.26829211      -1.53765203
H       -1.82734041      -1.18878538      -0.64829167
H       -0.85067776       2.22436053       0.51996898
12
Frame=7 idx=007085 GeodesicLength=0.29209003581991455 rxn_smarts="[O:1]=[C:2]1[N:3]([H:8])[C:4]([H:9])([H:10])[C@@:5]2([H:11])[O:6][C@@:7]12[H:12]>>[O:1]([C:2]1=[C:7]2[C@@:5]([H:11])([C:4]([H:9])([H:10])[N:3]1[H:8])[O:6]2)[H:12]"
O        0.47030947       2.31655793       0.48735259
C        0.38091593       1.06582289       0.35016567
N        1.18057884       0.11603659      -0.08874962
C        0.42511646      -1.08311947      -0.46817698
C       -1.00908107      -0.70039174      -0.12627779
O       -1.18492841      -0.44622595       1.24059945
C       -1.05623654       0.70079687       0.34638030
H        2.17926425       0.22086976      -0.15730821
H        0.76470833      -1.96001816       0.08766978
H        0.53987707      -1.26994471      -1.53863371
H       -1.82695008      -1.18528251      -0.64797937
H       -0.86357423       2.22489850       0.51495790
12
Frame=8 idx=007085 GeodesicLength=0.33383658221595486 rxn_smarts="[O:1]=[C:2]1[N:3]([H:8])[C:4]([H:9])([H:10])[C@@:5]2([H:11])[O:6][C@@:7]12[H:12]>>[O:1]([C:2]1=[C:7]2[C@@:5]([H:11])([C:4]([H:9])([H:10])[N:3]1[H:8])[O:6]2)[H:12]"
O        0.47421264       2.31578859       0.48817667
C        0.38581799       1.06450634       0.35827947
N        1.18085434       0.11484747      -0.09191147
C        0.42533974      -1.08360415      -0.46900124
C       -1.00736364      -0.69943883      -0.12551783
O       -1.18414997      -0.44534768       1.24139173
C       -1.05423696       0.70134630       0.34613187
H        2.17984484       0.22039032      -0.15666968
H        0.76560422      -1.96042213       0.08663459
H        0.53732096      -1.27162751      -1.53961726
H       -1.82656644      -1.18179755      -0.64758918
H       -0.87667772       2.22535881       0.50969234
12
Frame=9 idx=007085 GeodesicLength=0.37558491830128254 rxn_smarts="[O:1]=[C:2]1[N:3]([H:8])[C:4]([H:9])([H:10])[C@@:5]2([H:11])[O:6][C@@:7]12[H:12]>>[O:1]([C:2]1=[C:7]2[C@@:5]([H:11])([C:4]([H:9])([H:10])[N:3]1[H:8])[O:6]2)[H:12]"
O        0.47830800       2.31492578       0.48940156
C        0.39071164       1.06321629       0.36616255
N        1.18110144       0.11371827      -0.09513604
C        0.42556082      -1.08407233      -0.46983653
C       -1.00564285      -0.69847400      -0.12473942
O       -1.18331236      -0.44439516       1.24219723
C       -1.05220736       0.70193133       0.34584759
H        2.18040131       0.21986680      -0.15601413
H        0.76652695      -1.96078036       0.08561585
H        0.53473514      -1.27334162      -1.54059749
H       -1.82618625      -1.17832849      -0.64712727
H       -0.88999648       2.22573349       0.50422610
12
Frame=10 idx=007085 GeodesicLength=0.41733671133202405 rxn_smarts="[O:1]=[C:2]1[N:3]([H:8])[C:4]([H:9])([H:10])[C@@:5]2([H:11])[O:6][C@@:7]12[H:12]>>[O:1]([C:2]1=[C:7]2[C@@:5]([H:11])([C:4]([H:9])([H:10])[N:3]1[H:8])[O:6]2)[H:12]"
O        0.48259320       2.31398182       0.49100643
C        0.39560912       1.06194218       0.37386173
N        1.18132691       0.11264046      -0.09840958
C        0.42577889      -1.08452188      -0.47068301
C       -1.00391777      -0.69749445      -0.12393944
O       -1.18241988      -0.44337749       1.24302173
C       -1.05014266       0.70255115       0.34554257
H        2.18093517       0.21930351      -0.15535276
H        0.76747285      -1.96110052       0.08460023
H        0.53211619      -1.27507305      -1.54157609
H       -1.82581075      -1.17486558      -0.64659507
H       -0.90354126       2.22601385       0.49852323
12
Frame=11 idx=007085 GeodesicLength=0.4590947126521105 rxn_smarts="[O:1]=[C:2]1[N:3]([H:8])[C:4]([H:9])([H:10])[C@@:5]2([H:11])[O:6][C@@:7]12[H:12]>>[O:1]([C:2]1=[C:7]2[C@@:5]([H:11])([C:4]([H:9])([H:10])[N:3]1[H:8])[O:6]2)[H:12]"
O        0.48707519       2.31295861       0.49298996
C        0.40051272       1.06068307       0.38137181
N        1.18153394       0.11160320      -0.10170984
C        0.42599601      -1.08495853      -0.47153024
C       -1.00218840      -0.69649710      -0.12312694
O       -1.18148652      -0.44228554       1.24385315
C       -1.04804266       0.70321084       0.34520258
H        2.18144650       0.21871631      -0.15473986
H        0.76843162      -1.96138508       0.08360898
H        0.52947884      -1.27682967      -1.54254120
H       -1.82543691      -1.17140868      -0.64600422
H       -0.91732034       2.22619257       0.49262584
12
Frame=12 idx=007085 GeodesicLength=0.5008599541109631 rxn_smarts="[O:1]=[C:2]1[N:3]([H:8])[C:4]([H:9])([H:10])[C@@:5]2([H:11])[O:6][C@@:7]12[H:12]>>[O:1]([C:2]1=[C:7]2[C@@:5]([H:11])([C:4]([H:9])([H:10])[N:3]1[H:8])[O:6]2)[H:12]"
O        0.49175364       2.31186588       0.49532810
C        0.40543016       1.05942971       0.38872853
N        1.18172683       0.11060461      -0.10503113
C        0.42621166      -1.08538065      -0.47237826
C       -1.00045394      -0.69548004      -0.12229721
O       -1.18051359      -0.44112956       1.24469793
C       -1.04590321       0.70390812       0.34484472
H        2.18193801       0.21810310      -0.15417887
H        0.76940180      -1.96163966       0.08263298
H        0.52681951      -1.27860163      -1.54349430
H       -1.82506397      -1.16794351      -0.64536135
H       -0.93134688       2.22626363       0.48650886
12
Frame=13 idx=007085 GeodesicLength=0.5426235054194833 rxn_smarts="[O:1]=[C:2]1[N:3]([H:8])[C:4]([H:9])([H:10])[C@@:5]2([H:11])[O:6][C@@:7]12[H:12]>>[O:1]([C:2]1=[C:7]2[C@@:5]([H:11])([C:4]([H:9])([H:10])[N:3]1[H:8])[O:6]2)[H:12]"
O        0.49662565       2.31069423       0.49804080
C        0.41036686       1.05817992       0.39594874
N        1.18190849       0.10964435      -0.10837876
C        0.42642399      -1.08578253      -0.47323355
C       -0.99871306      -0.69444079      -0.12143984
O       -1.17948755      -0.43991611       1.24556947
C       -1.04372048       0.70464185       0.34448897
H        2.18241183       0.21745720      -0.15364874
H        0.77038685      -1.96186414       0.08165215
H        0.52412470      -1.28037432      -1.54444349
H       -1.82469480      -1.16445997      -0.64465570
H       -0.94563247       2.22622032       0.48009994
12
Frame=14 idx=007085 GeodesicLength=0.5843948065768427 rxn_smarts="[O:1]=[C:2]1[N:3]([H:8])[C:4]([H:9])([H:10])[C@@:5]2([H:11])[O:6][C@@:7]12[H:12]>>[O:1]([C:2]1=[C:7]2[C@@:5]([H:11])([C:4]([H:9])([H:10])[N:3]1[H:8])[O:6]2)[H:12]"
O        0.50169683       2.30946115       0.50108139
C        0.41532678       1.05693186       0.40303513
N        1.18208282       0.10871685      -0.11173898
C        0.42663335      -1.08616587      -0.47409356
C       -0.99696584      -0.69337667      -0.12055988
O       -1.17841411      -0.43864349       1.24646290
C       -1.04149296       0.70541475       0.34413213
H        2.18287325       0.21677513      -0.15315353
H        0.77137941      -1.96206375       0.08066939
H        0.52140162      -1.28214647      -1.54538688
H       -1.82432789      -1.16095597      -0.64389524
H       -0.96019325       2.22605250       0.47344713
12
Frame=15 idx=007085 GeodesicLength=0.6261707478965662 rxn_smarts="[O:1]=[C:2]1[N:3]([H:8])[C:4]([H:9])([H:10])[C@@:5]2([H:11])[O:6][C@@:7]12[H:12]>>[O:1]([C:2]1=[C:7]2[C@@:5]([H:11])([C:4]([H:9])([H:10])[N:3]1[H:8])[O:6]2)[H:12]"
O        0.50697129       2.30816883       0.50443441
C        0.42031394       1.05568464       0.40999184
N        1.18225393       0.10781586      -0.11510292
C        0.42683988      -1.08653168      -0.47495510
C       -0.99521203      -0.69228347      -0.11966026
O       -1.17729742      -0.43730794       1.24737458
C       -1.03921852       0.70623071       0.34377178
H        2.18332478       0.21606013      -0.15270651
H        0.77237388      -1.96224124       0.07968825
H        0.51865488      -1.28391738      -1.54632055
H       -1.82396177      -1.15742774      -0.64308416
H       -0.97504284       2.22574929       0.46656863
12
Frame=16 idx=007085 GeodesicLength=0.6679488155374413 rxn_smarts="[O:1]=[C:2]1[N:3]([H:8])[C:4]([H:9])([H:10])[C@@:5]2([H:11])[O:6][C@@:7]12[H:12]>>[O:1]([C:2]1=[C:7]2[C@@:5]([H:11])([C:4]([H:9])([H:10])[N:3]1[H:8])[O:6]2)[H:12]"
O        0.51245437       2.30681951       0.50808581
C        0.42533284       1.05443684       0.41682583
N        1.18242597       0.10693564      -0.11846115
C        0.42704353      -1.08688057      -0.47581548
C       -0.99345141      -0.69115717      -0.11874315
O       -1.17614125      -0.43590685       1.24830217
C       -1.03689468       0.70709328       0.34340751
H        2.18376932       0.21531501      -0.15232047
H        0.77336460      -1.96239979       0.07871087
H        0.51588839      -1.28568471      -1.54724177
H       -1.82359536      -1.15387130      -0.64222603
H       -0.99019631       2.22530012       0.45947585
