14
Frame=0 idx=003616 GeodesicLength=0.0 rxn_smarts="[C:1]([C@@:2]([O:3][H:11])([C:4]([C:5]#[C:6][H:14])([H:12])[H:13])[H:10])([H:7])([H:8])[H:9]>>[C:1](=[C:2]([C:4]([C:5]#[C:6][H:14])([H:12])[H:13])[H:10])([H:7])[H:9].[O:3]([H:8])[H:11]"
C       -1.96543903       0.01896528      -0.22655398
C       -0.70128377       0.06927289       0.40465043
O       -0.28766665      -1.68691698      -0.07189644
C        0.40703621       0.89090942      -0.19512214
C        1.75053205       0.51503057       0.23030466
C        2.84852779       0.19487978       0.58184130
H       -2.11005048       0.62336428      -1.11590602
H       -1.33444797      -1.21741868      -0.52890296
H       -2.84040326      -0.14023787       0.39079256
H       -0.61457510      -0.12033156       1.46809335
H        0.47651169      -1.84588395      -0.64078950
H        0.33374285       0.85427383      -1.28509196
H        0.21231992       1.93040553       0.09052277
H        3.82519574      -0.08631257       0.89805798
14
Frame=1 idx=003616 GeodesicLength=0.07784072608089727 rxn_smarts="[C:1]([C@@:2]([O:3][H:11])([C:4]([C:5]#[C:6][H:14])([H:12])[H:13])[H:10])([H:7])([H:8])[H:9]>>[C:1](=[C:2]([C:4]([C:5]#[C:6][H:14])([H:12])[H:13])[H:10])([H:7])[H:9].[O:3]([H:8])[H:11]"
C       -1.96644453       0.02324910      -0.22797022
C       -0.70196768       0.05850828       0.40467767
O       -0.31028347      -1.71136205      -0.08183180
C        0.40423778       0.89028649      -0.18669087
C        1.74814240       0.51680516       0.23997461
C        2.84992279       0.18291239       0.56647620
H       -2.10899064       0.63124944      -1.11558338
H       -1.33579930      -1.22095286      -0.58543673
H       -2.84174845      -0.11589766       0.39446117
H       -0.62378827      -0.12098264       1.47110038
H        0.50382220      -1.85871549      -0.57862163
H        0.33416998       0.85928133      -1.27720511
H        0.20867749       1.92827059       0.10394634
H        3.84004971      -0.06265208       0.87270338
14
Frame=2 idx=003616 GeodesicLength=0.1549662298283617 rxn_smarts="[C:1]([C@@:2]([O:3][H:11])([C:4]([C:5]#[C:6][H:14])([H:12])[H:13])[H:10])([H:7])([H:8])[H:9]>>[C:1](=[C:2]([C:4]([C:5]#[C:6][H:14])([H:12])[H:13])[H:10])([H:7])[H:9].[O:3]([H:8])[H:11]"
C       -1.96681318       0.02617422      -0.23104496
C       -0.70318054       0.04819863       0.40508696
O       -0.33172647      -1.73468807      -0.09334444
C        0.40137799       0.89024284      -0.17665754
C        1.74525570       0.51821402       0.25190492
C        2.85025834       0.17352349       0.55623714
H       -2.10648026       0.63762481      -1.11714681
H       -1.33415806      -1.22383765      -0.64246696
H       -2.84287233      -0.09222236       0.39537515
H       -0.63466147      -0.12141016       1.47436531
H        0.52704189      -1.87209351      -0.50976385
H        0.33547347       0.86550885      -1.26775093
H        0.20473960       1.92651306       0.11938024
H        3.85574534      -0.04174817       0.83582578
14
Frame=3 idx=003616 GeodesicLength=0.23137890905795677 rxn_smarts="[C:1]([C@@:2]([O:3][H:11])([C:4]([C:5]#[C:6][H:14])([H:12])[H:13])[H:10])([H:7])([H:8])[H:9]>>[C:1](=[C:2]([C:4]([C:5]#[C:6][H:14])([H:12])[H:13])[H:10])([H:7])[H:9].[O:3]([H:8])[H:11]"
C       -1.96647546       0.02763161      -0.23309382
C       -0.70324621       0.03829813       0.40543266
O       -0.35057922      -1.75663363      -0.10843936
C        0.39850038       0.89110129      -0.16799552
C        1.74309135       0.51931498       0.25919685
C        2.85166382       0.16470009       0.53903375
H       -2.10470241       0.64241415      -1.11753238
H       -1.33026491      -1.22623496      -0.69888285
H       -2.84213163      -0.06959359       0.39831306
H       -0.64284901      -0.12191535       1.47723036
H        0.54534754      -1.88507332      -0.43883286
H        0.33466462       0.87398370      -1.25951899
H        0.20138849       1.92523874       0.13508845
H        3.86559265      -0.02323184       0.81000067
14
Frame=4 idx=003616 GeodesicLength=0.30693139101249867 rxn_smarts="[C:1]([C@@:2]([O:3][H:11])([C:4]([C:5]#[C:6][H:14])([H:12])[H:13])[H:10])([H:7])([H:8])[H:9]>>[C:1](=[C:2]([C:4]([C:5]#[C:6][H:14])([H:12])[H:13])[H:10])([H:7])[H:9].[O:3]([H:8])[H:11]"
C       -1.96553946       0.02761543      -0.23604640
C       -0.70344870       0.02911532       0.40618320
O       -0.36648541      -1.77689758      -0.12526642
C        0.39542674       0.89289156      -0.15851724
C        1.74064295       0.51989438       0.26638798
C        2.85265368       0.15743052       0.52254526
H       -2.10210386       0.64519365      -1.11922634
H       -1.32335141      -1.22841777      -0.75491994
H       -2.84084496      -0.04811025       0.39960527
H       -0.65169251      -0.12174347       1.48037617
H        0.55854209      -1.89804622      -0.36328555
H        0.33346829       0.88453228      -1.25041185
H        0.19804208       1.92452759       0.15271136
H        3.87469050      -0.00798542       0.77986449
14
Frame=5 idx=003616 GeodesicLength=0.3817439525082371 rxn_smarts="[C:1]([C@@:2]([O:3][H:11])([C:4]([C:5]#[C:6][H:14])([H:12])[H:13])[H:10])([H:7])([H:8])[H:9]>>[C:1](=[C:2]([C:4]([C:5]#[C:6][H:14])([H:12])[H:13])[H:10])([H:7])[H:9].[O:3]([H:8])[H:11]"
C       -1.96396905       0.02603697      -0.23955523
C       -0.70358910       0.02076387       0.40739469
O       -0.37851233      -1.79540479      -0.14359589
C        0.39210278       0.89578896      -0.14853643
C        1.73803014       0.52009990       0.27256719
C        2.85325008       0.15053225       0.50464087
H       -2.09885430       0.64559832      -1.12204885
H       -1.31342390      -1.23081497      -0.80995593
H       -2.83886204      -0.02786421       0.39973268
H       -0.66076479      -0.12056591       1.48386698
H        0.56636434      -1.90994313      -0.28453618
H        0.33137220       0.89744007      -1.24069236
H        0.19479905       1.92449510       0.17210927
H        3.88205693       0.00383756       0.74860920
14
Frame=6 idx=003616 GeodesicLength=0.4558667457046825 rxn_smarts="[C:1]([C@@:2]([O:3][H:11])([C:4]([C:5]#[C:6][H:14])([H:12])[H:13])[H:10])([H:7])([H:8])[H:9]>>[C:1](=[C:2]([C:4]([C:5]#[C:6][H:14])([H:12])[H:13])[H:10])([H:7])[H:9].[O:3]([H:8])[H:11]"
C       -1.96178849       0.02295384      -0.24383312
C       -0.70388340       0.01340973       0.40924981
O       -0.38615267      -1.81194256      -0.16286951
C        0.38850452       0.89980642      -0.13770848
C        1.73508751       0.51962523       0.27816887
C        2.85328677       0.14378583       0.48585082
H       -2.09473903       0.64361340      -1.12630381
H       -1.30015791      -1.23349572      -0.86404198
H       -2.83648131      -0.00910721       0.39807479
H       -0.67064526      -0.11802776       1.48790668
H        0.56840255      -1.92101649      -0.20264762
H        0.32846985       0.91281668      -1.22998720
H        0.19175928       1.92512387       0.19367860
H        3.88833757       0.01245472       0.71446215
14
Frame=7 idx=003616 GeodesicLength=0.5294993732743584 rxn_smarts="[C:1]([C@@:2]([O:3][H:11])([C:4]([C:5]#[C:6][H:14])([H:12])[H:13])[H:10])([H:7])([H:8])[H:9]>>[C:1](=[C:2]([C:4]([C:5]#[C:6][H:14])([H:12])[H:13])[H:10])([H:7])[H:9].[O:3]([H:8])[H:11]"
C       -1.95895565       0.01828626      -0.24887398
C       -0.70439123       0.00721513       0.41193854
O       -0.38871430      -1.82646064      -0.18227698
C        0.38455926       0.90509491      -0.12589206
C        1.73173841       0.51864328       0.28330006
C        2.85259518       0.13681320       0.46572712
H       -2.08959617       0.63889489      -1.13219106
H       -1.28326405      -1.23684712      -0.91675587
H       -2.83383838       0.00809051       0.39441180
H       -0.68157111      -0.11368371       1.49269367
H        0.56460156      -1.93057813      -0.11891178
H        0.32465696       0.93078006      -1.21811297
H        0.18886873       1.92653817       0.21752257
H        3.89331078       0.01721320       0.67742094
14
Frame=8 idx=003616 GeodesicLength=0.6027653722960412 rxn_smarts="[C:1]([C@@:2]([O:3][H:11])([C:4]([C:5]#[C:6][H:14])([H:12])[H:13])[H:10])([H:7])([H:8])[H:9]>>[C:1](=[C:2]([C:4]([C:5]#[C:6][H:14])([H:12])[H:13])[H:10])([H:7])[H:9].[O:3]([H:8])[H:11]"
C       -1.95547134       0.01229470      -0.25486213
C       -0.70535227       0.00226579       0.41568176
O       -0.38617464      -1.83882161      -0.20117831
C        0.38036118       0.91140434      -0.11268445
C        1.72783494       0.51641597       0.28857866
C        2.85106697       0.12936207       0.44511139
H       -2.08306044       0.63164538      -1.13998307
H       -1.26258513      -1.24085687      -0.96815042
H       -2.83125402       0.02377909       0.38811726
H       -0.69416237      -0.10732058       1.49842363
H        0.55441095      -1.93944908      -0.03384424
H        0.32021242       0.95109396      -1.20463151
H        0.18646179       1.92850449       0.24399305
H        3.89771196       0.01968234       0.63542839
14
Frame=9 idx=003616 GeodesicLength=0.6759686464941571 rxn_smarts="[C:1]([C@@:2]([O:3][H:11])([C:4]([C:5]#[C:6][H:14])([H:12])[H:13])[H:10])([H:7])([H:8])[H:9]>>[C:1](=[C:2]([C:4]([C:5]#[C:6][H:14])([H:12])[H:13])[H:10])([H:7])[H:9].[O:3]([H:8])[H:11]"
C       -1.95104987       0.00458194      -0.26171280
C       -0.70667300      -0.00132104       0.42061916
O       -0.37773108      -1.84928935      -0.21837988
C        0.37562730       0.91922728      -0.09801235
C        1.72323641       0.51458044       0.29429305
C        2.84790321       0.12102483       0.42403344
H       -2.07479304       0.62118050      -1.14976466
H       -1.23736031      -1.24612707      -1.01751826
H       -2.82853391       0.03776492       0.37913584
H       -0.70843598      -0.09853644       1.50519298
H        0.53904426      -1.94481458       0.05067472
H        0.31498513       0.97388152      -1.18943770
H        0.18375506       1.93142603       0.27280297
H        3.90002581       0.01642104       0.58807351
14
Frame=10 idx=003616 GeodesicLength=0.7495376499737698 rxn_smarts="[C:1]([C@@:2]([O:3][H:11])([C:4]([C:5]#[C:6][H:14])([H:12])[H:13])[H:10])([H:7])([H:8])[H:9]>>[C:1](=[C:2]([C:4]([C:5]#[C:6][H:14])([H:12])[H:13])[H:10])([H:7])[H:9].[O:3]([H:8])[H:11]"
C       -1.94592411      -0.00439251      -0.26895660
C       -0.70832275      -0.00359430       0.42682901
O       -0.36417767      -1.85803290      -0.23360371
C        0.37057194       0.92816273      -0.08219251
C        1.71818913       0.51232468       0.29991470
C        2.84367996       0.11214115       0.40180785
H       -2.06509384       0.60791793      -1.16108968
H       -1.20830578      -1.25262677      -1.06484629
H       -2.82585147       0.05055024       0.36802663
H       -0.72405886      -0.08739687       1.51301292
H        0.51850064      -1.94829528       0.13258355
H        0.30887463       0.99855181      -1.17281844
H        0.18134497       1.93509951       0.30348806
H        3.90057322       0.00959057       0.53784451
14
Frame=11 idx=003616 GeodesicLength=0.8233505433958391 rxn_smarts="[C:1]([C@@:2]([O:3][H:11])([C:4]([C:5]#[C:6][H:14])([H:12])[H:13])[H:10])([H:7])([H:8])[H:9]>>[C:1](=[C:2]([C:4]([C:5]#[C:6][H:14])([H:12])[H:13])[H:10])([H:7])[H:9].[O:3]([H:8])[H:11]"
C       -1.93994407      -0.01443239      -0.27640914
C       -0.71032413      -0.00459169       0.43431006
O       -0.34535242      -1.86445244      -0.24724908
C        0.36523303       0.93795063      -0.06529405
C        1.71249310       0.50905703       0.30504936
C        2.83833610       0.10291285       0.37764711
H       -2.05372760       0.59216228      -1.17359772
H       -1.17528007      -1.25987129      -1.11046711
H       -2.82304885       0.06211449       0.35492573
H       -0.74106816      -0.07413728       1.52176213
H        0.49225766      -1.95102938       0.21277267
H        0.30183247       1.02498373      -1.15475846
H        0.17952694       1.93911950       0.33606761
H        3.89906599       0.00021397       0.48524087
14
Frame=12 idx=003616 GeodesicLength=0.8982864035795337 rxn_smarts="[C:1]([C@@:2]([O:3][H:11])([C:4]([C:5]#[C:6][H:14])([H:12])[H:13])[H:10])([H:7])([H:8])[H:9]>>[C:1](=[C:2]([C:4]([C:5]#[C:6][H:14])([H:12])[H:13])[H:10])([H:7])[H:9].[O:3]([H:8])[H:11]"
C       -1.93320582      -0.02547276      -0.28411537
C       -0.71275347      -0.00436918       0.44316171
O       -0.32174029      -1.86922077      -0.25844702
C        0.35962134       0.94867287      -0.04712323
C        1.70629786       0.50531604       0.31034266
C        2.83180983       0.09321915       0.35249254
H       -2.04061152       0.57392678      -1.18745937
H       -1.13836344      -1.26833250      -1.15415330
H       -2.82029991       0.07282997       0.33960616
H       -0.75956163      -0.05876031       1.53153207
H        0.46117762      -1.95248586       0.28970826
H        0.29398258       1.05292175      -1.13513742
H        0.17814926       1.94377001       0.37043091
H        3.89549759      -0.01201520       0.42916139
14
Frame=13 idx=003616 GeodesicLength=0.9733757891035313 rxn_smarts="[C:1]([C@@:2]([O:3][H:11])([C:4]([C:5]#[C:6][H:14])([H:12])[H:13])[H:10])([H:7])([H:8])[H:9]>>[C:1](=[C:2]([C:4]([C:5]#[C:6][H:14])([H:12])[H:13])[H:10])([H:7])[H:9].[O:3]([H:8])[H:11]"
C       -1.92546949      -0.03716948      -0.29189796
C       -0.71568828      -0.00328416       0.45338471
O       -0.29585963      -1.87363973      -0.26533291
C        0.35378950       0.95968355      -0.02753203
C        1.69949795       0.50193508       0.31719072
C        2.82329282       0.08252694       0.32947314
H       -2.02476423       0.55324346      -1.20249792
H       -1.09760861      -1.27821414      -1.19516852
H       -2.81731388       0.08401926       0.32202004
H       -0.77990427      -0.04160700       1.54211318
H        0.42780653      -1.95047724       0.35934512
H        0.28631550       1.08071290      -1.11381071
H        0.17663965       1.94847092       0.40576630
H        3.88926644      -0.02620035       0.36694684
14
Frame=14 idx=003616 GeodesicLength=1.0496109750994227 rxn_smarts="[C:1]([C@@:2]([O:3][H:11])([C:4]([C:5]#[C:6][H:14])([H:12])[H:13])[H:10])([H:7])([H:8])[H:9]>>[C:1](=[C:2]([C:4]([C:5]#[C:6][H:14])([H:12])[H:13])[H:10])([H:7])[H:9].[O:3]([H:8])[H:11]"
C       -1.91706299      -0.04947051      -0.29903425
C       -0.71881993      -0.00120213       0.46476346
O       -0.26584641      -1.87609559      -0.27059959
C        0.34776193       0.97121643      -0.00748608
C        1.69226290       0.49793270       0.32303219
C        2.81383941       0.07218950       0.30453268
H       -2.00752399       0.53059025      -1.21762802
H       -1.05376730      -1.28885716      -1.23447959
H       -2.81395362       0.09487604       0.30352750
H       -0.80081824      -0.02292640       1.55331568
H        0.39018175      -1.94852707       0.42495230
H        0.27759089       1.10915067      -1.09169942
H        0.17578031       1.95347912       0.44167798
H        3.88037529      -0.04235586       0.30512516
14
Frame=15 idx=003616 GeodesicLength=1.126820332178264 rxn_smarts="[C:1]([C@@:2]([O:3][H:11])([C:4]([C:5]#[C:6][H:14])([H:12])[H:13])[H:10])([H:7])([H:8])[H:9]>>[C:1](=[C:2]([C:4]([C:5]#[C:6][H:14])([H:12])[H:13])[H:10])([H:7])[H:9].[O:3]([H:8])[H:11]"
C       -1.90799211      -0.06209123      -0.30560347
C       -0.72225512       0.00163367       0.47729158
O       -0.23367255      -1.87781398      -0.27299170
C        0.34162664       0.98297931       0.01322781
C        1.68467238       0.49384159       0.32897454
C        2.80315486       0.06174029       0.27962146
H       -1.98840730       0.50614510      -1.23297797
H       -1.00701199      -1.30056675      -1.27180663
H       -2.81018725       0.10618636       0.28383696
H       -0.82254470      -0.00301243       1.56509996
H        0.35008210      -1.94554887       0.48449363
H        0.26841277       1.13746408      -1.06870533
H        0.17533212       1.95865370       0.47794579
H        3.86879015      -0.05961083       0.24159336
14
Frame=16 idx=003616 GeodesicLength=1.2050132235950386 rxn_smarts="[C:1]([C@@:2]([O:3][H:11])([C:4]([C:5]#[C:6][H:14])([H:12])[H:13])[H:10])([H:7])([H:8])[H:9]>>[C:1](=[C:2]([C:4]([C:5]#[C:6][H:14])([H:12])[H:13])[H:10])([H:7])[H:9].[O:3]([H:8])[H:11]"
C       -1.89826454      -0.07490072      -0.31144386
C       -0.72601818       0.00520362       0.49092265
O       -0.19908837      -1.87826437      -0.27291724
C        0.33540154       0.99483985       0.03451925
C        1.67663297       0.48939921       0.33487177
C        2.79135805       0.05157130       0.25453672
H       -1.96735193       0.48001033      -1.24821584
H       -0.95736735      -1.31313610      -1.30725190
H       -2.80592671       0.11801343       0.26305022
H       -0.84507329       0.01803108       1.57732063
H        0.30711677      -1.94243378       0.53856150
H        0.25880822       1.16545502      -1.04488395
H        0.17536777       1.96386142       0.51437874
H        3.85440505      -0.07765029       0.17655131
