16
Frame=0 idx=011350 GeodesicLength=0.0 rxn_smarts="[C:1]([c:2]1[c:3]([C:4]([H:11])([H:12])[H:13])[c:5]([H:14])[c:6]([H:15])[n:7]1[H:16])([H:8])([H:9])[H:10]>>[C:1]([C@@:2]1([H:13])[C:3](=[C:4]([H:11])[H:12])[C:5]([H:14])=[C:6]([H:15])[N:7]1[H:16])([H:8])([H:9])[H:10]"
C       -1.31166239       1.45244923      -0.09837391
C       -0.09145544       0.63108693      -0.00818333
C       -0.04565003      -0.81098934       0.01033213
C       -1.14658836      -1.71420284      -0.36997886
C        1.40797399      -1.10606301       0.00185679
C        2.08040767       0.05710958      -0.02752678
N        1.17537135       1.10482579      -0.06586140
H       -2.07089427       1.07727437       0.59295317
H       -1.74482740       1.36271596      -1.10343456
H       -1.12795834       2.50640203       0.11416362
H       -1.06382122      -2.71547439       0.04415444
H       -2.14407071      -1.29001251      -0.27855313
H       -0.31352882      -0.78351493       1.11988220
H        1.83470841      -2.09556882       0.01304907
H        3.14053807       0.25385022      -0.00537139
H        1.42145745       2.07011169       0.06089199
16
Frame=1 idx=011350 GeodesicLength=0.11204240762062671 rxn_smarts="[C:1]([c:2]1[c:3]([C:4]([H:11])([H:12])[H:13])[c:5]([H:14])[c:6]([H:15])[n:7]1[H:16])([H:8])([H:9])[H:10]>>[C:1]([C@@:2]1([H:13])[C:3](=[C:4]([H:11])[H:12])[C:5]([H:14])=[C:6]([H:15])[N:7]1[H:16])([H:8])([H:9])[H:10]"
C       -1.31051596       1.45382416      -0.10978935
C       -0.09409683       0.62939147       0.01774670
C       -0.04161788      -0.81203857      -0.00063081
C       -1.15050858      -1.71513089      -0.33198723
C        1.40888826      -1.10646833      -0.01271735
C        2.08002268       0.05817947      -0.03878300
N        1.17519314       1.10580148      -0.05067203
H       -2.09642175       1.07195071       0.54679560
H       -1.70361579       1.38280816      -1.13220547
H       -1.13540731       2.50387363       0.12844270
H       -1.04831314      -2.72699879       0.04920708
H       -2.14875551      -1.29244089      -0.25022277
H       -0.33619114      -0.77881726       1.13384891
H        1.83682260      -2.09559221      -0.01120099
H        3.14056519       0.25435956      -0.03494878
H        1.42395203       2.06729831       0.09711681
16
Frame=2 idx=011350 GeodesicLength=0.22411213668723154 rxn_smarts="[C:1]([c:2]1[c:3]([C:4]([H:11])([H:12])[H:13])[c:5]([H:14])[c:6]([H:15])[n:7]1[H:16])([H:8])([H:9])[H:10]>>[C:1]([C@@:2]1([H:13])[C:3](=[C:4]([H:11])[H:12])[C:5]([H:14])=[C:6]([H:15])[N:7]1[H:16])([H:8])([H:9])[H:10]"
C       -1.30878597       1.45484682      -0.12122595
C       -0.09712514       0.62709709       0.04274519
C       -0.03822121      -0.81299725      -0.01170620
C       -1.15359893      -1.71626442      -0.29197710
C        1.40924838      -1.10672848      -0.02896606
C        2.07902683       0.05941973      -0.05140864
N        1.17462095       1.10642180      -0.03530914
H       -2.12005900       1.06625818       0.49915033
H       -1.66123328       1.40359603      -1.15907959
H       -1.14354473       2.50042228       0.14295049
H       -1.03311686      -2.73793477       0.05457376
H       -2.15280010      -1.29504130      -0.22350658
H       -0.35871876      -0.77286221       1.14924286
H        1.83844356      -2.09535911      -0.03573467
H        3.13961620       0.25548036      -0.06294348
H        1.42624804       2.06364522       0.13319477
16
Frame=3 idx=011350 GeodesicLength=0.33620866213065165 rxn_smarts="[C:1]([c:2]1[c:3]([C:4]([H:11])([H:12])[H:13])[c:5]([H:14])[c:6]([H:15])[n:7]1[H:16])([H:8])([H:9])[H:10]>>[C:1]([C@@:2]1([H:13])[C:3](=[C:4]([H:11])[H:12])[C:5]([H:14])=[C:6]([H:15])[N:7]1[H:16])([H:8])([H:9])[H:10]"
C       -1.30654361       1.45554019      -0.13262731
C       -0.10051222       0.62421951       0.06650803
C       -0.03547746      -0.81390745      -0.02301170
C       -1.15577055      -1.71751462      -0.24981669
C        1.40902255      -1.10684069      -0.04682266
C        2.07741295       0.06081946      -0.06513367
N        1.17372304       1.10663744      -0.01993715
H       -2.14171889       1.06007565       0.45010136
H       -1.61794946       1.42524505      -1.18390487
H       -1.15242695       2.49598205       0.15782660
H       -1.01823351      -2.74821954       0.06007788
H       -2.15609585      -1.29795341      -0.19856254
H       -0.38118247      -0.76540396       1.16613628
H        1.83954654      -2.09490152      -0.06033288
H        3.13782853       0.25708890      -0.08941721
H        1.42837735       2.05913293       0.16891654
16
Frame=4 idx=011350 GeodesicLength=0.4483217260338001 rxn_smarts="[C:1]([c:2]1[c:3]([C:4]([H:11])([H:12])[H:13])[c:5]([H:14])[c:6]([H:15])[n:7]1[H:16])([H:8])([H:9])[H:10]>>[C:1]([C@@:2]1([H:13])[C:3](=[C:4]([H:11])[H:12])[C:5]([H:14])=[C:6]([H:15])[N:7]1[H:16])([H:8])([H:9])[H:10]"
C       -1.30389008       1.45592561      -0.14389535
C       -0.10421546       0.62079054       0.08879105
C       -0.03340347      -0.81480634      -0.03471662
C       -1.15692396      -1.71874234      -0.20536273
C        1.40817536      -1.10680928      -0.06638166
C        2.07518883       0.06234792      -0.07992442
N        1.17256330       1.10640699      -0.00495246
H       -2.16131838       1.05329618       0.39983267
H       -1.57412041       1.44787970      -1.20648124
H       -1.16212986       2.49048153       0.17320770
H       -1.00370922      -2.75772529       0.06544922
H       -2.15849384      -1.30135256      -0.17535291
H       -0.40356101      -0.75620555       1.18457910
H        1.84009923      -2.09425894      -0.08493944
H        3.13535742       0.25899581      -0.11357790
H        1.43038156       2.05377603       0.20372498
16
Frame=5 idx=011350 GeodesicLength=0.5604437825178574 rxn_smarts="[C:1]([c:2]1[c:3]([C:4]([H:11])([H:12])[H:13])[c:5]([H:14])[c:6]([H:15])[n:7]1[H:16])([H:8])([H:9])[H:10]>>[C:1]([C@@:2]1([H:13])[C:3](=[C:4]([H:11])[H:12])[C:5]([H:14])=[C:6]([H:15])[N:7]1[H:16])([H:8])([H:9])[H:10]"
C       -1.30090854       1.45601326      -0.15498369
C       -0.10818982       0.61684382       0.10959611
C       -0.03200368      -0.81572340      -0.04688303
C       -1.15689759      -1.71975763      -0.15861731
C        1.40669098      -1.10664362      -0.08740000
C        2.07239477       0.06395852      -0.09531666
N        1.17120893       1.10570109       0.00958170
H       -2.17886339       1.04582086       0.34833336
H       -1.52989213       1.47157001      -1.22671984
H       -1.17277989       2.48383676       0.18917510
H       -0.98968081      -2.76624317       0.07020775
H       -2.15975138      -1.30545630      -0.15386518
H       -0.42601589      -0.74509539       1.20468371
H        1.84008317      -2.09346840      -0.10914623
H        3.13231213       0.26103807      -0.13609735
H        1.43229314       2.04760552       0.23745156
16
Frame=6 idx=011350 GeodesicLength=0.6725453507025212 rxn_smarts="[C:1]([c:2]1[c:3]([C:4]([H:11])([H:12])[H:13])[c:5]([H:14])[c:6]([H:15])[n:7]1[H:16])([H:8])([H:9])[H:10]>>[C:1]([C@@:2]1([H:13])[C:3](=[C:4]([H:11])[H:12])[C:5]([H:14])=[C:6]([H:15])[N:7]1[H:16])([H:8])([H:9])[H:10]"
C       -1.29770109       1.45579924      -0.16580657
C       -0.11237524       0.61240903       0.12886455
C       -0.03127516      -0.81668068      -0.05973258
C       -1.15548617      -1.72035297      -0.10973633
C        1.40455970      -1.10636021      -0.10987769
C        2.06908815       0.06558766      -0.11113910
N        1.16971406       1.10450347       0.02335425
H       -2.19430628       1.03753935       0.29573047
H       -1.48555999       1.49636797      -1.24445742
H       -1.18449993       2.47594381       0.20581474
H       -0.97639779      -2.77343489       0.07400535
H       -2.15959157      -1.31052238      -0.13372615
H       -0.44863486      -0.73192332       1.22641954
H        1.83948876      -2.09257622      -0.13280486
H        3.12883935       0.26299830      -0.15647892
H        1.43413804       2.04070185       0.26957071
16
Frame=7 idx=011350 GeodesicLength=0.7846119619917141 rxn_smarts="[C:1]([c:2]1[c:3]([C:4]([H:11])([H:12])[H:13])[c:5]([H:14])[c:6]([H:15])[n:7]1[H:16])([H:8])([H:9])[H:10]>>[C:1]([C@@:2]1([H:13])[C:3](=[C:4]([H:11])[H:12])[C:5]([H:14])=[C:6]([H:15])[N:7]1[H:16])([H:8])([H:9])[H:10]"
C       -1.29433002       1.45526289      -0.17636734
C       -0.11671969       0.60748862       0.14665902
C       -0.03119244      -0.81769011      -0.07352654
C       -1.15243127      -1.72031138      -0.05924222
C        1.40181451      -1.10597507      -0.13361789
C        2.06536325       0.06716636      -0.12693633
N        1.16813078       1.10279972       0.03639442
H       -2.20762022       1.02835170       0.24195178
H       -1.44123499       1.52227943      -1.25964853
H       -1.19742895       2.46668096       0.22310708
H       -0.96420918      -2.77886301       0.07674119
H       -2.15770665      -1.31680756      -0.11431298
H       -0.47172018      -0.71665041       1.24965984
H        1.83833907      -2.09160743      -0.15572105
H        3.12503224       0.26475881      -0.17523169
H        1.43591374       2.03311645       0.30009126
16
Frame=8 idx=011350 GeodesicLength=0.8966295199259806 rxn_smarts="[C:1]([c:2]1[c:3]([C:4]([H:11])([H:12])[H:13])[c:5]([H:14])[c:6]([H:15])[n:7]1[H:16])([H:8])([H:9])[H:10]>>[C:1]([C@@:2]1([H:13])[C:3](=[C:4]([H:11])[H:12])[C:5]([H:14])=[C:6]([H:15])[N:7]1[H:16])([H:8])([H:9])[H:10]"
C       -1.29083801       1.45438775      -0.18670776
C       -0.12118442       0.60204800       0.16300583
C       -0.03171366      -0.81875502      -0.08871893
C       -1.14744833      -1.71946363      -0.00806297
C        1.39853043      -1.10549898      -0.15853317
C        2.06134212       0.06863233      -0.14231840
N        1.16649607       1.10057473       0.04879972
H       -2.21874657       1.01819126       0.18688517
H       -1.39701305       1.54933728      -1.27226931
H       -1.21168132       2.45591793       0.24098832
H       -0.95344422      -2.78208821       0.07896544
H       -2.15388071      -1.32447455      -0.09468360
H       -0.49570016      -0.69936563       1.27405171
H        1.83669963      -2.09057896      -0.17801362
H        3.12099877       0.26626115      -0.19259296
H        1.43758345       2.02487454       0.32920454
16
Frame=9 idx=011350 GeodesicLength=1.0085973252467755 rxn_smarts="[C:1]([c:2]1[c:3]([C:4]([H:11])([H:12])[H:13])[c:5]([H:14])[c:6]([H:15])[n:7]1[H:16])([H:8])([H:9])[H:10]>>[C:1]([C@@:2]1([H:13])[C:3](=[C:4]([H:11])[H:12])[C:5]([H:14])=[C:6]([H:15])[N:7]1[H:16])([H:8])([H:9])[H:10]"
C       -1.28721381       1.45316851      -0.19691321
C       -0.12574498       0.59599747       0.17794150
C       -0.03279869      -0.81985272      -0.10587241
C       -1.14030315      -1.71765342       0.04263490
C        1.39477775      -1.10490600      -0.18459413
C        2.05712616       0.06993498      -0.15690717
N        1.16483775       1.09776961       0.06084339
H       -2.22759328       1.00705886       0.13030119
H       -1.35286841       1.57759226      -1.28232333
H       -1.22734209       2.44349839       0.25939274
H       -0.94416335      -2.78281464       0.08208137
H       -2.14804312      -1.33351645      -0.07401509
H       -0.52114195      -0.68029043       1.29911456
H        1.83458708      -2.08943253      -0.20018426
H        3.11678436       0.26753651      -0.20888014
H        1.43909974       2.01590959       0.35738007
16
Frame=10 idx=011350 GeodesicLength=1.120516203178501 rxn_smarts="[C:1]([c:2]1[c:3]([C:4]([H:11])([H:12])[H:13])[c:5]([H:14])[c:6]([H:15])[n:7]1[H:16])([H:8])([H:9])[H:10]>>[C:1]([C@@:2]1([H:13])[C:3](=[C:4]([H:11])[H:12])[C:5]([H:14])=[C:6]([H:15])[N:7]1[H:16])([H:8])([H:9])[H:10]"
C       -1.28347581       1.45167020      -0.20703997
C       -0.13042453       0.58925285       0.19139009
C       -0.03445645      -0.82095308      -0.12562307
C       -1.13079832      -1.71478172       0.09179773
C        1.39061486      -1.10417929      -0.21205536
C        2.05280294       0.07102410      -0.17069156
N        1.16313623       1.09434404       0.07262206
H       -2.23405033       0.99508122       0.07209600
H       -1.30889709       1.60722230      -1.28974686
H       -1.24444155       2.42933397       0.27822957
H       -0.93596425      -2.78113415       0.08803420
H       -2.14032855      -1.34376497      -0.05167041
H       -0.54865966      -0.65954472       1.32429981
H        1.83203810      -2.08818221      -0.22319778
H        3.11252778       0.26848299      -0.22348219
H        1.44037663       2.00612845       0.38503775
16
Frame=11 idx=011350 GeodesicLength=1.232384901324393 rxn_smarts="[C:1]([c:2]1[c:3]([C:4]([H:11])([H:12])[H:13])[c:5]([H:14])[c:6]([H:15])[n:7]1[H:16])([H:8])([H:9])[H:10]>>[C:1]([C@@:2]1([H:13])[C:3](=[C:4]([H:11])[H:12])[C:5]([H:14])=[C:6]([H:15])[N:7]1[H:16])([H:8])([H:9])[H:10]"
C       -1.27959678       1.44996653      -0.21713857
C       -0.13526204       0.58171552       0.20339141
C       -0.03674266      -0.82201269      -0.14831529
C       -1.11884493      -1.71066964       0.13890416
C        1.38602644      -1.10327907      -0.24105187
C        2.04838360       0.07183486      -0.18366551
N        1.16136418       1.09020106       0.08437279
H       -2.23798918       0.98248217       0.01211921
H       -1.26506809       1.63832658      -1.29445167
H       -1.26298539       2.41333739       0.29738655
H       -0.92806198      -2.77734213       0.09856704
H       -2.13085118      -1.35503173      -0.02775765
H       -0.57895204      -0.63709851       1.34931689
H        1.82897829      -2.08679826      -0.24797828
H        3.10823999       0.26902283      -0.23640751
H        1.44136176       1.99534510       0.41270829
16
Frame=12 idx=011350 GeodesicLength=1.3442057168908352 rxn_smarts="[C:1]([c:2]1[c:3]([C:4]([H:11])([H:12])[H:13])[c:5]([H:14])[c:6]([H:15])[n:7]1[H:16])([H:8])([H:9])[H:10]>>[C:1]([C@@:2]1([H:13])[C:3](=[C:4]([H:11])[H:12])[C:5]([H:14])=[C:6]([H:15])[N:7]1[H:16])([H:8])([H:9])[H:10]"
C       -1.27554253       1.44813062      -0.22724529
C       -0.14031537       0.57329936       0.21407027
C       -0.03974910      -0.82300464      -0.17401510
C       -1.10439623      -1.70509187       0.18392019
C        1.38095467      -1.10216480      -0.27171954
C        2.04384051       0.07228972      -0.19588889
N        1.15948379       1.08522255       0.09634359
H       -2.23926043       0.96957644      -0.04963386
H       -1.22136840       1.67083468      -1.29633923
H       -1.28291856       2.39550860       0.31658288
H       -0.91948066      -2.77178407       0.11481661
H       -2.11964982      -1.36721320      -0.00268385
H       -0.61281420      -0.61272634       1.37406890
H        1.82529883      -2.08526799      -0.27535823
H        3.10389354       0.26906345      -0.24783657
H        1.44202396       1.98332751       0.44091812
16
Frame=13 idx=011350 GeodesicLength=1.4560180405805792 rxn_smarts="[C:1]([c:2]1[c:3]([C:4]([H:11])([H:12])[H:13])[c:5]([H:14])[c:6]([H:15])[n:7]1[H:16])([H:8])([H:9])[H:10]>>[C:1]([C@@:2]1([H:13])[C:3](=[C:4]([H:11])[H:12])[C:5]([H:14])=[C:6]([H:15])[N:7]1[H:16])([H:8])([H:9])[H:10]"
C       -1.27122875       1.44620392      -0.23739458
C       -0.14563950       0.56390673       0.22366101
C       -0.04356460      -0.82392041      -0.20253282
C       -1.08740075      -1.69777420       0.22713359
C        1.37528660      -1.10076969      -0.30420314
C        2.03908321       0.07230096      -0.20743106
N        1.15745975       1.07923483       0.10887358
H       -2.23768158       0.95670327      -0.11314609
H       -1.17767672       1.70450860      -1.29532856
H       -1.30417308       2.37585167       0.33548705
H       -0.90918186      -2.76459601       0.13748147
H       -2.10663184      -1.38034204       0.02297770
H       -0.65119748      -0.58611019       1.39854327
H        1.82083166      -2.08354085      -0.30603412
H        3.09935475       0.26855607      -0.25827235
H        1.44236018       1.96978734       0.47018506
16
Frame=14 idx=011350 GeodesicLength=1.567824267209157 rxn_smarts="[C:1]([c:2]1[c:3]([C:4]([H:11])([H:12])[H:13])[c:5]([H:14])[c:6]([H:15])[n:7]1[H:16])([H:8])([H:9])[H:10]>>[C:1]([C@@:2]1([H:13])[C:3](=[C:4]([H:11])[H:12])[C:5]([H:14])=[C:6]([H:15])[N:7]1[H:16])([H:8])([H:9])[H:10]"
C       -1.26658370       1.44421619      -0.24761056
C       -0.15130713       0.55347272       0.23244947
C       -0.04830743      -0.82477405      -0.23352628
C       -1.06777723      -1.68845893       0.26896550
C        1.36890848      -1.09899201      -0.33883136
C        2.03403436       0.07180229      -0.21843626
N        1.15524730       1.07207450       0.12224529
H       -2.23308200       0.94424291      -0.17804843
H       -1.13402947       1.73883560      -1.29141536
H       -1.32650685       2.35460353       0.35346873
H       -0.89612930      -2.75583128       0.16680444
H       -2.09164232      -1.39459398       0.04894172
H       -0.69520071      -0.55686021       1.42258848
H        1.81543311      -2.08155164      -0.34077809
H        3.09456695       0.26739428      -0.26781761
H        1.44237594       1.95442008       0.50100031
16
Frame=15 idx=011350 GeodesicLength=1.679677172834039 rxn_smarts="[C:1]([c:2]1[c:3]([C:4]([H:11])([H:12])[H:13])[c:5]([H:14])[c:6]([H:15])[n:7]1[H:16])([H:8])([H:9])[H:10]>>[C:1]([C@@:2]1([H:13])[C:3](=[C:4]([H:11])[H:12])[C:5]([H:14])=[C:6]([H:15])[N:7]1[H:16])([H:8])([H:9])[H:10]"
C       -1.26146958       1.44218276      -0.25791521
C       -0.15739256       0.54193005       0.24082285
C       -0.05408636      -0.82559588      -0.26646631
C       -1.04543871      -1.67688800       0.30989966
C        1.36166251      -1.09667085      -0.37593822
C        2.02855604       0.07074915      -0.22909401
N        1.15280995       1.06352013       0.13685798
H       -2.22529662       0.93255954      -0.24398985
H       -1.09029480       1.77321641      -1.28466306
H       -1.34963345       2.33205170       0.36993041
H       -0.87926065      -2.74530611       0.20295361
H       -2.07443562      -1.41029884       0.07496034
H       -0.74611640      -0.52468767       1.44581922
H        1.80891094      -2.07915190      -0.38020575
H        3.08937474       0.26554323      -0.27688976
H        1.44211057       1.93684628       0.53391812
16
Frame=16 idx=011350 GeodesicLength=1.791647586281011 rxn_smarts="[C:1]([c:2]1[c:3]([C:4]([H:11])([H:12])[H:13])[c:5]([H:14])[c:6]([H:15])[n:7]1[H:16])([H:8])([H:9])[H:10]>>[C:1]([C@@:2]1([H:13])[C:3](=[C:4]([H:11])[H:12])[C:5]([H:14])=[C:6]([H:15])[N:7]1[H:16])([H:8])([H:9])[H:10]"
C       -1.25571797       1.44013297      -0.26829727
C       -0.16398216       0.52924074       0.24923254
C       -0.06101427      -0.82644028      -0.30067166
C       -1.02034204      -1.66283602       0.35038449
C        1.35337910      -1.09360019      -0.41577792
C        2.02247975       0.06915074      -0.23970440
N        1.15011516       1.05332807       0.15311177
H       -2.21420054       0.92202149      -0.31046501
H       -1.04630427       1.80696586      -1.27520408
H       -1.37314623       2.30865186       0.38425488
H       -0.85753437      -2.73271301       0.24593672
H       -2.05474020      -1.42790635       0.10094397
H       -0.80529872      -0.48952821       1.46743462
H        1.80107469      -2.07613046      -0.42465113
H        3.08359534       0.26303280      -0.28602189
H        1.44163673       1.91662998       0.56949437
