12
Frame=0 idx=006784 GeodesicLength=0.0 rxn_smarts="[O:1]=[C:2]([C@@:3]1([H:9])[C:4]([H:10])([H:11])[N:5]1[C:6](=[O:7])[H:12])[H:8]>>[C:6](=[O:7])([H:11])[H:12].[O:1]=[C:2]([C@@:3]1([H:9])[C:4]([H:10])=[N:5]1)[H:8]"
O        3.09686043       0.06414188       0.04489475
C        2.05304966       0.00310043      -0.54141061
C        0.73703937      -0.10662344       0.14425570
C       -0.43768238       0.53904586      -0.42943915
N       -0.34091736      -0.78795182      -0.60731948
C       -1.81955497      -0.35641470       0.63479851
O       -2.91984000      -0.44161020       0.22668589
H        1.99758685       0.01026682      -1.64847170
H        0.79863502      -0.21585353       1.23041003
H       -0.72309892       1.34736272      -1.09267794
H       -1.22888434       0.81555792       0.65786893
H       -1.21319336      -0.87102199       1.38040510
12
Frame=1 idx=006784 GeodesicLength=0.1145801562061217 rxn_smarts="[O:1]=[C:2]([C@@:3]1([H:9])[C:4]([H:10])([H:11])[N:5]1[C:6](=[O:7])[H:12])[H:8]>>[C:6](=[O:7])([H:11])[H:12].[O:1]=[C:2]([C@@:3]1([H:9])[C:4]([H:10])=[N:5]1)[H:8]"
O        3.10693255       0.07586131       0.02581233
C        2.05830927      -0.00022163      -0.55007937
C        0.74829250      -0.09181825       0.14892082
C       -0.42620596       0.55740988      -0.42309978
N       -0.33919675      -0.77095251      -0.58959347
C       -1.83324874      -0.37488644       0.63535504
O       -2.92864539      -0.44401103       0.20782508
H        1.99330934      -0.02401757      -1.65662171
H        0.81473429      -0.18945566       1.23525700
H       -0.70449222       1.35610461      -1.10063218
H       -1.23836965       0.81819624       0.68112104
H       -1.25141925      -0.91220895       1.38573520
12
Frame=2 idx=006784 GeodesicLength=0.2291337333670547 rxn_smarts="[O:1]=[C:2]([C@@:3]1([H:9])[C:4]([H:10])([H:11])[N:5]1[C:6](=[O:7])[H:12])[H:8]>>[C:6](=[O:7])([H:11])[H:12].[O:1]=[C:2]([C@@:3]1([H:9])[C:4]([H:10])=[N:5]1)[H:8]"
O        3.11716651       0.08757585       0.00549215
C        2.06346303      -0.00369408      -0.55882823
C        0.75998203      -0.07609764       0.15384003
C       -0.41450662       0.57623765      -0.41660177
N       -0.33729958      -0.75351288      -0.57039379
C       -1.84704722      -0.39383531       0.63586649
O       -2.93705915      -0.44533843       0.18891551
H        1.98816550      -0.05908868      -1.66381843
H        0.83176931      -0.16086380       1.24028193
H       -0.68542676       1.36422633      -1.10929595
H       -1.24764589       0.82051409       0.70536084
H       -1.29156116      -0.95612309       1.38918121
12
Frame=3 idx=006784 GeodesicLength=0.34364592059580656 rxn_smarts="[O:1]=[C:2]([C@@:3]1([H:9])[C:4]([H:10])([H:11])[N:5]1[C:6](=[O:7])[H:12])[H:8]>>[C:6](=[O:7])([H:11])[H:12].[O:1]=[C:2]([C@@:3]1([H:9])[C:4]([H:10])=[N:5]1)[H:8]"
O        3.12753552       0.09921505      -0.01611616
C        2.06848320      -0.00734327      -0.56762028
C        0.77213013      -0.05936110       0.15902636
C       -0.40258097       0.59556601      -0.40997294
N       -0.33521176      -0.73557743      -0.54957270
C       -1.86092451      -0.41329119       0.63637075
O       -2.94501569      -0.44553298       0.17007865
H        1.98209220      -0.09500876      -1.66993680
H        0.84980679      -0.12986149       1.24544868
H       -0.66593399       1.37162893      -1.11872239
H       -1.25668274       0.82250111       0.73065547
H       -1.33369818      -1.00293488       1.39036135
12
Frame=4 idx=006784 GeodesicLength=0.45812495918108637 rxn_smarts="[O:1]=[C:2]([C@@:3]1([H:9])[C:4]([H:10])([H:11])[N:5]1[C:6](=[O:7])[H:12])[H:8]>>[C:6](=[O:7])([H:11])[H:12].[O:1]=[C:2]([C@@:3]1([H:9])[C:4]([H:10])=[N:5]1)[H:8]"
O        3.13802127       0.11066522      -0.03905355
C        2.07334291      -0.01117785      -0.57641282
C        0.78476424      -0.04149239       0.16449427
C       -0.39043607       0.61544275      -0.40324582
N       -0.33291203      -0.71707657      -0.52697565
C       -1.87485031      -0.43329502       0.63691664
O       -2.95245401      -0.44453393       0.15145498
H        1.97502309      -0.13187010      -1.67483495
H        0.86892526      -0.09620371       1.25071891
H       -0.64608101       1.37820744      -1.12897387
H       -1.26546634       0.82415564       0.75708699
H       -1.37787700      -1.05282148       1.38882487
12
Frame=5 idx=006784 GeodesicLength=0.572494262233571 rxn_smarts="[O:1]=[C:2]([C@@:3]1([H:9])[C:4]([H:10])([H:11])[N:5]1[C:6](=[O:7])[H:12])[H:8]>>[C:6](=[O:7])([H:11])[H:12].[O:1]=[C:2]([C@@:3]1([H:9])[C:4]([H:10])=[N:5]1)[H:8]"
O        3.14853765       0.12201218      -0.06340651
C        2.07799146      -0.01536390      -0.58514333
C        0.79789383      -0.02241412       0.17024886
C       -0.37804526       0.63588613      -0.39644857
N       -0.33041273      -0.69793294      -0.50240694
C       -1.88878497      -0.45388545       0.63754781
O       -2.95926167      -0.44230373       0.13322788
H        1.96687680      -0.16975424      -1.67834213
H        0.88917666      -0.05968002       1.25600164
H       -0.62584379       1.38384407      -1.14003114
H       -1.27392855       0.82545245       0.78471642
H       -1.42419943      -1.10586044       1.38403601
12
Frame=6 idx=006784 GeodesicLength=0.6867906646482619 rxn_smarts="[O:1]=[C:2]([C@@:3]1([H:9])[C:4]([H:10])([H:11])[N:5]1[C:6](=[O:7])[H:12])[H:8]>>[C:6](=[O:7])([H:11])[H:12].[O:1]=[C:2]([C@@:3]1([H:9])[C:4]([H:10])=[N:5]1)[H:8]"
O        3.15907488       0.13289815      -0.08916887
C        2.08239030      -0.01984649      -0.59374179
C        0.81154707      -0.00195761       0.17630119
C       -0.36544381       0.65696403      -0.38963583
N       -0.32767569      -0.67803882      -0.47569366
C       -1.90266989      -0.47514306       0.63833748
O       -2.96537956      -0.43881199       0.11561348
H        1.95756329      -0.20873174      -1.68025815
H        0.91065105      -0.01994386       1.26123371
H       -0.60538044       1.38840057      -1.15199500
H       -1.28210012       0.82641639       0.81363443
H       -1.47257708      -1.16220556       1.37537301
12
Frame=7 idx=006784 GeodesicLength=0.8009714069968422 rxn_smarts="[O:1]=[C:2]([C@@:3]1([H:9])[C:4]([H:10])([H:11])[N:5]1[C:6](=[O:7])[H:12])[H:8]>>[C:6](=[O:7])([H:11])[H:12].[O:1]=[C:2]([C@@:3]1([H:9])[C:4]([H:10])=[N:5]1)[H:8]"
O        3.16954135       0.14320636      -0.11637651
C        2.08646589      -0.02472326      -0.60211420
C        0.82573069       0.01999865       0.18264927
C       -0.35263184       0.67871816      -0.38285133
N       -0.32470124      -0.65726693      -0.44662860
C       -1.91643140      -0.49715468       0.63934772
O       -2.97070493      -0.43403755       0.09887764
H        1.94696567      -0.24892106      -1.68032985
H        0.93341112       0.02330397       1.26628336
H       -0.58475654       1.39172856      -1.16487649
H       -1.28995445       0.82704717       0.84392324
H       -1.52293432      -1.22189938       1.36209574
12
Frame=8 idx=006784 GeodesicLength=0.9150887920359331 rxn_smarts="[O:1]=[C:2]([C@@:3]1([H:9])[C:4]([H:10])([H:11])[N:5]1[C:6](=[O:7])[H:12])[H:8]>>[C:6](=[O:7])([H:11])[H:12].[O:1]=[C:2]([C@@:3]1([H:9])[C:4]([H:10])=[N:5]1)[H:8]"
O        3.17990728       0.15258092      -0.14499213
C        2.09017180      -0.03002839      -0.61016930
C        0.84046320       0.04361130       0.18928854
C       -0.33965641       0.70121601      -0.37616034
N       -0.32146914      -0.63545560      -0.41502044
C       -1.92999718      -0.52004786       0.64065644
O       -2.97519184      -0.42798886       0.08332565
H        1.93498902      -0.29040021      -1.67831047
H        0.95753786       0.07041171       1.27102505
H       -0.56414978       1.39366337      -1.17874570
H       -1.29754952       0.82736547       0.87570472
H       -1.57505529      -1.28492785       1.34339798
12
Frame=9 idx=006784 GeodesicLength=1.0288980767747848 rxn_smarts="[O:1]=[C:2]([C@@:3]1([H:9])[C:4]([H:10])([H:11])[N:5]1[C:6](=[O:7])[H:12])[H:8]>>[C:6](=[O:7])([H:11])[H:12].[O:1]=[C:2]([C@@:3]1([H:9])[C:4]([H:10])=[N:5]1)[H:8]"
O        3.18984373       0.16167670      -0.17527713
C        2.09332981      -0.03623470      -0.61768664
C        0.85568981       0.06883360       0.19621020
C       -0.32643706       0.72442676      -0.36955275
N       -0.31807297      -0.61246524      -0.38062640
C       -1.94324215      -0.54392698       0.64223091
O       -2.97860348      -0.42068060       0.06928427
H        1.92143532      -0.33355778      -1.67378715
H        0.98303583       0.12147330       1.27519532
H       -0.54339187       1.39409667      -1.19334289
H       -1.30471605       0.82732555       0.90905175
H       -1.62887093      -1.35096728       1.31830052
12
Frame=10 idx=006784 GeodesicLength=1.142579093854433 rxn_smarts="[O:1]=[C:2]([C@@:3]1([H:9])[C:4]([H:10])([H:11])[N:5]1[C:6](=[O:7])[H:12])[H:8]>>[C:6](=[O:7])([H:11])[H:12].[O:1]=[C:2]([C@@:3]1([H:9])[C:4]([H:10])=[N:5]1)[H:8]"
O        3.19940957       0.16912615      -0.20686274
C        2.09589294      -0.04311920      -0.62456500
C        0.87140996       0.09594898       0.20335888
C       -0.31313408       0.74848235      -0.36318744
N       -0.31445840      -0.58802480      -0.34334204
C       -1.95601990      -0.56905487       0.64414560
O       -2.98100158      -0.41232746       0.05720458
H        1.90619910      -0.37811380      -1.66650207
H        1.00995778       0.17697955       1.27859518
H       -0.52292630       1.39284267      -1.20889081
H       -1.31171856       0.82700985       0.94407390
H       -1.68361054      -1.41974943       1.28597196
12
Frame=11 idx=006784 GeodesicLength=1.256015044883345 rxn_smarts="[O:1]=[C:2]([C@@:3]1([H:9])[C:4]([H:10])([H:11])[N:5]1[C:6](=[O:7])[H:12])[H:8]>>[C:6](=[O:7])([H:11])[H:12].[O:1]=[C:2]([C@@:3]1([H:9])[C:4]([H:10])=[N:5]1)[H:8]"
O        3.20834073       0.17465203      -0.23966499
C        2.09765779      -0.05088046      -0.63058238
C        0.88753496       0.12501949       0.21065585
C       -0.29976279       0.77341910      -0.35713234
N       -0.31070762      -0.56185118      -0.30303531
C       -1.96812103      -0.59567259       0.64632537
O       -2.98227471      -0.40313339       0.04757181
H        1.88904641      -0.42416030      -1.65598983
H        1.03826113       0.23712482       1.28083482
H       -0.50279341       1.38975166      -1.22526478
H       -1.31857087       0.82640049       0.98084587
H       -1.73861058      -1.49066967       1.24543591
12
Frame=12 idx=006784 GeodesicLength=1.3692539538855804 rxn_smarts="[O:1]=[C:2]([C@@:3]1([H:9])[C:4]([H:10])([H:11])[N:5]1[C:6](=[O:7])[H:12])[H:8]>>[C:6](=[O:7])([H:11])[H:12].[O:1]=[C:2]([C@@:3]1([H:9])[C:4]([H:10])=[N:5]1)[H:8]"
O        3.21646297       0.17778313      -0.27347602
C        2.09848519      -0.05971809      -0.63552148
C        0.90397154       0.15607286       0.21800874
C       -0.28641285       0.79931435      -0.35150366
N       -0.30691043      -0.53362043      -0.25969671
C       -1.97932890      -0.62406955       0.64863175
O       -2.98244609      -0.39339563       0.04088936
H        1.86983322      -0.47171154      -1.64188583
H        1.06788388       0.30198516       1.28155366
H       -0.48314230       1.38476460      -1.24240305
H       -1.32544021       0.82551207       1.01950449
H       -1.79295602      -1.56291693       1.19589876
12
Frame=13 idx=006784 GeodesicLength=1.4820942164983129 rxn_smarts="[O:1]=[C:2]([C@@:3]1([H:9])[C:4]([H:10])([H:11])[N:5]1[C:6](=[O:7])[H:12])[H:8]>>[C:6](=[O:7])([H:11])[H:12].[O:1]=[C:2]([C@@:3]1([H:9])[C:4]([H:10])=[N:5]1)[H:8]"
O        3.22322472       0.17922783      -0.30855402
C        2.09806536      -0.07022220      -0.63895772
C        0.92054147       0.18884730       0.22536077
C       -0.27305596       0.82615499      -0.34631433
N       -0.30325160      -0.50306239      -0.21342195
C       -1.98930067      -0.65448052       0.65066375
O       -2.98136954      -0.38340917       0.03753430
H        1.84827568      -0.52130775      -1.62355409
H        1.09868608       0.37122348       1.28034307
H       -0.46379398       1.37799114      -1.25990718
H       -1.33230655       0.82434690       1.06016737
H       -1.84571501      -1.63530962       1.13664003
12
Frame=14 idx=006784 GeodesicLength=1.5947240009029404 rxn_smarts="[O:1]=[C:2]([C@@:3]1([H:9])[C:4]([H:10])([H:11])[N:5]1[C:6](=[O:7])[H:12])[H:8]>>[C:6](=[O:7])([H:11])[H:12].[O:1]=[C:2]([C@@:3]1([H:9])[C:4]([H:10])=[N:5]1)[H:8]"
O        3.22855244       0.17708380      -0.34404346
C        2.09621572      -0.08220540      -0.64072716
C        0.93706953       0.22349665       0.23247634
C       -0.25986961       0.85415380      -0.34184005
N       -0.29988578      -0.46964038      -0.16448813
C       -1.99761884      -0.68729796       0.65211966
O       -2.97923021      -0.37389369       0.03818789
H        1.82417217      -0.57224939      -1.60074940
H        1.13047310       0.44484503       1.27665818
H       -0.44504758       1.36947886      -1.27789013
H       -1.33954073       0.82297014       1.10287284
H       -1.89529021      -1.70674146       1.06742342
12
Frame=15 idx=006784 GeodesicLength=1.7070714463490277 rxn_smarts="[O:1]=[C:2]([C@@:3]1([H:9])[C:4]([H:10])([H:11])[N:5]1[C:6](=[O:7])[H:12])[H:8]>>[C:6](=[O:7])([H:11])[H:12].[O:1]=[C:2]([C@@:3]1([H:9])[C:4]([H:10])=[N:5]1)[H:8]"
O        3.23195080       0.17109472      -0.37970790
C        2.09258680      -0.09598154      -0.64047033
C        0.95329790       0.25979565       0.23919706
C       -0.24687775       0.88341458      -0.33822713
N       -0.29706849      -0.43290494      -0.11328941
C       -2.00370585      -0.72276277       0.65239877
O       -2.97598610      -0.36549475       0.04332089
H        1.79720444      -0.62455300      -1.57300200
H        1.16298373       0.52232656       1.27000408
H       -0.42676783       1.35948849      -1.29611662
H       -1.34729572       0.82142331       1.14769966
H       -1.94032194      -1.77584632       0.98819292
12
Frame=16 idx=006784 GeodesicLength=1.8191591443393245 rxn_smarts="[O:1]=[C:2]([C@@:3]1([H:9])[C:4]([H:10])([H:11])[N:5]1[C:6](=[O:7])[H:12])[H:8]>>[C:6](=[O:7])([H:11])[H:12].[O:1]=[C:2]([C@@:3]1([H:9])[C:4]([H:10])=[N:5]1)[H:8]"
O        3.23291455       0.16105288      -0.41538876
C        2.08682100      -0.11184688      -0.63780347
C        0.96897629       0.29745067       0.24538807
C       -0.23407913       0.91407313      -0.33563034
N       -0.29509762      -0.39238983      -0.06033322
C       -2.00687021      -0.76104570       0.65073657
O       -2.97160733      -0.35898242       0.05329218
H        1.76699038      -0.67820910      -1.53983884
H        1.19599831       0.60296767       1.25994729
H       -0.40876681       1.34841703      -1.31436368
H       -1.35575172       0.81978145       1.19473071
H       -1.97952771      -1.84126889       0.89926350
