15
Frame=0 idx=008448 GeodesicLength=0.0 rxn_smarts="[C:1]1([H:8])([H:9])[C@@:2]2([H:10])[C@@:3]3([H:11])[O:4][C:5]([H:12])([H:13])[C@:6]1([H:14])[C@@:7]23[H:15]>>[C:1]1([H:8])([H:9])[C@@:2]2([H:10])[C@@:3]3([H:11])[O+:4]=[C:5]([H:12])[C@:6]1([H:14])[C-:7]23.[H:13][H:15]"
C        0.91958188       1.17210795       0.28364012
C        1.49537724      -0.16409610      -0.07271985
C        0.48574406      -1.18603079       0.24504068
O       -0.59838013      -0.92380023       1.19574759
C       -1.28194131       0.04310423       0.62782473
C       -0.48670103       0.78670662      -0.31018290
C        0.24668476      -0.40862365      -1.02655816
H        0.91339349       1.46140407       1.33764942
H        1.34734161       1.96970360      -0.31991183
H        2.54065914      -0.38197173      -0.24883008
H        0.72186793      -2.24086028       0.21637592
H       -2.21836322       0.30534831       1.10747823
H       -1.90196773      -0.91591759      -0.82407762
H       -1.00786075       1.52653586      -0.90823323
H       -1.17543592      -1.04361033      -1.30324302
15
Frame=1 idx=008448 GeodesicLength=0.06696875406273142 rxn_smarts="[C:1]1([H:8])([H:9])[C@@:2]2([H:10])[C@@:3]3([H:11])[O:4][C:5]([H:12])([H:13])[C@:6]1([H:14])[C@@:7]23[H:15]>>[C:1]1([H:8])([H:9])[C@@:2]2([H:10])[C@@:3]3([H:11])[O+:4]=[C:5]([H:12])[C@:6]1([H:14])[C-:7]23.[H:13][H:15]"
C        0.91629973       1.17187897       0.28714028
C        1.49332817      -0.16282833      -0.07459704
C        0.48661109      -1.18850690       0.24453174
O       -0.59693900      -0.92456803       1.19495725
C       -1.28590458       0.03850900       0.62236768
C       -0.48534572       0.78436752      -0.31345446
C        0.24790173      -0.41358081      -1.02790268
H        0.90545816       1.46084952       1.34135582
H        1.34444689       1.97092261      -0.31436761
H        2.53908293      -0.37936368      -0.24979417
H        0.72695763      -2.24243100       0.22078640
H       -2.20405388       0.32403716       1.12362674
H       -1.90987660      -0.91668469      -0.82236181
H       -1.00505106       1.52548909      -0.91140032
H       -1.17291548      -1.04809044      -1.32088783
15
Frame=2 idx=008448 GeodesicLength=0.13394517923525617 rxn_smarts="[C:1]1([H:8])([H:9])[C@@:2]2([H:10])[C@@:3]3([H:11])[O:4][C:5]([H:12])([H:13])[C@:6]1([H:14])[C@@:7]23[H:15]>>[C:1]1([H:8])([H:9])[C@@:2]2([H:10])[C@@:3]3([H:11])[O+:4]=[C:5]([H:12])[C@:6]1([H:14])[C-:7]23.[H:13][H:15]"
C        0.91296487       1.17164708       0.29064204
C        1.49121035      -0.16156495      -0.07643279
C        0.48741896      -1.19097606       0.24407590
O       -0.59555277      -0.92531096       1.19420218
C       -1.28994846       0.03398714       0.61707935
C       -0.48404267       0.78201883      -0.31664389
C        0.24905612      -0.41853248      -1.02918225
H        0.89751043       1.46033405       1.34503293
H        1.34147215       1.97211741      -0.30885956
H        2.53743429      -0.37676754      -0.25072005
H        0.73198244      -2.24395685       0.22526967
H       -2.18894031       0.34243466       1.13924361
H       -1.91813164      -0.91731398      -0.82038337
H       -1.00230232       1.52442372      -0.91448590
H       -1.17013145      -1.05254007      -1.33883788
15
Frame=3 idx=008448 GeodesicLength=0.20092397080916802 rxn_smarts="[C:1]1([H:8])([H:9])[C@@:2]2([H:10])[C@@:3]3([H:11])[O:4][C:5]([H:12])([H:13])[C@:6]1([H:14])[C@@:7]23[H:15]>>[C:1]1([H:8])([H:9])[C@@:2]2([H:10])[C@@:3]3([H:11])[O+:4]=[C:5]([H:12])[C@:6]1([H:14])[C-:7]23.[H:13][H:15]"
C        0.90959614       1.17141529       0.29413984
C        1.48902974      -0.16030749      -0.07823092
C        0.48817007      -1.19343242       0.24367749
O       -0.59420714      -0.92601978       1.19349641
C       -1.29404602       0.02956374       0.61199062
C       -0.48278221       0.77966847      -0.31974285
C        0.25014392      -0.42347467      -1.03038922
H        0.88958308       1.45986560       1.34867413
H        1.33843557       1.97328471      -0.30339982
H        2.53571530      -0.37419027      -0.25162127
H        0.73693805      -2.24543174       0.22982696
H       -2.17313692       0.36044132       1.15423382
H       -1.92676250      -0.91778679      -0.81807526
H       -0.99960919       1.52334579      -0.91747718
H       -1.16706788      -1.05694175      -1.35710276
15
Frame=4 idx=008448 GeodesicLength=0.2679490416046373 rxn_smarts="[C:1]1([H:8])([H:9])[C@@:2]2([H:10])[C@@:3]3([H:11])[O:4][C:5]([H:12])([H:13])[C@:6]1([H:14])[C@@:7]23[H:15]>>[C:1]1([H:8])([H:9])[C@@:2]2([H:10])[C@@:3]3([H:11])[O+:4]=[C:5]([H:12])[C@:6]1([H:14])[C-:7]23.[H:13][H:15]"
C        0.90621688       1.17119957       0.29762789
C        1.48680678      -0.15905919      -0.07999958
C        0.48886995      -1.19588454       0.24333666
O       -0.59290349      -0.92669688       1.19285435
C       -1.29818830       0.02526041       0.60712988
C       -0.48155741       0.77733055      -0.32274664
C        0.25117261      -0.42841101      -1.03152408
H        0.88170403       1.45946852       1.35227799
H        1.33536840       1.97444298      -0.29800258
H        2.53395475      -0.37164282      -0.25251238
H        0.74182834      -2.24687523       0.23445602
H       -2.15678481       0.37798000       1.16855094
H       -1.93581614      -0.91808516      -0.81538194
H       -0.99696909       1.52227487      -0.92036579
H       -1.16370249      -1.06130206      -1.37570075
15
Frame=5 idx=008448 GeodesicLength=0.3349132077632644 rxn_smarts="[C:1]1([H:8])([H:9])[C@@:2]2([H:10])[C@@:3]3([H:11])[O:4][C:5]([H:12])([H:13])[C@:6]1([H:14])[C@@:7]23[H:15]>>[C:1]1([H:8])([H:9])[C@@:2]2([H:10])[C@@:3]3([H:11])[O+:4]=[C:5]([H:12])[C@:6]1([H:14])[C-:7]23.[H:13][H:15]"
C        0.90283459       1.17097099       0.30109369
C        1.48452090      -0.15782153      -0.08173867
C        0.48952351      -1.19829641       0.24306972
O       -0.59158475      -0.92730791       1.19229610
C       -1.30230293       0.02111348       0.60252727
C       -0.48035288       0.77500442      -0.32565155
C        0.25211809      -0.43331905      -1.03256941
H        0.87391364       1.45910385       1.35582458
H        1.33225727       1.97553659      -0.29269092
H        2.53210396      -0.36913575      -0.25339835
H        0.74665099      -2.24822601       0.23918161
H       -2.14000152       0.39487505       1.18206352
H       -1.94530185      -0.91810872      -0.81223540
H       -0.99437434       1.52119681      -0.92314659
H       -1.16000469      -1.06558581      -1.39462559
15
Frame=6 idx=008448 GeodesicLength=0.40191584220481313 rxn_smarts="[C:1]1([H:8])([H:9])[C@@:2]2([H:10])[C@@:3]3([H:11])[O:4][C:5]([H:12])([H:13])[C@:6]1([H:14])[C@@:7]23[H:15]>>[C:1]1([H:8])([H:9])[C@@:2]2([H:10])[C@@:3]3([H:11])[O+:4]=[C:5]([H:12])[C@:6]1([H:14])[C-:7]23.[H:13][H:15]"
C        0.89945550       1.17076188       0.30453633
C        1.48219626      -0.15659675      -0.08345063
C        0.49012909      -1.20070878       0.24285858
O       -0.59029511      -0.92789891       1.19180172
C       -1.30642119       0.01710468       0.59817092
C       -0.47916857       0.77269642      -0.32846673
C        0.25301265      -0.43821865      -1.03353511
H        0.86618642       1.45881774       1.35931454
H        1.32913276       1.97662461      -0.28745725
H        2.53020956      -0.36666289      -0.25427956
H        0.75141257      -2.24955084       0.24397878
H       -2.12284130       0.41123307       1.19489451
H       -1.95526969      -0.91791112      -0.80859997
H       -0.99181677       1.52013072      -0.92582815
H       -1.15592219      -1.06982115      -1.41393798
15
Frame=7 idx=008448 GeodesicLength=0.46890736954740153 rxn_smarts="[C:1]1([H:8])([H:9])[C@@:2]2([H:10])[C@@:3]3([H:11])[O:4][C:5]([H:12])([H:13])[C@:6]1([H:14])[C@@:7]23[H:15]>>[C:1]1([H:8])([H:9])[C@@:2]2([H:10])[C@@:3]3([H:11])[O+:4]=[C:5]([H:12])[C@:6]1([H:14])[C-:7]23.[H:13][H:15]"
C        0.89609488       1.17055403       0.30795211
C        1.47983508      -0.15538763      -0.08513366
C        0.49069792      -1.20309737       0.24271180
O       -0.58899098      -0.92844008       1.19139672
C       -1.31049814       0.01325707       0.59408840
C       -0.47799841       0.77040141      -0.33118906
C        0.25384362      -0.44309957      -1.03441745
H        0.85856383       1.45859407       1.36274763
H        1.32599825       1.97766581      -0.28231643
H        2.52826344      -0.36423336      -0.25516098
H        0.75611733      -2.25080934       0.24885016
H       -2.10544085       0.42696602       1.20696043
H       -1.96575462      -0.91745834      -0.80440278
H       -0.98930555       1.51905792      -0.92840656
H       -1.15142581      -1.07397066      -1.43368033
15
Frame=8 idx=008448 GeodesicLength=0.5359187971647259 rxn_smarts="[C:1]1([H:8])([H:9])[C@@:2]2([H:10])[C@@:3]3([H:11])[O:4][C:5]([H:12])([H:13])[C@:6]1([H:14])[C@@:7]23[H:15]>>[C:1]1([H:8])([H:9])[C@@:2]2([H:10])[C@@:3]3([H:11])[O+:4]=[C:5]([H:12])[C@:6]1([H:14])[C-:7]23.[H:13][H:15]"
C        0.89276353       1.17036235       0.31133336
C        1.47744990      -0.15419643      -0.08679184
C        0.49123139      -1.20547662       0.24262508
O       -0.58767967      -0.92894548       1.19108204
C       -1.31452904       0.00957737       0.59028825
C       -0.47683709       0.76812789      -0.33382215
C        0.25462391      -0.44796728      -1.03521728
H        0.85105056       1.45845429       1.36611583
H        1.32287512       1.97868134      -0.27727926
H        2.52628452      -0.36185258      -0.25604699
H        0.76076820      -2.25202666       0.25379004
H       -2.08790151       0.44204954       1.21829384
H       -1.97680979      -0.91671640      -0.79959329
H       -0.98683473       1.51799266      -0.93088301
H       -1.14645530      -1.07806398      -1.45389463
15
Frame=9 idx=008448 GeodesicLength=0.6029350983109372 rxn_smarts="[C:1]1([H:8])([H:9])[C@@:2]2([H:10])[C@@:3]3([H:11])[O:4][C:5]([H:12])([H:13])[C@:6]1([H:14])[C@@:7]23[H:15]>>[C:1]1([H:8])([H:9])[C@@:2]2([H:10])[C@@:3]3([H:11])[O+:4]=[C:5]([H:12])[C@:6]1([H:14])[C-:7]23.[H:13][H:15]"
C        0.88946012       1.17018141       0.31467553
C        1.47504012      -0.15302551      -0.08842075
C        0.49173205      -1.20784645       0.24259591
O       -0.58635042      -0.92941884       1.19085770
C       -1.31849712       0.00606457       0.58677168
C       -0.47568371       0.76586861      -0.33637327
C        0.25535722      -0.45282091      -1.03593482
H        0.84364736       1.45839446       1.36941391
H        1.31975983       1.97966161      -0.27235192
H        2.52426995      -0.35952100      -0.25692864
H        0.76536968      -2.25319820       0.25879458
H       -2.07027540       0.45649862       1.22892830
H       -1.98847684      -0.91567032      -0.79411327
H       -0.98440759       1.51692250      -0.93326584
H       -1.14094524      -1.08209054      -1.47464911
15
Frame=10 idx=008448 GeodesicLength=0.6699554317025216 rxn_smarts="[C:1]1([H:8])([H:9])[C@@:2]2([H:10])[C@@:3]3([H:11])[O:4][C:5]([H:12])([H:13])[C@:6]1([H:14])[C@@:7]23[H:15]>>[C:1]1([H:8])([H:9])[C@@:2]2([H:10])[C@@:3]3([H:11])[O+:4]=[C:5]([H:12])[C@:6]1([H:14])[C-:7]23.[H:13][H:15]"
C        0.88618424       1.17001108       0.31797371
C        1.47260832      -0.15187740      -0.09001666
C        0.49220126      -1.21021168       0.24262069
O       -0.58499903      -0.92986752       1.19072372
C       -1.32239217       0.00271787       0.58354139
C       -0.47453870       0.76361824      -0.33884961
C        0.25605005      -0.45766248      -1.03657138
H        0.83635332       1.45841811       1.37263684
H        1.31665320       1.98060491      -0.26754154
H        2.52222341      -0.35723982      -0.25779793
H        0.76992558      -2.25432820       0.26385822
H       -2.05261265       0.47032988       1.23890703
H       -2.00080921      -0.91430063      -0.78790102
H       -0.98202809       1.51583897      -0.93556312
H       -1.13481952      -1.08605134      -1.49602035
15
Frame=11 idx=008448 GeodesicLength=0.7369788896908958 rxn_smarts="[C:1]1([H:8])([H:9])[C@@:2]2([H:10])[C@@:3]3([H:11])[O:4][C:5]([H:12])([H:13])[C@:6]1([H:14])[C@@:7]23[H:15]>>[C:1]1([H:8])([H:9])[C@@:2]2([H:10])[C@@:3]3([H:11])[O+:4]=[C:5]([H:12])[C@:6]1([H:14])[C-:7]23.[H:13][H:15]"
C        0.88293281       1.16985085       0.32122255
C        1.47015569      -0.15075498      -0.09157432
C        0.49263915      -1.21257807       0.24269548
O       -0.58362263      -0.93030020       1.19067928
C       -1.32620599      -0.00046495       0.58059963
C       -0.47340444       0.76136965      -0.34125910
C        0.25670894      -0.46249442      -1.03712830
H        0.82916461       1.45852886       1.37577896
H        1.31355300       1.98150906      -0.26285596
H        2.52014744      -0.35501001      -0.25864390
H        0.77443884      -2.25542174       0.26897506
H       -2.03494872       0.48356812       1.24828114
H       -2.01386738      -0.91258700      -0.78088868
H       -0.97970233       1.51473126      -0.93778437
H       -1.12798899      -1.08994643      -1.51809749
15
Frame=12 idx=008448 GeodesicLength=0.8040047757907489 rxn_smarts="[C:1]1([H:8])([H:9])[C@@:2]2([H:10])[C@@:3]3([H:11])[O:4][C:5]([H:12])([H:13])[C@:6]1([H:14])[C@@:7]23[H:15]>>[C:1]1([H:8])([H:9])[C@@:2]2([H:10])[C@@:3]3([H:11])[O+:4]=[C:5]([H:12])[C@:6]1([H:14])[C-:7]23.[H:13][H:15]"
C        0.87970068       1.16970009       0.32441619
C        1.46768231      -0.14966160      -0.09308730
C        0.49304459      -1.21495234       0.24281622
O       -0.58221932      -0.93072639       1.19072377
C       -1.32993193      -0.00348662       0.57794975
C       -0.47228522       0.75911416      -0.34361004
C        0.25734020      -0.46731974      -1.03760681
H        0.82207562       1.45873085       1.37883394
H        1.31045469       1.98237147      -0.25830419
H        2.51804377      -0.35283274      -0.25945325
H        0.77891113      -2.25648483       0.27413880
H       -2.01730754       0.49624294       1.25710542
H       -2.02771980      -0.91050792      -0.77299860
H       -0.97743876       1.51358636      -0.93993993
H       -1.12035043      -1.09377368      -1.54098398
15
Frame=13 idx=008448 GeodesicLength=0.8710324405221609 rxn_smarts="[C:1]1([H:8])([H:9])[C@@:2]2([H:10])[C@@:3]3([H:11])[O:4][C:5]([H:12])([H:13])[C@:6]1([H:14])[C@@:7]23[H:15]>>[C:1]1([H:8])([H:9])[C@@:2]2([H:10])[C@@:3]3([H:11])[O+:4]=[C:5]([H:12])[C@:6]1([H:14])[C-:7]23.[H:13][H:15]"
C        0.87648068       1.16955806       0.32754778
C        1.46518688      -0.14860116      -0.09454797
C        0.49341490      -1.21734212       0.24297887
O       -0.58078826      -0.93115649       1.19085679
C       -1.33356451      -0.00634998       0.57559667
C       -0.47118723       0.75684148      -0.34591100
C        0.25794959      -0.47214210      -1.03800773
H        0.81507933       1.45902902       1.38179420
H        1.30735132       1.98318898      -0.25389711
H        2.51591291      -0.35070949      -0.26021048
H        0.78334265      -2.25752441       0.27934301
H       -1.99970229       0.50838660       1.26543821
H       -2.04244453      -0.90803804      -0.76414208
H       -0.97524823       1.51238898      -0.94204097
H       -1.11178322      -1.09752933      -1.56479819
15
Frame=14 idx=008448 GeodesicLength=0.9380615497831313 rxn_smarts="[C:1]1([H:8])([H:9])[C@@:2]2([H:10])[C@@:3]3([H:11])[O:4][C:5]([H:12])([H:13])[C@:6]1([H:14])[C@@:7]23[H:15]>>[C:1]1([H:8])([H:9])[C@@:2]2([H:10])[C@@:3]3([H:11])[O+:4]=[C:5]([H:12])[C@:6]1([H:14])[C-:7]23.[H:13][H:15]"
C        0.87326367       1.16942383       0.33060929
C        1.46266670      -0.14757838      -0.09594760
C        0.49374581      -1.21975614       0.24317954
O       -0.57932926      -0.93160163       1.19107884
C       -1.33709916      -0.00905767       0.57354783
C       -0.47011882       0.75453961      -0.34817070
C        0.25854204      -0.47696594      -1.03833142
H        0.80816773       1.45942918       1.38465069
H        1.30423347       1.98395759      -0.24964803
H        2.51375413      -0.34864247      -0.26089796
H        0.78773182      -2.25854856       0.28458117
H       -1.98213707       0.52003345       1.27333949
H       -2.05812998      -0.90514919      -0.75421539
H       -0.97314449       1.51112125      -0.94409931
H       -1.10214659      -1.10120495      -1.58967645
15
Frame=15 idx=008448 GeodesicLength=1.0050922573403818 rxn_smarts="[C:1]1([H:8])([H:9])[C@@:2]2([H:10])[C@@:3]3([H:11])[O:4][C:5]([H:12])([H:13])[C@:6]1([H:14])[C@@:7]23[H:15]>>[C:1]1([H:8])([H:9])[C@@:2]2([H:10])[C@@:3]3([H:11])[O+:4]=[C:5]([H:12])[C@:6]1([H:14])[C-:7]23.[H:13][H:15]"
C        0.87003850       1.16929629       0.33359099
C        1.46011743      -0.14659900      -0.09727652
C        0.49403118      -1.22220430       0.24341464
O       -0.57784283      -0.93207367       1.19139161
C       -1.34053202      -0.01161191       0.57181383
C       -0.46909071       0.75219464      -0.35039789
C        0.25912126      -0.48179680      -1.03857752
H        0.80133215       1.45993828       1.38739234
H        1.30108916       1.98467234      -0.24557352
H        2.51156517      -0.34663488      -0.26149625
H        0.79207491      -2.25956666       0.28984675
H       -1.96460807       0.53121843       1.28087111
H       -2.07487652      -0.90180797      -0.74309749
H       -0.97114454       1.50976241      -0.94612739
H       -1.09127508      -1.10478719      -1.61577470
15
Frame=16 idx=008448 GeodesicLength=1.0721252302265734 rxn_smarts="[C:1]1([H:8])([H:9])[C@@:2]2([H:10])[C@@:3]3([H:11])[O:4][C:5]([H:12])([H:13])[C@:6]1([H:14])[C@@:7]23[H:15]>>[C:1]1([H:8])([H:9])[C@@:2]2([H:10])[C@@:3]3([H:11])[O+:4]=[C:5]([H:12])[C@:6]1([H:14])[C-:7]23.[H:13][H:15]"
C        0.86679197       1.16917401       0.33648101
C        1.45753281      -0.14567010      -0.09852421
C        0.49426269      -1.22469795       0.24368107
O       -0.57633004      -0.93258512       1.19179857
C       -1.34385978      -0.01401433       0.57040912
C       -0.46811633       0.74979046      -0.35260133
C        0.25968923      -0.48664167      -1.03874484
H        0.79456361       1.46056463       1.39000556
H        1.29790364       1.98532686      -0.24169431
H        2.50934189      -0.34469139      -0.26198440
H        0.79636566      -2.26058963       0.29513343
H       -1.94710495       0.54197629       1.28809638
H       -2.09279751      -0.89797493      -0.73064656
H       -0.96926929       1.50828828      -0.94813825
H       -1.07897360      -1.10825542      -1.64327123
