16
Frame=0 idx=001184 GeodesicLength=0.0 rxn_smarts="[C:1]([C:2]1([O:3][H:10])[C:4]([H:11])([H:12])[C:5]([H:13])([H:14])[C:6]1([H:15])[H:16])([H:7])([H:8])[H:9]>>[C:1]([C:2]1=[C:6]([H:16])[C:5]([H:13])([H:14])[C:4]1([H:11])[H:12])([H:7])([H:8])[H:9].[O:3]([H:10])[H:15]"
C        1.73861557       0.50965660      -0.53411477
C        0.37502172       0.14613573      -0.08469437
O        0.83019181      -1.47570077       0.98076412
C       -0.82016690      -0.24817743      -0.92185029
C       -1.73298632       0.32305522       0.19862655
C       -0.44779768       0.60028727       0.98580707
H        1.67649557       1.46359906      -1.06823784
H        2.15220874      -0.24024466      -1.20671353
H        2.40427190       0.63288735       0.31791835
H        0.57554751      -2.36749459       0.72175938
H       -0.85479357       0.32577449      -1.85106079
H       -0.91755768      -1.30548057      -1.16157800
H       -2.43595885      -0.38112914       0.64693915
H       -2.28429184       1.20788689      -0.12243072
H       -0.02518618      -0.59223405       1.41510168
H       -0.23361380       1.40117864       1.68376394
16
Frame=1 idx=001184 GeodesicLength=0.04771941373340032 rxn_smarts="[C:1]([C:2]1([O:3][H:10])[C:4]([H:11])([H:12])[C:5]([H:13])([H:14])[C:6]1([H:15])[H:16])([H:7])([H:8])[H:9]>>[C:1]([C:2]1=[C:6]([H:16])[C:5]([H:13])([H:14])[C:4]1([H:11])[H:12])([H:7])([H:8])[H:9].[O:3]([H:10])[H:15]"
C        1.73444036       0.51604203      -0.53400157
C        0.37627709       0.13443669      -0.08152341
O        0.83151232      -1.48766338       0.98605481
C       -0.82025470      -0.25080818      -0.92211562
C       -1.73009600       0.33129195       0.19472554
C       -0.44632998       0.59443476       0.98787420
H        1.66076888       1.46634047      -1.07281035
H        2.15592312      -0.23324040      -1.20287635
H        2.40012390       0.65169799       0.31634650
H        0.58695236      -2.37654613       0.70909308
H       -0.85187904       0.31409540      -1.85684528
H       -0.92617806      -1.30971776      -1.15154268
H       -2.44253191      -0.36472295       0.64087325
H       -2.26934773       1.22308095      -0.12761784
H       -0.03062766      -0.60710659       1.43274350
H       -0.22875296       1.39838515       1.68162221
16
Frame=2 idx=001184 GeodesicLength=0.0954425517113777 rxn_smarts="[C:1]([C:2]1([O:3][H:10])[C:4]([H:11])([H:12])[C:5]([H:13])([H:14])[C:6]1([H:15])[H:16])([H:7])([H:8])[H:9]>>[C:1]([C:2]1=[C:6]([H:16])[C:5]([H:13])([H:14])[C:4]1([H:11])[H:12])([H:7])([H:8])[H:9].[O:3]([H:10])[H:15]"
C        1.73010526       0.52243417      -0.53392415
C        0.37757161       0.12280183      -0.07842513
O        0.83264349      -1.49969847       0.99133939
C       -0.82028170      -0.25342034      -0.92242184
C       -1.72700184       0.33954816       0.19077710
C       -0.44483504       0.58849673       0.98992471
H        1.64496519       1.46888239      -1.07747856
H        2.15960775      -0.22617189      -1.19894101
H        2.39560985       0.67068299       0.31468393
H        0.59843484      -2.38530133       0.69656384
H       -0.84907572       0.30230770      -1.86261421
H       -0.93480613      -1.31377034      -1.14151500
H       -2.44883560      -0.34817224       0.63469647
H       -2.25403877       1.23818491      -0.13280603
H       -0.03621067      -0.62210235       1.45048942
H       -0.22385253       1.39529806       1.67965106
16
Frame=3 idx=001184 GeodesicLength=0.14316444655379765 rxn_smarts="[C:1]([C:2]1([O:3][H:10])[C:4]([H:11])([H:12])[C:5]([H:13])([H:14])[C:6]1([H:15])[H:16])([H:7])([H:8])[H:9]>>[C:1]([C:2]1=[C:6]([H:16])[C:5]([H:13])([H:14])[C:4]1([H:11])[H:12])([H:7])([H:8])[H:9].[O:3]([H:10])[H:15]"
C        1.72561554       0.52883109      -0.53388527
C        0.37890723       0.11123847      -0.07540450
O        0.83357793      -1.51180545       0.99661095
C       -0.82024807      -0.25601203      -0.92277079
C       -1.72370296       0.34781569       0.18678452
C       -0.44331393       0.58247675       0.99195500
H        1.62909766       1.47122730      -1.08224107
H        2.16326363      -0.21903706      -1.19491078
H        2.39072960       0.68983052       0.31292763
H        0.60997724      -2.39375782       0.68418626
H       -0.84638890       0.29042117      -1.86836453
H       -0.94343320      -1.31763240      -1.13150356
H       -2.45485962      -0.33149096       0.62841412
H       -2.23837485       1.25318430      -0.13798721
H       -0.04193028      -0.63721574       1.46834184
H       -0.21891701       1.39192616       1.67784740
16
Frame=4 idx=001184 GeodesicLength=0.1908886070805349 rxn_smarts="[C:1]([C:2]1([O:3][H:10])[C:4]([H:11])([H:12])[C:5]([H:13])([H:14])[C:6]1([H:15])[H:16])([H:7])([H:8])[H:9]>>[C:1]([C:2]1=[C:6]([H:16])[C:5]([H:13])([H:14])[C:4]1([H:11])[H:12])([H:7])([H:8])[H:9].[O:3]([H:10])[H:15]"
C        1.72097435       0.53523080      -0.53388606
C        0.38028449       0.09975307      -0.07246438
O        0.83430913      -1.52398316       1.00186583
C       -0.82015470      -0.25858232      -0.92316263
C       -1.72019945       0.35609135       0.18275005
C       -0.44176900       0.57637843       0.99396277
H        1.61317714       1.47337339      -1.08709899
H        2.16689135      -0.21183327      -1.19078560
H        2.38547941       0.70913249       0.31107515
H        0.62157806      -2.40191496       0.67195737
H       -0.84382329       0.27843917      -1.87409326
H       -0.95205375      -1.32130347      -1.12151102
H       -2.46059852      -0.31468576       0.62203145
H       -2.22235663       1.26807162      -0.14315734
H       -0.04778653      -0.65244458       1.48630657
H       -0.21395206       1.38827721       1.67621010
16
Frame=5 idx=001184 GeodesicLength=0.2386131863766901 rxn_smarts="[C:1]([C:2]1([O:3][H:10])[C:4]([H:11])([H:12])[C:5]([H:13])([H:14])[C:6]1([H:15])[H:16])([H:7])([H:8])[H:9]>>[C:1]([C:2]1=[C:6]([H:16])[C:5]([H:13])([H:14])[C:4]1([H:11])[H:12])([H:7])([H:8])[H:9].[O:3]([H:10])[H:15]"
C        1.71618653       0.54163104      -0.53392862
C        0.38170452       0.08835185      -0.06960915
O        0.83482903      -1.53623107       1.00709825
C       -0.82000270      -0.26112896      -0.92359889
C       -1.71649194       0.36436822       0.17867691
C       -0.44020196       0.57020593       0.99594438
H        1.59721610       1.47532269      -1.09205169
H        2.17049196      -0.20455920      -1.18656745
H        2.37985838       0.72857844       0.30912358
H        0.63322407      -2.40977137       0.65988753
H       -0.84138417       0.26637073      -1.87979727
H       -0.96065906      -1.32477906      -1.11154555
H       -2.46604315      -0.29777217       0.61555452
H       -2.20599169       1.28283694      -0.14831012
H       -0.05377397      -0.66778408       1.50438796
H       -0.20896196       1.38436006       1.67473563
16
Frame=6 idx=001184 GeodesicLength=0.2863381367837727 rxn_smarts="[C:1]([C:2]1([O:3][H:10])[C:4]([H:11])([H:12])[C:5]([H:13])([H:14])[C:6]1([H:15])[H:16])([H:7])([H:8])[H:9]>>[C:1]([C:2]1=[C:6]([H:16])[C:5]([H:13])([H:14])[C:4]1([H:11])[H:12])([H:7])([H:8])[H:9].[O:3]([H:10])[H:15]"
C        1.71125792       0.54803082      -0.53401498
C        0.38316944       0.07704082      -0.06684283
O        0.83513180      -1.54854812       1.01230252
C       -0.81979194      -0.26365003      -0.92408121
C       -1.71258041       0.37263923       0.17456831
C       -0.43861316       0.56396344       0.99789626
H        1.58122741       1.47707698      -1.09709928
H        2.17406742      -0.19721204      -1.18225823
H        2.37386642       0.74815917       0.30706953
H        0.64489702      -2.41732706       0.64798543
H       -0.83907501       0.25422540      -1.88547323
H       -0.96924184      -1.32805526      -1.10161455
H       -2.47118500      -0.28076231       0.60898915
H       -2.18929076       1.29746470      -0.15343785
H       -0.05988892      -0.68323006       1.52259148
H       -0.20395039       1.38018432       1.67341948
16
Frame=7 idx=001184 GeodesicLength=0.3340662053214319 rxn_smarts="[C:1]([C:2]1([O:3][H:10])[C:4]([H:11])([H:12])[C:5]([H:13])([H:14])[C:6]1([H:15])[H:16])([H:7])([H:8])[H:9]>>[C:1]([C:2]1=[C:6]([H:16])[C:5]([H:13])([H:14])[C:4]1([H:11])[H:12])([H:7])([H:8])[H:9].[O:3]([H:10])[H:15]"
C        1.70619325       0.55442841      -0.53414675
C        0.38468038       0.06582500      -0.06416923
O        0.83521046      -1.56093350       1.01747406
C       -0.81952363      -0.26614343      -0.92461055
C       -1.70846575       0.38089922       0.17042753
C       -0.43700382       0.55765493       0.99981550
H        1.56522426       1.47863543      -1.10224279
H        2.17761939      -0.18978798      -1.17785879
H        2.36750226       0.76786559       0.30491063
H        0.65659101      -2.42458299       0.63625465
H       -0.83690000       0.24201163      -1.89111807
H       -0.97779560      -1.33113000      -1.09172378
H       -2.47601945      -0.26366738       0.60234179
H       -2.17226045       1.31194476      -0.15853451
H       -0.06613138      -0.69877952       1.54092373
H       -0.19892091       1.37575983       1.67225660
16
Frame=8 idx=001184 GeodesicLength=0.3817963419528061 rxn_smarts="[C:1]([C:2]1([O:3][H:10])[C:4]([H:11])([H:12])[C:5]([H:13])([H:14])[C:6]1([H:15])[H:16])([H:7])([H:8])[H:9]>>[C:1]([C:2]1=[C:6]([H:16])[C:5]([H:13])([H:14])[C:4]1([H:11])[H:12])([H:7])([H:8])[H:9].[O:3]([H:10])[H:15]"
C        1.70099883       0.56082326      -0.53432630
C        0.38623957       0.05470947      -0.06159282
O        0.83505865      -1.57338640       1.02260608
C       -0.81919791      -0.26860665      -0.92518955
C       -1.70414893       0.38913850       0.16625856
C       -0.43537408       0.55128495       1.00169741
H        1.54921904       1.48000158      -1.10748163
H        2.18114966      -0.18228564      -1.17337239
H        2.36076803       0.78768722       0.30264391
H        0.66828459      -2.43153993       0.62471223
H       -0.83486274       0.22974383      -1.89672902
H       -0.98631120      -1.33399842      -1.08188489
H       -2.48053854      -0.24650504       0.59561888
H       -2.15491429       1.32626392      -0.16359123
H       -0.07249411      -0.71442742       1.55939037
H       -0.19387660       1.37109677       1.67124039
16
Frame=9 idx=001184 GeodesicLength=0.4295327662269647 rxn_smarts="[C:1]([C:2]1([O:3][H:10])[C:4]([H:11])([H:12])[C:5]([H:13])([H:14])[C:6]1([H:15])[H:16])([H:7])([H:8])[H:9]>>[C:1]([C:2]1=[C:6]([H:16])[C:5]([H:13])([H:14])[C:4]1([H:11])[H:12])([H:7])([H:8])[H:9].[O:3]([H:10])[H:15]"
C        1.69567932       0.56721258      -0.53455514
C        0.38784729       0.04369895      -0.05911744
O        0.83466514      -1.58590717       1.02769383
C       -0.81881718      -0.27103655      -0.92582000
C       -1.69963253       0.39735449       0.16206356
C       -0.43372552       0.54485781       1.00353881
H        1.53322471       1.48117307      -1.11281759
H        2.18465914      -0.17470294      -1.16879877
H        2.35366219       0.80761191       0.30026653
H        0.67998612      -2.43819740       0.61336493
H       -0.83296708       0.21743329      -1.90230361
H       -0.99478249      -1.33665801      -1.07210502
H       -2.48473932      -0.22928404       0.58882645
H       -2.13726226       1.34041288      -0.16860124
H       -0.07897707      -0.73017244       1.57799844
H       -0.18882046       1.36620358       1.67036626
16
Frame=10 idx=001184 GeodesicLength=0.4772735599799075 rxn_smarts="[C:1]([C:2]1([O:3][H:10])[C:4]([H:11])([H:12])[C:5]([H:13])([H:14])[C:6]1([H:15])[H:16])([H:7])([H:8])[H:9]>>[C:1]([C:2]1=[C:6]([H:16])[C:5]([H:13])([H:14])[C:4]1([H:11])[H:12])([H:7])([H:8])[H:9].[O:3]([H:10])[H:15]"
C        1.69024196       0.57359534      -0.53483544
C        0.38950605       0.03279813      -0.05674786
O        0.83402424      -1.59849341       1.03273265
C       -0.81838114      -0.27342901      -0.92650464
C       -1.69491810       0.40553725       0.15784739
C       -0.43205716       0.53837912       1.00533485
H        1.51725590       1.48215401      -1.11825041
H        2.18815105      -0.16703722      -1.16414025
H        2.34618750       0.82763075       0.29777615
H        0.69166828      -2.44455994       0.60222368
H       -0.83121623       0.20509425      -1.90783883
H       -1.00320077      -1.33910518      -1.06239524
H       -2.48861289      -0.21202686       0.58197342
H       -2.11931988       1.35437707      -0.17355595
H       -0.08557464      -0.74600746       1.59675558
H       -0.18375418       1.36109316       1.66962490
16
Frame=11 idx=001184 GeodesicLength=0.5250222904289683 rxn_smarts="[C:1]([C:2]1([O:3][H:10])[C:4]([H:11])([H:12])[C:5]([H:13])([H:14])[C:6]1([H:15])[H:16])([H:7])([H:8])[H:9]>>[C:1]([C:2]1=[C:6]([H:16])[C:5]([H:13])([H:14])[C:4]1([H:11])[H:12])([H:7])([H:8])[H:9].[O:3]([H:10])[H:15]"
C        1.68469254       0.57997172      -0.53516934
C        0.39121790       0.02201061      -0.05448835
O        0.83313102      -1.61114390       1.03771651
C       -0.81788994      -0.27578112      -0.92724603
C       -1.69000837       0.41367754       0.15361401
C       -0.43036853       0.53185356       1.00708107
H        1.50132404       1.48294720      -1.12378056
H        2.19162789      -0.15928418      -1.15939873
H        2.33834634       0.84773450       0.29517081
H        0.70331297      -2.45063293       0.59130097
H       -0.82961258       0.19274044      -1.91333283
H       -1.01155833      -1.34133857      -1.05276582
H       -2.49215413      -0.19474698       0.57506660
H       -2.10109993       1.36814470      -0.17844705
H       -0.09228127      -0.76192887       1.61567059
H       -0.17867962       1.35577628       1.66900815
16
Frame=12 idx=001184 GeodesicLength=0.5727852963381579 rxn_smarts="[C:1]([C:2]1([O:3][H:10])[C:4]([H:11])([H:12])[C:5]([H:13])([H:14])[C:6]1([H:15])[H:16])([H:7])([H:8])[H:9]>>[C:1]([C:2]1=[C:6]([H:16])[C:5]([H:13])([H:14])[C:4]1([H:11])[H:12])([H:7])([H:8])[H:9].[O:3]([H:10])[H:15]"
C        1.67903697       0.58633903      -0.53555803
C        0.39298399       0.01134008      -0.05234288
O        0.83197616      -1.62385807       1.04264125
C       -0.81734478      -0.27808894      -0.92804651
C       -1.68490592       0.42177197       0.14936651
C       -0.42865985       0.52528594       1.00877396
H        1.48544202       1.48355265      -1.12940899
H        2.19509182      -0.15144256      -1.15457435
H        2.33013728       0.86791318       0.29244694
H        0.71492195      -2.45641903       0.58060227
H       -0.82815916       0.18038484      -1.91878321
H       -1.01984894      -1.34335671      -1.04322480
H       -2.49536127      -0.17745741       0.56811390
H       -2.08261428       1.38170634      -0.18326786
H       -0.09909789      -0.77793488       1.63475343
H       -0.17359809       1.35026357       1.66850837
16
Frame=13 idx=001184 GeodesicLength=0.6205619015987 rxn_smarts="[C:1]([C:2]1([O:3][H:10])[C:4]([H:11])([H:12])[C:5]([H:13])([H:14])[C:6]1([H:15])[H:16])([H:7])([H:8])[H:9]>>[C:1]([C:2]1=[C:6]([H:16])[C:5]([H:13])([H:14])[C:4]1([H:11])[H:12])([H:7])([H:8])[H:9].[O:3]([H:10])[H:15]"
C        1.67328319       0.59269773      -0.53600400
C        0.39480698       0.00078996      -0.05031638
O        0.83055291      -1.63663488       1.04749964
C       -0.81674549      -0.28034722      -0.92891002
C       -1.67961425       0.42981019       0.14510949
C       -0.42692906       0.51868226       1.01040788
H        1.46962405       1.48397582      -1.13513549
H        2.19854553      -0.14350974      -1.14967064
H        2.32156610       0.88815595       0.28960094
H        0.72646629      -2.46192349       0.57015134
H       -0.82685767       0.16804791      -1.92418853
H       -1.02806231      -1.34515460      -1.03378773
H       -2.49822657      -0.16018315       0.56112449
H       -2.06388424       1.39504595      -0.18800819
H       -0.10601605      -0.79401978       1.65401195
H       -0.16850942       1.34456710       1.66811525
16
Frame=14 idx=001184 GeodesicLength=0.6683563239267839 rxn_smarts="[C:1]([C:2]1([O:3][H:10])[C:4]([H:11])([H:12])[C:5]([H:13])([H:14])[C:6]1([H:15])[H:16])([H:7])([H:8])[H:9]>>[C:1]([C:2]1=[C:6]([H:16])[C:5]([H:13])([H:14])[C:4]1([H:11])[H:12])([H:7])([H:8])[H:9].[O:3]([H:10])[H:15]"
C        1.66743706       0.59904611      -0.53650843
C        0.39668838      -0.00963721      -0.04841286
O        0.82885380      -1.64947200       1.05228973
C       -0.81609300      -0.28255259      -0.92983867
C       -1.67413672       0.43778691       0.14084655
C       -0.42517578       0.51204685       1.01197932
H        1.45388252       1.48421578      -1.14096253
H        2.20199185      -0.13548245      -1.14468706
H        2.31263322       0.90845376       0.28663137
H        0.73794729      -2.46715258       0.55994935
H       -0.82571019       0.15574216      -1.92954755
H       -1.03619350      -1.34673308      -1.02446143
H       -2.50075063      -0.14293370       0.55410575
H       -2.04492382       1.40815609      -0.19266096
H       -0.11303624      -0.81018134       1.67345702
H       -0.16341425       1.33869729       1.66782039
16
Frame=15 idx=001184 GeodesicLength=0.7161687896522229 rxn_smarts="[C:1]([C:2]1([O:3][H:10])[C:4]([H:11])([H:12])[C:5]([H:13])([H:14])[C:6]1([H:15])[H:16])([H:7])([H:8])[H:9]>>[C:1]([C:2]1=[C:6]([H:16])[C:5]([H:13])([H:14])[C:4]1([H:11])[H:12])([H:7])([H:8])[H:9].[O:3]([H:10])[H:15]"
C        1.66150593       0.60538431      -0.53707417
C        0.39863071      -0.01993888      -0.04663761
O        0.82687219      -1.66236838       1.05700487
C       -0.81538738      -0.28470051      -0.93083667
C       -1.66847752       0.44569235       0.13658210
C       -0.42339748       0.50538461       1.01348287
H        1.43823102       1.48427715      -1.14689037
H        2.20543364      -0.12735600      -1.13962715
H        2.30334391       0.92879655       0.28353576
H        0.74934259      -2.47211263       0.55001956
H       -0.82471810       0.14348681      -1.93485967
H       -1.04423358      -1.34808893      -1.01526015
H       -2.50292960      -0.12573058       0.54706630
H       -2.02575378       1.42102536      -0.19721643
H       -0.12015118      -0.82641594       1.69309710
H       -0.15831137       1.33266470       1.66761365
16
Frame=16 idx=001184 GeodesicLength=0.7640045102360652 rxn_smarts="[C:1]([C:2]1([O:3][H:10])[C:4]([H:11])([H:12])[C:5]([H:13])([H:14])[C:6]1([H:15])[H:16])([H:7])([H:8])[H:9]>>[C:1]([C:2]1=[C:6]([H:16])[C:5]([H:13])([H:14])[C:4]1([H:11])[H:12])([H:7])([H:8])[H:9].[O:3]([H:10])[H:15]"
C        1.65549645       0.61171214      -0.53770232
C        0.40063589      -0.03011283      -0.04499442
O        0.82460155      -1.67532216       1.06164096
C       -0.81462875      -0.28678624      -0.93190680
C       -1.66264070       0.45352109       0.13231987
C       -0.42159247       0.49870063       1.01491454
H        1.42268279       1.48416164      -1.15292058
H        2.20887295      -0.11912731      -1.13449236
H        2.29370023       0.94917564       0.28030991
H        0.76064295      -2.47681089       0.54037296
H       -0.82388205       0.13129788      -1.94012454
H       -1.05217531      -1.34922169      -1.00619424
H       -2.50476206      -0.10858830       0.54001434
H       -2.00639244       1.43364333      -0.20166712
H       -0.12735908      -0.84272247       1.71294334
H       -0.15319994       1.32647955       1.66748645
