14
Frame=0 idx=005976 GeodesicLength=0.0 rxn_smarts="[O:1]([C@@:2]1([H:8])[C:3]([H:9])([H:10])[C:4]([H:11])([H:12])[C:5]([H:13])=[C:6]1[H:14])[H:7]>>[O:1]=[C:2](/[C:6](=[C:5](\[C:4]([C:3]([H:7])([H:9])[H:10])([H:11])[H:12])[H:13])[H:14])[H:8]"
O        1.63379327      -1.28154718       0.97130204
C        1.18708655      -0.65815672      -0.11255946
C       -0.72669930      -0.88248912      -0.14608572
C       -1.22052887       0.52553888       0.12975819
C       -0.02835791       1.43431531       0.01265195
C        1.14207868       0.83835087      -0.12664258
H        0.31845395      -1.29510266       0.63181518
H        1.44033074      -1.11078522      -1.08506540
H       -0.82493739      -1.20714969      -1.17795033
H       -1.20660212      -1.65200801       0.47801205
H       -2.00195010       0.81239633      -0.57854506
H       -1.66250289       0.61326826       1.12626287
H       -0.14386484       2.51055575       0.06607496
H        2.09370025       1.35281325      -0.18902868
14
Frame=1 idx=005976 GeodesicLength=0.091017046537373 rxn_smarts="[O:1]([C@@:2]1([H:8])[C:3]([H:9])([H:10])[C:4]([H:11])([H:12])[C:5]([H:13])=[C:6]1[H:14])[H:7]>>[O:1]=[C:2](/[C:6](=[C:5](\[C:4]([C:3]([H:7])([H:9])[H:10])([H:11])[H:12])[H:13])[H:14])[H:8]"
O        1.65425776      -1.27402112       0.96037827
C        1.19537798      -0.65439569      -0.11948278
C       -0.72927534      -0.88660862      -0.14272483
C       -1.22045143       0.52464858       0.12623746
C       -0.02804224       1.43282626       0.00647348
C        1.14534915       0.84114699      -0.13311502
H        0.31649897      -1.30161599       0.65549790
H        1.42953962      -1.11772187      -1.09081423
H       -0.82803185      -1.20921040      -1.17577320
H       -1.22390352      -1.65233352       0.47329328
H       -2.00028488       0.81146766      -0.58392658
H       -1.66297415       0.61750155       1.12213358
H       -0.14398832       2.50825591       0.07429775
H        2.09592824       1.36006026      -0.17247507
14
Frame=2 idx=005976 GeodesicLength=0.1819761927534913 rxn_smarts="[O:1]([C@@:2]1([H:8])[C:3]([H:9])([H:10])[C:4]([H:11])([H:12])[C:5]([H:13])=[C:6]1[H:14])[H:7]>>[O:1]=[C:2](/[C:6](=[C:5](\[C:4]([C:3]([H:7])([H:9])[H:10])([H:11])[H:12])[H:13])[H:14])[H:8]"
O        1.67423690      -1.26679037       0.94885726
C        1.20394910      -0.65045590      -0.12692006
C       -0.73169287      -0.89078316      -0.13918225
C       -1.22025082       0.52369025       0.12275449
C       -0.02765738       1.43133540       0.00034962
C        1.14876461       0.84409394      -0.13946403
H        0.31449628      -1.30792749       0.68003258
H        1.41871729      -1.12454493      -1.09661718
H       -0.83105984      -1.21129580      -1.17342428
H       -1.24132232      -1.65249495       0.46835855
H       -1.99848136       0.81039169      -0.58931291
H       -1.66337911       0.62170338       1.11798781
H       -0.14415179       2.50578793       0.08219945
H        2.09783132       1.36729001      -0.15561906
14
Frame=3 idx=005976 GeodesicLength=0.27289034548792357 rxn_smarts="[O:1]([C@@:2]1([H:8])[C:3]([H:9])([H:10])[C:4]([H:11])([H:12])[C:5]([H:13])=[C:6]1[H:14])[H:7]>>[O:1]=[C:2](/[C:6](=[C:5](\[C:4]([C:3]([H:7])([H:9])[H:10])([H:11])[H:12])[H:13])[H:14])[H:8]"
O        1.69367089      -1.25987981       0.93673418
C        1.21281764      -0.64632518      -0.13492015
C       -0.73393913      -0.89502087      -0.13544242
C       -1.21991970       0.52265583       0.11931488
C       -0.02720127       1.42984065      -0.00571615
C        1.15233053       0.84719950      -0.14566705
H        0.31242887      -1.31403290       0.70545783
H        1.40786073      -1.13121887      -1.10251484
H       -0.83401398      -1.21341275      -1.17088893
H       -1.25883986      -1.65248298       0.46320757
H       -1.99653281       0.80915361      -0.59470045
H       -1.66371462       0.62586947       1.11382822
H       -0.14436467       2.50316601       0.08973943
H        2.09941736       1.37448831      -0.13843211
14
Frame=4 idx=005976 GeodesicLength=0.3637937437646336 rxn_smarts="[O:1]([C@@:2]1([H:8])[C:3]([H:9])([H:10])[C:4]([H:11])([H:12])[C:5]([H:13])=[C:6]1[H:14])[H:7]>>[O:1]=[C:2](/[C:6](=[C:5](\[C:4]([C:3]([H:7])([H:9])[H:10])([H:11])[H:12])[H:13])[H:14])[H:8]"
O        1.71249840      -1.25330840       0.92401083
C        1.22200360      -0.64198905      -0.14353364
C       -0.73599967      -0.89932995      -0.13148920
C       -1.21945036       0.52153648       0.11592525
C       -0.02667194       1.42834040      -0.01171612
C        1.15605170       0.85047170      -0.15170392
H        0.31026660      -1.31993042       0.73182025
H        1.39696956      -1.13771578      -1.10854235
H       -0.83688071      -1.21556293      -1.16815416
H       -1.27643631      -1.65228865       0.45782906
H       -1.99443093       0.80773852      -0.60008517
H       -1.66397895       0.62999288       1.10965792
H       -0.14463657       2.50040287       0.09689050
H        2.10069557       1.38164234      -0.12090924
14
Frame=5 idx=005976 GeodesicLength=0.4547139814565886 rxn_smarts="[O:1]([C@@:2]1([H:8])[C:3]([H:9])([H:10])[C:4]([H:11])([H:12])[C:5]([H:13])=[C:6]1[H:14])[H:7]>>[O:1]=[C:2](/[C:6](=[C:5](\[C:4]([C:3]([H:7])([H:9])[H:10])([H:11])[H:12])[H:13])[H:14])[H:8]"
O        1.73066752      -1.24707931       0.91069354
C        1.23152479      -0.63743458      -0.15281073
C       -0.73786119      -0.90371814      -0.12731178
C       -1.21883541       0.52032372       0.11259027
C       -0.02606757       1.42683202      -0.01765162
C        1.15992979       0.85391679      -0.15757312
H        0.30798293      -1.32561759       0.75917016
H        1.38604025      -1.14401148      -1.11472696
H       -0.83964388      -1.21774938      -1.16521120
H       -1.29410048      -1.65190619       0.45220801
H       -1.99217164       0.80613208      -0.60546016
H       -1.66416463       0.63406674       1.10548017
H       -0.14497207       2.49751293       0.10364286
H        2.10167158       1.38873235      -0.10303944
14
Frame=6 idx=005976 GeodesicLength=0.5456554075263317 rxn_smarts="[O:1]([C@@:2]1([H:8])[C:3]([H:9])([H:10])[C:4]([H:11])([H:12])[C:5]([H:13])=[C:6]1[H:14])[H:7]>>[O:1]=[C:2](/[C:6](=[C:5](\[C:4]([C:3]([H:7])([H:9])[H:10])([H:11])[H:12])[H:13])[H:14])[H:8]"
O        1.74809286      -1.24120928       0.89678864
C        1.24140147      -0.63264298      -0.16281310
C       -0.73950869      -0.90819416      -0.12289593
C       -1.21806699       0.51900792       0.10931597
C       -0.02538773       1.42531452      -0.02352464
C        1.16396656       0.85754230      -0.16327035
H        0.30554504      -1.33108517       0.78756026
H        1.37507485      -1.15008574      -1.12111123
H       -0.84229086      -1.21997615      -1.16204860
H       -1.31179848      -1.65133025       0.44633933
H       -1.98975071       0.80431685      -0.61081762
H       -1.66426397       0.63808320       1.10129989
H       -0.14538031       2.49450899       0.10997770
H        2.10236696       1.39574996      -0.08480031
14
Frame=7 idx=005976 GeodesicLength=0.6366489975394047 rxn_smarts="[O:1]([C@@:2]1([H:8])[C:3]([H:9])([H:10])[C:4]([H:11])([H:12])[C:5]([H:13])=[C:6]1[H:14])[H:7]>>[O:1]=[C:2](/[C:6](=[C:5](\[C:4]([C:3]([H:7])([H:9])[H:10])([H:11])[H:12])[H:13])[H:14])[H:8]"
O        1.76467524      -1.23570998       0.88228861
C        1.25166390      -0.62759299      -0.17361919
C       -0.74091757      -0.91276884      -0.11822056
C       -1.21713198       0.51757690       0.10610612
C       -0.02462904       1.42378501      -0.02934501
C        1.16816648       0.86135762      -0.16880221
H        0.30291501      -1.33631606       0.81706681
H        1.36406090      -1.15590352      -1.12774276
H       -0.84479818      -1.22225006      -1.15864649
H       -1.32949695      -1.65055247       0.44021543
H       -1.98715993       0.80226644      -0.61615281
H       -1.66426433       0.64203684       1.09711834
H       -0.14586636       2.49140457       0.11588318
H        2.10278283       1.40266652      -0.06614947
14
Frame=8 idx=005976 GeodesicLength=0.7276480675265234 rxn_smarts="[O:1]([C@@:2]1([H:8])[C:3]([H:9])([H:10])[C:4]([H:11])([H:12])[C:5]([H:13])=[C:6]1[H:14])[H:7]>>[O:1]=[C:2](/[C:6](=[C:5](\[C:4]([C:3]([H:7])([H:9])[H:10])([H:11])[H:12])[H:13])[H:14])[H:8]"
O        1.78034714      -1.23057457       0.86723118
C        1.26232307      -0.62226899      -0.18527768
C       -0.74208099      -0.91744524      -0.11328601
C       -1.21602568       0.51602301       0.10296770
C       -0.02379237       1.42224003      -0.03511655
C        1.17252401       0.86536297      -0.17418970
H        0.30006278      -1.34129526       0.84772948
H        1.35300379      -1.16147083      -1.13463876
H       -0.84714818      -1.22456193      -1.15501065
H       -1.34716264      -1.64957567       0.43381623
H       -1.98440186       0.79997327      -0.62144851
H       -1.66415383       0.64591379       1.09294500
H       -0.14643198       2.48820558       0.12137286
H        2.10293674       1.40947383      -0.04709460
14
Frame=9 idx=005976 GeodesicLength=0.818474429930782 rxn_smarts="[O:1]([C@@:2]1([H:8])[C:3]([H:9])([H:10])[C:4]([H:11])([H:12])[C:5]([H:13])=[C:6]1[H:14])[H:7]>>[O:1]=[C:2](/[C:6](=[C:5](\[C:4]([C:3]([H:7])([H:9])[H:10])([H:11])[H:12])[H:13])[H:14])[H:8]"
O        1.79481164      -1.22583095       0.85158575
C        1.27344150      -0.61662851      -0.19791619
C       -0.74294379      -0.92223172      -0.10806698
C       -1.21470939       0.51433392       0.09990879
C       -0.02286013       1.42068470      -0.04089817
C        1.17708531       0.86959529      -0.17937298
H        0.29704269      -1.34598182       0.87960627
H        1.34187866      -1.16667786      -1.14188569
H       -0.84931157      -1.22692140      -1.15110989
H       -1.36467926      -1.64837959       0.42718285
H       -1.98146741       0.79739595      -0.62667933
H       -1.66386348       0.64971455       1.08879810
H       -0.14708481       2.48494423       0.12633372
H        2.10266005       1.41598321      -0.02748624
14
Frame=10 idx=005976 GeodesicLength=0.9092889364783627 rxn_smarts="[O:1]([C@@:2]1([H:8])[C:3]([H:9])([H:10])[C:4]([H:11])([H:12])[C:5]([H:13])=[C:6]1[H:14])[H:7]>>[O:1]=[C:2](/[C:6](=[C:5](\[C:4]([C:3]([H:7])([H:9])[H:10])([H:11])[H:12])[H:13])[H:14])[H:8]"
O        1.80816312      -1.22143493       0.83541604
C        1.28500747      -0.61066826      -0.21153502
C       -0.74351815      -0.92713102      -0.10257250
C       -1.21319747       0.51250168       0.09693155
C       -0.02184171       1.41910827      -0.04663878
C        1.18181079       0.87402941      -0.18442154
H        0.29372590      -1.35038434       0.91278151
H        1.33069775      -1.17156539      -1.14945310
H       -0.85125292      -1.22931171      -1.14696566
H       -1.38208509      -1.64698499       0.42023903
H       -1.97835122       0.79454313      -0.63185167
H       -1.66343560       0.65341387       1.08466783
H       -0.14781383       2.48160339       0.13090141
H        2.10209098       1.42228088      -0.00749908
14
Frame=11 idx=005976 GeodesicLength=1.0000853919510937 rxn_smarts="[O:1]([C@@:2]1([H:8])[C:3]([H:9])([H:10])[C:4]([H:11])([H:12])[C:5]([H:13])=[C:6]1[H:14])[H:7]>>[O:1]=[C:2](/[C:6](=[C:5](\[C:4]([C:3]([H:7])([H:9])[H:10])([H:11])[H:12])[H:13])[H:14])[H:8]"
O        1.82029873      -1.21737153       0.81871785
C        1.29704525      -0.60436472      -0.22619995
C       -0.74378455      -0.93215234      -0.09679184
C       -1.21147625       0.51051752       0.09404094
C       -0.02073106       1.41750937      -0.05235214
C        1.18670686       0.87867114      -0.18934080
H        0.29007492      -1.35449869       0.94733113
H        1.31945079      -1.17607549      -1.15736680
H       -0.85294139      -1.23173446      -1.14257202
H       -1.39932431      -1.64538577       0.41297413
H       -1.97504935       0.79139834      -0.63695568
H       -1.66284861       0.65700413       1.08056208
H       -0.14861559       2.47819589       0.13506367
H        2.10119458       1.42828660       0.01288942
14
Frame=12 idx=005976 GeodesicLength=1.0908736317518315 rxn_smarts="[O:1]([C@@:2]1([H:8])[C:3]([H:9])([H:10])[C:4]([H:11])([H:12])[C:5]([H:13])=[C:6]1[H:14])[H:7]>>[O:1]=[C:2](/[C:6](=[C:5](\[C:4]([C:3]([H:7])([H:9])[H:10])([H:11])[H:12])[H:13])[H:14])[H:8]"
O        1.83113557      -1.21362906       0.80149023
C        1.30957740      -0.59769387      -0.24196704
C       -0.74372691      -0.93730363      -0.09071558
C       -1.20953608       0.50837177       0.09123994
C       -0.01952446       1.41588311      -0.05804208
C        1.19177193       0.88351843      -0.19414709
H        0.28602706      -1.35831206       0.98333656
H        1.30813337      -1.18015600      -1.16565321
H       -0.85434333      -1.23419253      -1.13792300
H       -1.41635254      -1.64358601       0.40537891
H       -1.97155477       0.78794647      -0.64198820
H       -1.66209504       0.66047747       1.07648193
H       -0.14948324       2.47472387       0.13883773
H        2.09997103       1.43395205       0.03367091
14
Frame=13 idx=005976 GeodesicLength=1.1816447238902539 rxn_smarts="[O:1]([C@@:2]1([H:8])[C:3]([H:9])([H:10])[C:4]([H:11])([H:12])[C:5]([H:13])=[C:6]1[H:14])[H:7]>>[O:1]=[C:2](/[C:6](=[C:5](\[C:4]([C:3]([H:7])([H:9])[H:10])([H:11])[H:12])[H:13])[H:14])[H:8]"
O        1.84059849      -1.21018766       0.78374310
C        1.32261933      -0.59063435      -0.25887584
C       -0.74333529      -0.94259122      -0.08434056
C       -1.20737050       0.50605628       0.08853162
C       -0.01821935       1.41422507      -0.06370978
C        1.19700152       0.88856518      -0.19885756
H        0.28151613      -1.36182224       1.02086792
H        1.29674452      -1.18375174      -1.17432374
H       -0.85542481      -1.23668514      -1.13302057
H       -1.43312446      -1.64159365       0.39744162
H       -1.96786288       0.78417773      -0.64694368
H       -1.66116814       0.66382171       1.07243062
H       -0.15040808       2.47118614       0.14224865
H        2.09843352       1.43923388       0.05480821
14
Frame=14 idx=005976 GeodesicLength=1.2723890698004443 rxn_smarts="[O:1]([C@@:2]1([H:8])[C:3]([H:9])([H:10])[C:4]([H:11])([H:12])[C:5]([H:13])=[C:6]1[H:14])[H:7]>>[O:1]=[C:2](/[C:6](=[C:5](\[C:4]([C:3]([H:7])([H:9])[H:10])([H:11])[H:12])[H:13])[H:14])[H:8]"
O        1.84860017      -1.20702612       0.76548183
C        1.33618839      -0.58316528      -0.27696161
C       -0.74260003      -0.94802243      -0.07766340
C       -1.20497119       0.50356135       0.08592077
C       -0.01681124       1.41252847      -0.06935861
C        1.20239270       0.89380265      -0.20348961
H        0.27647757      -1.36502292       1.06000313
H        1.28528233      -1.18678994      -1.18339108
H       -0.85614779      -1.23921021      -1.12786706
H       -1.44958891      -1.63941776       0.38914748
H       -1.96397046       0.78008120      -0.65181348
H       -1.66005682       0.66702440       1.06841329
H       -0.15137897       2.46758344       0.14531337
H        2.09658426       1.44407315       0.07626498
14
Frame=15 idx=005976 GeodesicLength=1.3630988135322084 rxn_smarts="[O:1]([C@@:2]1([H:8])[C:3]([H:9])([H:10])[C:4]([H:11])([H:12])[C:5]([H:13])=[C:6]1[H:14])[H:7]>>[O:1]=[C:2](/[C:6](=[C:5](\[C:4]([C:3]([H:7])([H:9])[H:10])([H:11])[H:12])[H:13])[H:14])[H:8]"
O        1.85507112      -1.20412112       0.74671604
C        1.35029786      -0.57526777      -0.29623965
C       -0.74151750      -0.95360365      -0.07068356
C       -1.20233271       0.50087975       0.08341167
C       -0.01529659       1.41078591      -0.07498831
C        1.20794013       0.89921838      -0.20806333
H        0.27083073      -1.36791803       1.10080753
H        1.27375884      -1.18919509      -1.19286243
H       -0.85647648      -1.24176703      -1.12246737
H       -1.46569978      -1.63707157       0.38048589
H       -1.95987421       0.77565149      -0.65658994
H       -1.65875406       0.67007439       1.06443519
H       -0.15238198       2.46391046       0.14806027
H        2.09443465       1.44842387       0.09797801
14
Frame=16 idx=005976 GeodesicLength=1.453771483412876 rxn_smarts="[O:1]([C@@:2]1([H:8])[C:3]([H:9])([H:10])[C:4]([H:11])([H:12])[C:5]([H:13])=[C:6]1[H:14])[H:7]>>[O:1]=[C:2](/[C:6](=[C:5](\[C:4]([C:3]([H:7])([H:9])[H:10])([H:11])[H:12])[H:13])[H:14])[H:8]"
O        1.85993480      -1.20144593       0.72745337
C        1.36495973      -0.56692487      -0.31671706
C       -0.74008650      -0.95934235      -0.06340273
C       -1.19944979       0.49800299       0.08100893
C       -0.01367108       1.40898900      -0.08060197
C        1.21363874       0.90479630      -0.21260154
H        0.26449316      -1.37051221       1.14334821
H        1.26218134      -1.19087232      -1.20274424
H       -0.85637209      -1.24435325      -1.11682957
H       -1.48140241      -1.63457083       0.37145092
H       -1.95557352       0.77088232      -0.66126345
H       -1.65724935       0.67295902       1.06050320
H       -0.15340098       2.46016179       0.15051027
H        2.09199796       1.45223033       0.11988566
