17
Frame=0 idx=011438 GeodesicLength=0.0 rxn_smarts="[C:1]([C@:2]1([O:3][H:11])[C:4]([H:12])([H:13])[C@@:5]1([C:6]([H:14])([H:15])[H:16])[O:7][H:17])([H:8])([H:9])[H:10]>>[C:1]([C@@:2]1([O:3][H:11])[C:4]([H:12])=[C:5]1[C:6]([H:14])([H:15])[H:16])([H:8])([H:9])[H:10].[O:7]([H:13])[H:17]"
C       -1.78774785      -0.47578792      -0.36237210
C       -0.67351217       0.42736688       0.09882712
O       -0.83274616       1.74782819      -0.44417198
C        0.06105349       0.28659335       1.38412439
C        0.72615531      -0.06663111       0.14504602
C        1.37480452      -1.27456563      -0.43448173
O        1.68351189       1.20392067      -0.03086996
H       -2.73354916      -0.14038547       0.06779898
H       -1.88775693      -0.45676909      -1.44972439
H       -1.62097325      -1.50443540      -0.04145844
H       -1.09868063       2.30953364       0.28926398
H       -0.22474984      -0.44592771       2.12852258
H        1.29370752       1.38018070       0.95407864
H        2.29710160      -1.51301113       0.09690458
H        0.69667523      -2.12146422      -0.32616528
H        1.60080930      -1.15090192      -1.49497411
H        1.12589715       1.79445620      -0.58034822
17
Frame=1 idx=011438 GeodesicLength=0.1134572576188049 rxn_smarts="[C:1]([C@:2]1([O:3][H:11])[C:4]([H:12])([H:13])[C@@:5]1([C:6]([H:14])([H:15])[H:16])[O:7][H:17])([H:8])([H:9])[H:10]>>[C:1]([C@@:2]1([O:3][H:11])[C:4]([H:12])=[C:5]1[C:6]([H:14])([H:15])[H:16])([H:8])([H:9])[H:10].[O:7]([H:13])[H:17]"
C       -1.79368414      -0.47662668      -0.36048485
C       -0.67454844       0.42176314       0.09728158
O       -0.82816213       1.74306518      -0.44304534
C        0.06722270       0.27939177       1.37848979
C        0.72434570      -0.07276430       0.13883605
C        1.37773952      -1.27783532      -0.43999658
O        1.69997702       1.21139619      -0.03997179
H       -2.73743414      -0.13780668       0.07185496
H       -1.89588900      -0.45764977      -1.44762203
H       -1.62932971      -1.50559296      -0.03949002
H       -1.13152038       2.29779344       0.28084781
H       -0.24329188      -0.41109948       2.15114970
H        1.32099841       1.37416310       0.97671770
H        2.29561443      -1.52243063       0.09619271
H        0.70012547      -2.12671893      -0.34583411
H        1.61532791      -1.14064904      -1.49633080
H        1.13250867       1.80160097      -0.57859479
17
Frame=2 idx=011438 GeodesicLength=0.22687409783419193 rxn_smarts="[C:1]([C@:2]1([O:3][H:11])[C:4]([H:12])([H:13])[C@@:5]1([C:6]([H:14])([H:15])[H:16])[O:7][H:17])([H:8])([H:9])[H:10]>>[C:1]([C@@:2]1([O:3][H:11])[C:4]([H:12])=[C:5]1[C:6]([H:14])([H:15])[H:16])([H:8])([H:9])[H:10].[O:7]([H:13])[H:17]"
C       -1.79974242      -0.47776977      -0.35849941
C       -0.67575058       0.41584802       0.09581842
O       -0.82364245       1.73813437      -0.44143973
C        0.07326999       0.27153303       1.37287292
C        0.72233295      -0.07926822       0.13253279
C        1.38070251      -1.28106419      -0.44608271
O        1.71653186       1.21904589      -0.04853565
H       -2.74143095      -0.13556863       0.07601288
H       -1.90416887      -0.45874721      -1.44541296
H       -1.63777765      -1.50703338      -0.03738580
H       -1.16418496       2.28536558       0.27127654
H       -0.26198584      -0.37201696       2.17385400
H        1.34888135       1.36656342       1.00066904
H        2.29408175      -1.53197712       0.09480686
H        0.70377634      -2.13188538      -0.36660700
H        1.62996973      -1.12989260      -1.49785308
H        1.13913724       1.80873316      -0.57602711
17
Frame=3 idx=011438 GeodesicLength=0.34023706731222025 rxn_smarts="[C:1]([C@:2]1([O:3][H:11])[C:4]([H:12])([H:13])[C@@:5]1([C:6]([H:14])([H:15])[H:16])[O:7][H:17])([H:8])([H:9])[H:10]>>[C:1]([C@@:2]1([O:3][H:11])[C:4]([H:12])=[C:5]1[C:6]([H:14])([H:15])[H:16])([H:8])([H:9])[H:10].[O:7]([H:13])[H:17]"
C       -1.80594608      -0.47925819      -0.35640080
C       -0.67714496       0.40958441       0.09445178
O       -0.81920345       1.73298587      -0.43936276
C        0.07913115       0.26290468       1.36730717
C        0.72008896      -0.08617715       0.12615742
C        1.38368909      -1.28423975      -0.45277912
O        1.73315278       1.22687910      -0.05642902
H       -2.74556820      -0.13370029       0.08026847
H       -1.91260700      -0.46011946      -1.44308258
H       -1.64634773      -1.50879458      -0.03512000
H       -1.19657950       2.27225241       0.26050465
H       -0.28058562      -0.32819326       2.19639756
H        1.37728680       1.35721772       1.02605967
H        2.29248394      -1.54167767       0.09270994
H        0.70762863      -2.13693324      -0.38859200
H        1.64474753      -1.11855304      -1.49953770
H        1.14577366       1.81582243      -0.57255268
17
Frame=4 idx=011438 GeodesicLength=0.45353853104070224 rxn_smarts="[C:1]([C@:2]1([O:3][H:11])[C:4]([H:12])([H:13])[C@@:5]1([C:6]([H:14])([H:15])[H:16])[O:7][H:17])([H:8])([H:9])[H:10]>>[C:1]([C@@:2]1([O:3][H:11])[C:4]([H:12])=[C:5]1[C:6]([H:14])([H:15])[H:16])([H:8])([H:9])[H:10].[O:7]([H:13])[H:17]"
C       -1.81232226      -0.48113574      -0.35417607
C       -0.67876004       0.40293391       0.09320054
O       -0.81486204       1.72756934      -0.43682436
C        0.08472923       0.25338665       1.36184029
C        0.71758253      -0.09352784       0.11974341
C        1.38669280      -1.28735094      -0.46011972
O        1.74981001       1.23490901      -0.06350157
H       -2.74987827      -0.13223275       0.08461458
H       -1.92121524      -0.46182631      -1.44062162
H       -1.65507700      -1.51092193      -0.03267234
H       -1.22860588       2.25846835       0.24848959
H       -0.29877500      -0.27912008       2.21846326
H        1.40612720       1.34595357       1.05303309
H        2.29080570      -1.55155613       0.08985759
H        0.71168796      -2.14183419      -0.41188115
H        1.65965735      -1.10655476      -1.50137552
H        1.15240296       1.82283985      -0.56806999
17
Frame=5 idx=011438 GeodesicLength=0.5667512278711625 rxn_smarts="[C:1]([C@:2]1([O:3][H:11])[C:4]([H:12])([H:13])[C@@:5]1([C:6]([H:14])([H:15])[H:16])[O:7][H:17])([H:8])([H:9])[H:10]>>[C:1]([C@@:2]1([O:3][H:11])[C:4]([H:12])=[C:5]1[C:6]([H:14])([H:15])[H:16])([H:8])([H:9])[H:10].[O:7]([H:13])[H:17]"
C       -1.81890253      -0.48344419      -0.35181890
C       -0.68063445       0.39585750       0.09208130
O       -0.81063634       1.72182985      -0.43383228
C        0.08996077       0.24285407       1.35652819
C        0.71477086      -0.10135702       0.11334065
C        1.38969096      -1.29037412      -0.46812137
O        1.76647379       1.24313087      -0.06957298
H       -2.75440154      -0.13119049       0.08902494
H       -1.93000099      -0.46392949      -1.43802676
H       -1.66401121      -1.51345475      -0.03002711
H       -1.26021006       2.24399875       0.23518752
H       -0.31602801      -0.22426421       2.23961993
H        1.43528171       1.33258779       1.08174928
H        2.28900138      -1.56164225       0.08623924
H        0.71593324      -2.14652932      -0.43657961
H        1.67469742      -1.09379606      -1.50332217
H        1.15901500       1.82972308      -0.56246986
17
Frame=6 idx=011438 GeodesicLength=0.6798620622297037 rxn_smarts="[C:1]([C@:2]1([O:3][H:11])[C:4]([H:12])([H:13])[C@@:5]1([C:6]([H:14])([H:15])[H:16])[O:7][H:17])([H:8])([H:9])[H:10]>>[C:1]([C@@:2]1([O:3][H:11])[C:4]([H:12])=[C:5]1[C:6]([H:14])([H:15])[H:16])([H:8])([H:9])[H:10].[O:7]([H:13])[H:17]"
C       -1.82573041      -0.48621635      -0.34931486
C       -0.68281414       0.38832356       0.09112511
O       -0.80655108       1.71571110      -0.43041895
C        0.09469739       0.23119972       1.35145428
C        0.71160681      -0.10969610       0.10702599
C        1.39266661      -1.29328604      -0.47677884
O        1.78309857       1.25156121      -0.07445511
H       -2.75919217      -0.13059043       0.09348343
H       -1.93898071      -0.46648210      -1.43528770
H       -1.67320863      -1.51642974      -0.02716920
H       -1.29130454       2.22888344       0.22051936
H       -0.33173716      -0.16324418       2.25928870
H        1.46461100       1.31694202       1.11238182
H        2.28705159      -1.57194269       0.08183500
H        0.72036848      -2.15097042      -0.46272493
H        1.68983737      -1.08019733      -1.50532019
H        1.16558105       1.83643433      -0.55564393
17
Frame=7 idx=011438 GeodesicLength=0.7928565263634421 rxn_smarts="[C:1]([C@:2]1([O:3][H:11])[C:4]([H:12])([H:13])[C@@:5]1([C:6]([H:14])([H:15])[H:16])[O:7][H:17])([H:8])([H:9])[H:10]>>[C:1]([C@@:2]1([O:3][H:11])[C:4]([H:12])=[C:5]1[C:6]([H:14])([H:15])[H:16])([H:8])([H:9])[H:10].[O:7]([H:13])[H:17]"
C       -1.83285491      -0.48946944      -0.34665699
C       -0.68535828       0.38031795       0.09036649
O       -0.80263357       1.70916732      -0.42662695
C        0.09878241       0.21836411       1.34672237
C        0.70802671      -0.11855852       0.10090704
C        1.39557780      -1.29604551      -0.48603719
O        1.79963437       1.26021886      -0.07795826
H       -2.76431338      -0.13043352       0.09795338
H       -1.94816461      -0.46952781      -1.43240259
H       -1.68273804      -1.51986543      -0.02409124
H       -1.32184840       2.21315543       0.20437756
H       -0.34503005      -0.09591166       2.27672244
H        1.49395404       1.29886547       1.14510186
H        2.28490325      -1.58244651       0.07669029
H        0.72496572      -2.15507987      -0.49030545
H        1.70502773      -1.06567198      -1.50725498
H        1.17206923       1.84292108      -0.54750779
17
Frame=8 idx=011438 GeodesicLength=0.9057018315441696 rxn_smarts="[C:1]([C@:2]1([O:3][H:11])[C:4]([H:12])([H:13])[C@@:5]1([C:6]([H:14])([H:15])[H:16])[O:7][H:17])([H:8])([H:9])[H:10]>>[C:1]([C@@:2]1([O:3][H:11])[C:4]([H:12])=[C:5]1[C:6]([H:14])([H:15])[H:16])([H:8])([H:9])[H:10].[O:7]([H:13])[H:17]"
C       -1.84032569      -0.49318279      -0.34384046
C       -0.68833602       0.37187178       0.08985078
O       -0.79892081       1.70218261      -0.42252885
C        0.10204230       0.20441112       1.34245382
C        0.70395211      -0.12791714       0.09512613
C        1.39836390      -1.29859543      -0.49576135
O        1.81601042       1.26915289      -0.07994681
H       -2.76983060      -0.13068394       0.10238771
H       -1.95755192      -0.47308298      -1.42937129
H       -1.69267004      -1.52374324      -0.02079127
H       -1.35180547       2.19690043       0.18660259
H       -0.35485041      -0.02270801       2.29101446
H        1.52314543       1.27828172       1.18003321
H        2.28249690      -1.59308605       0.07091928
H        0.72969164      -2.15876833      -0.51915768
H        1.72016759      -1.05017791      -1.50894528
H        1.17842068       1.84914528      -0.53804500
17
Frame=9 idx=011438 GeodesicLength=1.0183832726572861 rxn_smarts="[C:1]([C@:2]1([O:3][H:11])[C:4]([H:12])([H:13])[C@@:5]1([C:6]([H:14])([H:15])[H:16])[O:7][H:17])([H:8])([H:9])[H:10]>>[C:1]([C@@:2]1([O:3][H:11])[C:4]([H:12])=[C:5]1[C:6]([H:14])([H:15])[H:16])([H:8])([H:9])[H:10].[O:7]([H:13])[H:17]"
C       -1.84819862      -0.49727588      -0.34085956
C       -0.69183174       0.36308533       0.08962874
O       -0.79547144       1.69480022      -0.41823313
C        0.10431736       0.18957929       1.33877814
C        0.69929994      -0.13768832       0.08984969
C        1.40095630      -1.30085534      -0.50571681
O        1.83216312       1.27843841      -0.08040121
H       -2.77582816      -0.13124737       0.10673245
H       -1.96713869      -0.47711553      -1.42619916
H       -1.70307317      -1.52798189      -0.01725127
H       -1.38122155       2.18024174       0.16694826
H       -0.36001502       0.05509787       2.30123136
H        1.55206132       1.25521717       1.21720792
H        2.27976449      -1.60375393       0.06476571
H        0.73449435      -2.16191282      -0.54897882
H        1.73515691      -1.03370385      -1.51012461
H        1.18456459       1.85507490      -0.52737769
17
Frame=10 idx=011438 GeodesicLength=1.1308990776277592 rxn_smarts="[C:1]([C@:2]1([O:3][H:11])[C:4]([H:12])([H:13])[C@@:5]1([C:6]([H:14])([H:15])[H:16])[O:7][H:17])([H:8])([H:9])[H:10]>>[C:1]([C@@:2]1([O:3][H:11])[C:4]([H:12])=[C:5]1[C:6]([H:14])([H:15])[H:16])([H:8])([H:9])[H:10].[O:7]([H:13])[H:17]"
C       -1.85650444      -0.50161752      -0.33769334
C       -0.69591018       0.35413019       0.08974824
O       -0.79234000       1.68711576      -0.41389552
C        0.10552111       0.17433212       1.33579612
C        0.69399983      -0.14771939       0.08523203
C        1.40328163      -1.30273046      -0.51559841
O        1.84803506       1.28822344      -0.07947559
H       -2.78235428      -0.13198116       0.11096091
H       -1.97690805      -0.48156784      -1.42287129
H       -1.71398059      -1.53244057      -0.01342574
H       -1.41009147       2.16337843       0.14511080
H       -0.35967037       0.13527885       2.30662430
H        1.58067442       1.22984066       1.25652512
H        2.27666484      -1.61424643       0.05852446
H        0.73933152      -2.16440514      -0.57926625
H        1.74983137      -1.01632825      -1.51050756
H        1.19041958       1.86073732      -0.51578829
17
Frame=11 idx=011438 GeodesicLength=1.243265858316297 rxn_smarts="[C:1]([C@:2]1([O:3][H:11])[C:4]([H:12])([H:13])[C@@:5]1([C:6]([H:14])([H:15])[H:16])[O:7][H:17])([H:8])([H:9])[H:10]>>[C:1]([C@@:2]1([O:3][H:11])[C:4]([H:12])=[C:5]1[C:6]([H:14])([H:15])[H:16])([H:8])([H:9])[H:10].[O:7]([H:13])[H:17]"
C       -1.86524460      -0.50604954      -0.33430455
C       -0.70060376       0.34521500       0.09024102
O       -0.78957557       1.67927130      -0.40967006
C        0.10568251       0.15924043       1.33354542
C        0.68801635      -0.15782863       0.08136648
C        1.40529133      -1.30412827      -0.52510600
O        1.86359852       1.29868458      -0.07748262
H       -2.78942028      -0.13271540       0.11508174
H       -1.98683815      -0.48636197      -1.41935480
H       -1.72538040      -1.53694398      -0.00922906
H       -1.43841927       2.14650390       0.12077725
H       -0.35350400       0.21520276       2.30689862
H        1.60906197       1.20238204       1.29777003
H        2.27317925      -1.62435453       0.05250688
H        0.74417396      -2.16614440      -0.60951132
H        1.76406869      -0.99816067      -1.50983320
H        1.19591347       1.86618738      -0.50369585
17
Frame=12 idx=011438 GeodesicLength=1.3555596098910092 rxn_smarts="[C:1]([C@:2]1([O:3][H:11])[C:4]([H:12])([H:13])[C@@:5]1([C:6]([H:14])([H:15])[H:16])[O:7][H:17])([H:8])([H:9])[H:10]>>[C:1]([C@@:2]1([O:3][H:11])[C:4]([H:12])=[C:5]1[C:6]([H:14])([H:15])[H:16])([H:8])([H:9])[H:10].[O:7]([H:13])[H:17]"
C       -1.87440552      -0.51043565      -0.33063942
C       -0.70591061       0.33652883       0.09112168
O       -0.78720348       1.67140900      -0.40567821
C        0.10493315       0.14483617       1.33200403
C        0.68135706      -0.16784987       0.07826132
C        1.40697629      -1.30497518      -0.53403350
O        1.87887897       1.31001015      -0.07479807
H       -2.79701398      -0.13329674       0.11914104
H       -1.99691997      -0.49144502      -1.41560212
H       -1.73724005      -1.54133155      -0.00453834
H       -1.46619002       2.12975641       0.09365851
H       -0.34181989       0.29251603       2.30227811
H        1.63738232       1.17304114       1.34071426
H        2.26932812      -1.63389915       0.04693985
H        0.74901429      -2.16706051      -0.63933060
H        1.77781137      -0.97931160      -1.50794928
H        1.20102195       1.87150754      -0.49154925
17
Frame=13 idx=011438 GeodesicLength=1.4677495044868718 rxn_smarts="[C:1]([C@:2]1([O:3][H:11])[C:4]([H:12])([H:13])[C@@:5]1([C:6]([H:14])([H:15])[H:16])[O:7][H:17])([H:8])([H:9])[H:10]>>[C:1]([C@@:2]1([O:3][H:11])[C:4]([H:12])=[C:5]1[C:6]([H:14])([H:15])[H:16])([H:8])([H:9])[H:10].[O:7]([H:13])[H:17]"
C       -1.88392905      -0.51468992      -0.32663474
C       -0.71177567       0.32819729       0.09237701
O       -0.78522006       1.66361737      -0.40200118
C        0.10347814       0.13150330       1.33106442
C        0.67405558      -0.17766643       0.07584557
C        1.40834284      -1.30521550      -0.54229365
O        1.89388137       1.32236689      -0.07177251
H       -2.80504496      -0.13361204       0.12320985
H       -2.00713193      -0.49680972      -1.41153350
H       -1.74948496      -1.54548634       0.00077476
H       -1.49323195       2.11320521       0.06360604
H       -0.32545011       0.36561742       2.29331710
H        1.66577331       1.14190801       1.38515460
H        2.26514137      -1.64272892       0.04190139
H        0.75387543      -2.16711113      -0.66849032
H        1.79100801      -0.95986767      -1.50480014
H        1.20571264       1.87677218      -0.47972469
17
Frame=14 idx=011438 GeodesicLength=1.5799290600634908 rxn_smarts="[C:1]([C@:2]1([O:3][H:11])[C:4]([H:12])([H:13])[C@@:5]1([C:6]([H:14])([H:15])[H:16])[O:7][H:17])([H:8])([H:9])[H:10]>>[C:1]([C@@:2]1([O:3][H:11])[C:4]([H:12])=[C:5]1[C:6]([H:14])([H:15])[H:16])([H:8])([H:9])[H:10].[O:7]([H:13])[H:17]"
C       -1.89380053      -0.51876005      -0.32224129
C       -0.71816734       0.32029242       0.09399481
O       -0.78364448       1.65598273      -0.39864419
C        0.10149782       0.11940822       1.33065308
C        0.66617053      -0.18723433       0.07401998
C        1.40946366      -1.30483499      -0.54991177
O        1.90868015       1.33585041      -0.06866227
H       -2.81350258      -0.13357380       0.12734528
H       -2.01748578      -0.50245416      -1.40711354
H       -1.76208275      -1.54933836       0.00683596
H       -1.51951014       2.09679901       0.03050032
H       -0.30521370       0.43386081       2.28072247
H        1.69432128       1.10892977       1.43104410
H        2.26073973      -1.65079464       0.03736581
H        0.75882609      -2.16628862      -0.69694440
H        1.80368798      -0.93986842      -1.50046281
H        1.21002007       1.88202401      -0.46850155
17
Frame=15 idx=011438 GeodesicLength=1.6920804111289103 rxn_smarts="[C:1]([C@:2]1([O:3][H:11])[C:4]([H:12])([H:13])[C@@:5]1([C:6]([H:14])([H:15])[H:16])[O:7][H:17])([H:8])([H:9])[H:10]>>[C:1]([C@@:2]1([O:3][H:11])[C:4]([H:12])=[C:5]1[C:6]([H:14])([H:15])[H:16])([H:8])([H:9])[H:10].[O:7]([H:13])[H:17]"
C       -1.90398065      -0.52264037      -0.31740528
C       -0.72502675       0.31282972       0.09595429
O       -0.78245813       1.64852155      -0.39559645
C        0.09916383       0.10860550       1.33065617
C        0.65774537      -0.19653915       0.07267040
C        1.41037409      -1.30381034      -0.55696372
O        1.92329894       1.35055501      -0.06564638
H       -2.82231600      -0.13313481       0.13159933
H       -2.02797847      -0.50843147      -1.40227357
H       -1.77499887      -1.55285475       0.01375920
H       -1.54483757       2.08043275      -0.00572206
H       -0.28190197       0.49713039       2.26512430
H        1.72302320       1.07396566       1.47840744
H        2.25617391      -1.65804572       0.03324059
H        0.76390763      -2.16457781      -0.72474234
H        1.81585573      -0.91930755      -1.49501427
H        1.21395570       1.88730138      -0.45804765
17
Frame=16 idx=011438 GeodesicLength=1.80421341159915 rxn_smarts="[C:1]([C@:2]1([O:3][H:11])[C:4]([H:12])([H:13])[C@@:5]1([C:6]([H:14])([H:15])[H:16])[O:7][H:17])([H:8])([H:9])[H:10]>>[C:1]([C@@:2]1([O:3][H:11])[C:4]([H:12])=[C:5]1[C:6]([H:14])([H:15])[H:16])([H:8])([H:9])[H:10].[O:7]([H:13])[H:17]"
C       -1.91444846      -0.52633465      -0.31207191
C       -0.73230839       0.30580553       0.09824324
O       -0.78165205       1.64124520      -0.39282423
C        0.09661400       0.09906646       1.33098508
C        0.64882062      -0.20559164       0.07169156
C        1.41112032      -1.30212732      -0.56355356
O        1.93776344       1.36655611      -0.06285822
H       -2.83144275      -0.13224904       0.13601884
H       -2.03861702      -0.51480038      -1.39695273
H       -1.78822187      -1.55601758       0.02166217
H       -1.56906047       2.06395825      -0.04515992
H       -0.25611417       0.55564014       2.24706170
H        1.75179809       1.03680026       1.52737424
H        2.25150664      -1.66446545       0.02940765
H        0.76916992      -2.16196739      -0.75199360
H        1.82753570      -0.89815303      -1.48855434
H        1.21753645       1.89263452      -0.44847599
