12
Frame=0 idx=011173 GeodesicLength=0.0 rxn_smarts="[N:1]([c:2]1[n:3][c:4]([O:5][H:10])[c:6]([H:11])[n:7]1[H:12])([H:8])[H:9]>>[N:1]([C:2]1=[N+:3]=[C-:4][C@:6]([O:5][H:10])([H:11])[N:7]1[H:12])([H:8])[H:9]"
N       -1.99168673      -0.53364053       0.79764673
C       -0.67883389      -0.24946362       0.55182408
N        0.34153686      -0.77620373       1.09884234
C        1.52158581      -0.06671359       0.63510681
O        1.75260337      -0.63194869      -0.90510846
C        0.97655670       0.87081954      -0.33418397
N       -0.36042385       0.79508408      -0.35087923
H       -2.12236289      -1.39816389       1.29608841
H       -2.65479142      -0.37147569       0.06039679
H        2.70571565      -0.52633219      -0.97575608
H        1.49406612       1.65399985      -0.86876180
H       -0.98396578       1.23403846      -1.00521558
12
Frame=1 idx=011173 GeodesicLength=0.05184058491033359 rxn_smarts="[N:1]([c:2]1[n:3][c:4]([O:5][H:10])[c:6]([H:11])[n:7]1[H:12])([H:8])[H:9]>>[N:1]([C:2]1=[N+:3]=[C-:4][C@:6]([O:5][H:10])([H:11])[N:7]1[H:12])([H:8])[H:9]"
N       -1.99267318      -0.53387582       0.79935650
C       -0.68305884      -0.24141594       0.54944674
N        0.34270101      -0.77725443       1.08685727
C        1.51441245      -0.06840018       0.62302769
O        1.76591282      -0.61810811      -0.92692239
C        0.97530465       0.86925430      -0.34699547
N       -0.36700122       0.79521308      -0.35478117
H       -2.11636646      -1.39394830       1.30718912
H       -2.65890319      -0.38311617       0.06247284
H        2.72537935      -0.56405639      -0.94533744
H        1.48941755       1.67027781      -0.85762676
H       -0.99512493       1.24543016      -0.99668694
12
Frame=2 idx=011173 GeodesicLength=0.10360351717154553 rxn_smarts="[N:1]([c:2]1[n:3][c:4]([O:5][H:10])[c:6]([H:11])[n:7]1[H:12])([H:8])[H:9]>>[N:1]([C:2]1=[N+:3]=[C-:4][C@:6]([O:5][H:10])([H:11])[N:7]1[H:12])([H:8])[H:9]"
N       -1.99349301      -0.53289701       0.80252299
C       -0.68708272      -0.23701392       0.54323723
N        0.34394238      -0.78089307       1.07204761
C        1.50699672      -0.07018351       0.61093629
O        1.78365735      -0.60131973      -0.94852887
C        0.97390861       0.86790925      -0.35959277
N       -0.37357730       0.79292120      -0.36120510
H       -2.11110241      -1.38806793       1.31998697
H       -2.66501626      -0.39103876       0.06865270
H        2.74384344      -0.60141596      -0.91383512
H        1.48372217       1.68815397      -0.84313983
H       -1.00579896       1.25384547      -0.99108211
12
Frame=3 idx=011173 GeodesicLength=0.1549294001911567 rxn_smarts="[N:1]([c:2]1[n:3][c:4]([O:5][H:10])[c:6]([H:11])[n:7]1[H:12])([H:8])[H:9]>>[N:1]([C:2]1=[N+:3]=[C-:4][C@:6]([O:5][H:10])([H:11])[N:7]1[H:12])([H:8])[H:9]"
N       -1.99369504      -0.53277974       0.80462959
C       -0.69065253      -0.23100444       0.53842142
N        0.34568159      -0.78252941       1.05871426
C        1.50010109      -0.07072899       0.59911710
O        1.80177526      -0.58331160      -0.96911192
C        0.97275528       0.86758533      -0.37199398
N       -0.37990867       0.79136762      -0.36731744
H       -2.10455629      -1.38303744       1.33158835
H       -2.66946796      -0.40120122       0.07272025
H        2.75650129      -0.64356716      -0.88363914
H        1.47765662       1.70617231      -0.82838294
H       -1.01619064       1.26303473      -0.98474555
12
Frame=4 idx=011173 GeodesicLength=0.20599547281049038 rxn_smarts="[N:1]([c:2]1[n:3][c:4]([O:5][H:10])[c:6]([H:11])[n:7]1[H:12])([H:8])[H:9]>>[N:1]([C:2]1=[N+:3]=[C-:4][C@:6]([O:5][H:10])([H:11])[N:7]1[H:12])([H:8])[H:9]"
N       -1.99344759      -0.53287611       0.80638817
C       -0.69385506      -0.22497303       0.53340365
N        0.34778733      -0.78349410       1.04568335
C        1.49354865      -0.07045789       0.58756488
O        1.82182890      -0.56356667      -0.98872186
C        0.97181233       0.86797970      -0.38419350
N       -0.38603427       0.78950000      -0.37407182
H       -2.09739135      -1.37790148       1.34308039
H       -2.67328899      -0.41207738       0.07635953
H        2.76422485      -0.68876108      -0.85443397
H        1.47103234       1.72469630      -0.81231301
H       -1.02621713       1.27193174      -0.97874581
12
Frame=5 idx=011173 GeodesicLength=0.25674846194452666 rxn_smarts="[N:1]([c:2]1[n:3][c:4]([O:5][H:10])[c:6]([H:11])[n:7]1[H:12])([H:8])[H:9]>>[N:1]([C:2]1=[N+:3]=[C-:4][C@:6]([O:5][H:10])([H:11])[N:7]1[H:12])([H:8])[H:9]"
N       -1.99274966      -0.53316795       0.80775829
C       -0.69668284      -0.21894273       0.52818514
N        0.35023789      -0.78375973       1.03308650
C        1.48727369      -0.06942693       0.57630017
O        1.84410883      -0.54244169      -1.00706107
C        0.97112214       0.86875946      -0.39648713
N       -0.39189118       0.78717448      -0.38156736
H       -2.08964153      -1.37257915       1.35448501
H       -2.67637834      -0.42376753       0.07944003
H        2.76661277      -0.73612864      -0.82629230
H        1.46382594       1.74332820      -0.79520408
H       -1.03583771       1.28095221      -0.97264320
12
Frame=6 idx=011173 GeodesicLength=0.30696247522118364 rxn_smarts="[N:1]([c:2]1[n:3][c:4]([O:5][H:10])[c:6]([H:11])[n:7]1[H:12])([H:8])[H:9]>>[N:1]([C:2]1=[N+:3]=[C-:4][C@:6]([O:5][H:10])([H:11])[N:7]1[H:12])([H:8])[H:9]"
N       -1.99149997      -0.53377915       0.80864826
C       -0.69903191      -0.21269051       0.52308625
N        0.35314768      -0.78282117       1.02159245
C        1.48151216      -0.06741105       0.56577705
O        1.86842267      -0.51931559      -1.02360425
C        0.97081357       0.87048521      -0.40805068
N       -0.39734227       0.78442795      -0.38967564
H       -2.08121258      -1.36744964       1.36529227
H       -2.67861258      -0.43608658       0.08191736
H        2.76256594      -0.78667796      -0.80067875
H        1.45600422       1.76233865      -0.77686007
H       -1.04476694       1.28897984      -0.96744425
12
Frame=7 idx=011173 GeodesicLength=0.35704338640132793 rxn_smarts="[N:1]([c:2]1[n:3][c:4]([O:5][H:10])[c:6]([H:11])[n:7]1[H:12])([H:8])[H:9]>>[N:1]([C:2]1=[N+:3]=[C-:4][C@:6]([O:5][H:10])([H:11])[N:7]1[H:12])([H:8])[H:9]"
N       -1.98971318      -0.53425043       0.80987133
C       -0.70095395      -0.20771180       0.51654986
N        0.35647319      -0.78169938       1.01021820
C        1.47597784      -0.06454438       0.55588184
O        1.89648511      -0.49413836      -1.03800791
C        0.97082345       0.87244977      -0.41964109
N       -0.40242249       0.78024163      -0.39938038
H       -2.07230162      -1.36270619       1.37533710
H       -2.68122940      -0.44666766       0.08600319
H        2.75277813      -0.83834302      -0.77636678
H        1.44719292       1.78145663      -0.75722393
H       -1.05311001       1.29591319      -0.96324144
12
Frame=8 idx=011173 GeodesicLength=0.40700865634605443 rxn_smarts="[N:1]([c:2]1[n:3][c:4]([O:5][H:10])[c:6]([H:11])[n:7]1[H:12])([H:8])[H:9]>>[N:1]([C:2]1=[N+:3]=[C-:4][C@:6]([O:5][H:10])([H:11])[N:7]1[H:12])([H:8])[H:9]"
N       -1.98751408      -0.53440900       0.81150439
C       -0.70254714      -0.20419529       0.50843601
N        0.36013615      -0.78059566       0.99915181
C        1.47072128      -0.06105446       0.54703099
O        1.92873175      -0.46708557      -1.04956725
C        0.97125102       0.87449038      -0.43099476
N       -0.40708315       0.77414174      -0.41113850
H       -2.06313856      -1.35822139       1.38473089
H       -2.68449517      -0.45511346       0.09188984
H        2.73745577      -0.88998327      -0.75446366
H        1.43724361       1.80035211      -0.73644225
H       -1.06076147       1.30167387      -0.96013751
12
Frame=9 idx=011173 GeodesicLength=0.45600706671897573 rxn_smarts="[N:1]([c:2]1[n:3][c:4]([O:5][H:10])[c:6]([H:11])[n:7]1[H:12])([H:8])[H:9]>>[N:1]([C:2]1=[N+:3]=[C-:4][C@:6]([O:5][H:10])([H:11])[N:7]1[H:12])([H:8])[H:9]"
N       -1.98484010      -0.53528854       0.81124967
C       -0.70349409      -0.19897309       0.50213734
N        0.36417863      -0.77660275       0.99153729
C        1.46634126      -0.05670090       0.53958030
O        1.96215663      -0.43835103      -1.05797491
C        0.97262690       0.87759825      -0.44069428
N       -0.41072009       0.76812529      -0.42261225
H       -2.05350137      -1.35212827       1.39522579
H       -2.68481783      -0.46864187       0.09321318
H        2.71170879      -0.94475842      -0.73960377
H        1.42727410       1.81924412      -0.71425914
H       -1.06691284       1.30647719      -0.95779921
12
Frame=10 idx=011173 GeodesicLength=0.5056242957240846 rxn_smarts="[N:1]([c:2]1[n:3][c:4]([O:5][H:10])[c:6]([H:11])[n:7]1[H:12])([H:8])[H:9]>>[N:1]([C:2]1=[N+:3]=[C-:4][C@:6]([O:5][H:10])([H:11])[N:7]1[H:12])([H:8])[H:9]"
N       -1.98171596      -0.53497365       0.81292560
C       -0.70417866      -0.19811663       0.49136412
N        0.36845768      -0.77449833       0.98250759
C        1.46168256      -0.05170973       0.53335974
O        2.00300859      -0.40731480      -1.06173802
C        0.97433663       0.87948669      -0.45129878
N       -0.41381988       0.75746087      -0.43867155
H       -2.04390728      -1.34723386       1.40401227
H       -2.68838012      -0.47471050       0.10087194
H        2.68174366      -0.99549711      -0.72583500
H        1.41506412       1.83711535      -0.69137522
H       -1.07229136       1.30999170      -0.95612268
12
Frame=11 idx=011173 GeodesicLength=0.5544067443848615 rxn_smarts="[N:1]([c:2]1[n:3][c:4]([O:5][H:10])[c:6]([H:11])[n:7]1[H:12])([H:8])[H:9]>>[N:1]([C:2]1=[N+:3]=[C-:4][C@:6]([O:5][H:10])([H:11])[N:7]1[H:12])([H:8])[H:9]"
N       -1.97858157      -0.53413858       0.81379925
C       -0.70450748      -0.19717221       0.48116310
N        0.37254240      -0.77156379       0.97584316
C        1.45753251      -0.04724948       0.52899155
O        2.04621744      -0.37476941      -1.06096275
C        0.97723112       0.88149927      -0.45969209
N       -0.41559529       0.74577165      -0.45486664
H       -2.03499323      -1.33941955       1.41487872
H       -2.69047886      -0.48311312       0.10625833
H        2.64344470      -1.04367051      -0.72148166
H        1.40269681       1.85418168      -0.66600303
H       -1.07550856       1.30964405      -0.95792797
12
Frame=12 idx=011173 GeodesicLength=0.6035721864615571 rxn_smarts="[N:1]([c:2]1[n:3][c:4]([O:5][H:10])[c:6]([H:11])[n:7]1[H:12])([H:8])[H:9]>>[N:1]([C:2]1=[N+:3]=[C-:4][C@:6]([O:5][H:10])([H:11])[N:7]1[H:12])([H:8])[H:9]"
N       -1.97485173      -0.53462158       0.81354620
C       -0.70426782      -0.19422767       0.47338686
N        0.37707160      -0.76469915       0.97431776
C        1.45409267      -0.04108436       0.52676150
O        2.09098028      -0.34427820      -1.05500887
C        0.98109575       0.88266269      -0.46861504
N       -0.41647071       0.73426755      -0.47030668
H       -2.02518767      -1.33470407       1.42208494
H       -2.69079752      -0.49239789       0.10948512
H        2.59516861      -1.08946749      -0.72325384
H        1.39062207       1.86864857      -0.64396808
H       -1.07745551       1.30990160      -0.95842989
12
Frame=13 idx=011173 GeodesicLength=0.6523668919279683 rxn_smarts="[N:1]([c:2]1[n:3][c:4]([O:5][H:10])[c:6]([H:11])[n:7]1[H:12])([H:8])[H:9]>>[N:1]([C:2]1=[N+:3]=[C-:4][C@:6]([O:5][H:10])([H:11])[N:7]1[H:12])([H:8])[H:9]"
N       -1.97185756      -0.53297921       0.81437846
C       -0.70429470      -0.19274291       0.46513335
N        0.38060123      -0.76080737       0.97214044
C        1.45033931      -0.03739107       0.52621340
O        2.13839889      -0.31356212      -1.04413324
C        0.98603679       0.88244810      -0.47544797
N       -0.41617059       0.72087371      -0.48594677
H       -2.01739541      -1.32656946       1.43174896
H       -2.69212234      -0.49929185       0.11424513
H        2.54536314      -1.12484092      -0.73416310
H        1.37838676       1.88095423      -0.61912832
H       -1.07728552       1.30390888      -0.96504035
12
Frame=14 idx=011173 GeodesicLength=0.7011612948438235 rxn_smarts="[N:1]([c:2]1[n:3][c:4]([O:5][H:10])[c:6]([H:11])[n:7]1[H:12])([H:8])[H:9]>>[N:1]([C:2]1=[N+:3]=[C-:4][C@:6]([O:5][H:10])([H:11])[N:7]1[H:12])([H:8])[H:9]"
N       -1.96951443      -0.53051402       0.81541660
C       -0.70464496      -0.19108053       0.45788631
N        0.38328516      -0.75814188       0.97062501
C        1.44621901      -0.03504712       0.52702768
O        2.18634263      -0.28550329      -1.02897474
C        0.99175510       0.88030693      -0.48205168
N       -0.41517666       0.70661321      -0.50114337
H       -2.01093956      -1.31717349       1.44189565
H       -2.69359269      -0.50546127       0.11883101
H        2.49547667      -1.15029697      -0.75129554
H        1.36655875       1.88997613      -0.59542649
H       -1.07576902       1.29632230      -0.97279043
12
Frame=15 idx=011173 GeodesicLength=0.7500426441050206 rxn_smarts="[N:1]([c:2]1[n:3][c:4]([O:5][H:10])[c:6]([H:11])[n:7]1[H:12])([H:8])[H:9]>>[N:1]([C:2]1=[N+:3]=[C-:4][C@:6]([O:5][H:10])([H:11])[N:7]1[H:12])([H:8])[H:9]"
N       -1.96769312      -0.52912742       0.81522921
C       -0.70533699      -0.18573020       0.45472652
N        0.38531778      -0.75364478       0.97183955
C        1.44202993      -0.03278567       0.52868543
O        2.23115725      -0.26333656      -1.01138585
C        0.99813041       0.87623695      -0.48959360
N       -0.41404482       0.69411216      -0.51362698
H       -2.00483972      -1.30892923       1.45050525
H       -2.69311928      -0.51497526       0.11971462
H        2.44510357      -1.16790001      -0.77192568
H        1.35683616       1.89493277      -0.57652252
H       -1.07354117       1.29114726      -0.97764595
12
Frame=16 idx=011173 GeodesicLength=0.7989170342223272 rxn_smarts="[N:1]([c:2]1[n:3][c:4]([O:5][H:10])[c:6]([H:11])[n:7]1[H:12])([H:8])[H:9]>>[N:1]([C:2]1=[N+:3]=[C-:4][C@:6]([O:5][H:10])([H:11])[N:7]1[H:12])([H:8])[H:9]"
N       -1.96709294      -0.52509509       0.81674207
C       -0.70688587      -0.18212092       0.45051143
N        0.38593575      -0.75460320       0.96929242
C        1.43675461      -0.03380219       0.53069955
O        2.27657242      -0.24185554      -0.99060365
C        1.00480168       0.87036563      -0.49594497
N       -0.41263463       0.67976707      -0.52656723
H       -2.00109005      -1.29653797       1.46232884
H       -2.69472498      -0.52123087       0.12338359
H        2.40204920      -1.17414021      -0.79736281
H        1.34670282       1.89733842      -0.55597450
H       -1.07038802       1.28191487      -0.98650474
