16
Frame=0 idx=007664 GeodesicLength=0.0 rxn_smarts="[C:1]([O:2][C:3](/[C:4](=[N:5]\[O:6][H:13])[C:7]([H:14])([H:15])[H:16])([H:11])[H:12])([H:8])([H:9])[H:10]>>[C-:1]([O+:2]=[C:3]([H:11])[H:12])([H:8])[H:9].[C:4](=[N:5]/[O:6][H:13])(\[C:7]([H:14])([H:15])[H:16])[H:10]"
C        2.09691523       0.01744002      -0.30493771
O        1.59099778      -0.46987695       0.81475100
C        0.54807216       0.10686981       1.36044807
C       -0.71508596      -0.05824927      -0.35383422
N       -1.51687711       0.93702640      -0.43275892
O       -0.78882275       2.13352871      -0.43496261
C       -1.32200533      -1.42853158      -0.41807389
H        2.10218336       1.09547348      -0.42865041
H        2.88882595      -0.58933265      -0.71834201
H        0.36406911       0.03719259      -0.77398308
H        0.49026042       1.19040870       1.33214741
H        0.15249520      -0.43524424       2.20866920
H       -1.47230965       2.80110452      -0.51713310
H       -2.35208410      -1.40831145      -0.06367340
H       -0.74865973      -2.13876966       0.17908590
H       -1.31797453      -1.79072839      -1.44875222
16
Frame=1 idx=007664 GeodesicLength=0.10301075382956026 rxn_smarts="[C:1]([O:2][C:3](/[C:4](=[N:5]\[O:6][H:13])[C:7]([H:14])([H:15])[H:16])([H:11])[H:12])([H:8])([H:9])[H:10]>>[C-:1]([O+:2]=[C:3]([H:11])[H:12])([H:8])[H:9].[C:4](=[N:5]/[O:6][H:13])(\[C:7]([H:14])([H:15])[H:16])[H:10]"
C        2.10066823       0.01353844      -0.29150900
O        1.59711982      -0.45340712       0.83992558
C        0.53780735       0.11763198       1.36520134
C       -0.71115641      -0.05836983      -0.35594153
N       -1.51696908       0.93228876      -0.44650461
O       -0.80204043       2.13584017      -0.43425466
C       -1.31876115      -1.42852864      -0.42514253
H        2.14242410       1.09031363      -0.41777884
H        2.86139571      -0.62407811      -0.71777064
H        0.39311980       0.04244615      -0.78297223
H        0.48361685       1.20146826       1.33388379
H        0.13957365      -0.41746251       2.21669255
H       -1.49108347       2.79606292      -0.52861060
H       -2.31953266      -1.43214703       0.00601647
H       -0.70570265      -2.15956469       0.10344777
H       -1.39047965      -1.75603237      -1.46468285
16
Frame=2 idx=007664 GeodesicLength=0.2059539455901776 rxn_smarts="[C:1]([O:2][C:3](/[C:4](=[N:5]\[O:6][H:13])[C:7]([H:14])([H:15])[H:16])([H:11])[H:12])([H:8])([H:9])[H:10]>>[C-:1]([O+:2]=[C:3]([H:11])[H:12])([H:8])[H:9].[C:4](=[N:5]/[O:6][H:13])(\[C:7]([H:14])([H:15])[H:16])[H:10]"
C        2.10444066       0.00837529      -0.27851021
O        1.60179244      -0.43817965       0.86359239
C        0.52736290       0.12810229       1.36876410
C       -0.70773128      -0.05770916      -0.35885496
N       -1.51794153       0.92791227      -0.45989375
O       -0.81696204       2.13863847      -0.43265928
C       -1.31488348      -1.42825463      -0.43182838
H        2.18454565       1.08259446      -0.40673452
H        2.83361325      -0.65892230      -0.71529469
H        0.42260294       0.04957441      -0.79300394
H        0.47757822       1.21226011       1.33450571
H        0.12626863      -0.39917131       2.22385006
H       -1.51155757       2.79125079      -0.53860004
H       -2.28100675      -1.45778059       0.07175236
H       -0.66635362      -2.17612109       0.02609418
H       -1.46176842      -1.72256936      -1.47317903
16
Frame=3 idx=007664 GeodesicLength=0.30888768491400453 rxn_smarts="[C:1]([O:2][C:3](/[C:4](=[N:5]\[O:6][H:13])[C:7]([H:14])([H:15])[H:16])([H:11])[H:12])([H:8])([H:9])[H:10]>>[C-:1]([O+:2]=[C:3]([H:11])[H:12])([H:8])[H:9].[C:4](=[N:5]/[O:6][H:13])(\[C:7]([H:14])([H:15])[H:16])[H:10]"
C        2.10816680       0.00208744      -0.26585999
O        1.60511629      -0.42413652       0.88589989
C        0.51679403       0.13837804       1.37130426
C       -0.70483426      -0.05634658      -0.36237483
N       -1.51973937       0.92388563      -0.47288698
O       -0.83344545       2.14181944      -0.43025924
C       -1.31044375      -1.42776204      -0.43824233
H        2.22842836       1.07226851      -0.39531029
H        2.80538954      -0.69369793      -0.71122678
H        0.45255590       0.05852476      -0.80389351
H        0.47214479       1.22286974       1.33412485
H        0.11266988      -0.38025063       2.23030879
H       -1.53351578       2.78661412      -0.54747086
H       -2.23683784      -1.48508498       0.13339246
H       -0.63071106      -2.18865293      -0.05284930
H       -1.53173809      -1.69051606      -1.47465615
16
Frame=4 idx=007664 GeodesicLength=0.4118957515863283 rxn_smarts="[C:1]([O:2][C:3](/[C:4](=[N:5]\[O:6][H:13])[C:7]([H:14])([H:15])[H:16])([H:11])[H:12])([H:8])([H:9])[H:10]>>[C-:1]([O+:2]=[C:3]([H:11])[H:12])([H:8])[H:9].[C:4](=[N:5]/[O:6][H:13])(\[C:7]([H:14])([H:15])[H:16])[H:10]"
C        2.11181257      -0.00519085      -0.25347275
O        1.60716155      -0.41122021       0.90699734
C        0.50608097       0.14852237       1.37293431
C       -0.70247753      -0.05437215      -0.36644140
N       -1.52229151       0.92020236      -0.48563305
O       -0.85133052       2.14529595      -0.42726185
C       -1.30550784      -1.42709677      -0.44440082
H        2.27396541       1.05928632      -0.38332528
H        2.77679333      -0.72819734      -0.70571182
H        0.48306963       0.06920901      -0.81553882
H        0.46724543       1.23336040       1.33280411
H        0.09874904      -0.36065265       2.23615483
H       -1.55677346       2.78213182      -0.55532205
H       -2.18719082      -1.51385311       0.19098876
H       -0.59875390      -2.19736844      -0.13349561
H       -1.60055233      -1.66005671      -1.46927590
16
Frame=5 idx=007664 GeodesicLength=0.5148550780812973 rxn_smarts="[C:1]([O:2][C:3](/[C:4](=[N:5]\[O:6][H:13])[C:7]([H:14])([H:15])[H:16])([H:11])[H:12])([H:8])([H:9])[H:10]>>[C-:1]([O+:2]=[C:3]([H:11])[H:12])([H:8])[H:9].[C:4](=[N:5]/[O:6][H:13])(\[C:7]([H:14])([H:15])[H:16])[H:10]"
C        2.11527804      -0.01330857      -0.24138045
O        1.60813149      -0.39932484       0.92694219
C        0.49544542       0.15864704       1.37389763
C       -0.70073940      -0.05185538      -0.37050893
N       -1.52562155       0.91680261      -0.49772731
O       -0.87054445       2.14890215      -0.42343206
C       -1.30021308      -1.42628786      -0.45050548
H        2.32087818       1.04357616      -0.37072425
H        2.74757133      -0.76225229      -0.69924049
H        0.51407418       0.08158928      -0.82759909
H        0.46300369       1.24378542       1.33072180
H        0.08492276      -0.34020498       2.24168736
H       -1.58103176       2.77765744      -0.56304223
H       -2.13274738      -1.54423047       0.24376986
H       -0.57101607      -2.20238813      -0.21514023
H       -1.66739141      -1.63110757      -1.45771832
16
Frame=6 idx=007664 GeodesicLength=0.6178555391022215 rxn_smarts="[C:1]([O:2][C:3](/[C:4](=[N:5]\[O:6][H:13])[C:7]([H:14])([H:15])[H:16])([H:11])[H:12])([H:8])([H:9])[H:10]>>[C-:1]([O+:2]=[C:3]([H:11])[H:12])([H:8])[H:9].[C:4](=[N:5]/[O:6][H:13])(\[C:7]([H:14])([H:15])[H:16])[H:10]"
C        2.11855511      -0.02217774      -0.22947294
O        1.60806450      -0.38833096       0.94594636
C        0.48482024       0.16888235       1.37427920
C       -0.69961931      -0.04890772      -0.37464364
N       -1.52963656       0.91366582      -0.50951712
O       -0.89091114       2.15259306      -0.41917931
C       -1.29459303      -1.42542046      -0.45654696
H        2.36912563       1.02503693      -0.35740992
H        2.71773630      -0.79579623      -0.69182210
H        0.54571734       0.09555201      -0.84004497
H        0.45933653       1.25430179       1.32784983
H        0.07106898      -0.31878473       2.24697099
H       -1.60620857       2.77322854      -0.57014537
H       -2.07356056      -1.57602701       0.29179909
H       -0.54734079      -2.20386889      -0.29806923
H       -1.73255465      -1.60394676      -1.43999393
16
Frame=7 idx=007664 GeodesicLength=0.7208522805847578 rxn_smarts="[C:1]([O:2][C:3](/[C:4](=[N:5]\[O:6][H:13])[C:7]([H:14])([H:15])[H:16])([H:11])[H:12])([H:8])([H:9])[H:10]>>[C-:1]([O+:2]=[C:3]([H:11])[H:12])([H:8])[H:9].[C:4](=[N:5]/[O:6][H:13])(\[C:7]([H:14])([H:15])[H:16])[H:10]"
C        2.12159124      -0.03171010      -0.21769059
O        1.60701064      -0.37814168       0.96410596
C        0.47418751       0.17930308       1.37415885
C       -0.69912745      -0.04560172      -0.37871056
N       -1.53427156       0.91074951      -0.52106300
O       -0.91232328       2.15624745      -0.41459577
C       -1.28866074      -1.42449348      -0.46256524
H        2.41852387       1.00351769      -0.34325631
H        2.68719856      -0.82871960      -0.68362315
H        0.57809875       0.11101267      -0.85273191
H        0.45616131       1.26494813       1.32421283
H        0.05720417      -0.29629646       2.25205123
H       -1.63216028       2.76876225      -0.57676899
H       -2.00966163      -1.60912694       0.33491551
H       -0.52785064      -2.20183179      -0.38229200
H       -1.79592048      -1.57861901      -1.41614685
16
Frame=8 idx=007664 GeodesicLength=0.8238445328346031 rxn_smarts="[C:1]([O:2][C:3](/[C:4](=[N:5]\[O:6][H:13])[C:7]([H:14])([H:15])[H:16])([H:11])[H:12])([H:8])([H:9])[H:10]>>[C-:1]([O+:2]=[C:3]([H:11])[H:12])([H:8])[H:9].[C:4](=[N:5]/[O:6][H:13])(\[C:7]([H:14])([H:15])[H:16])[H:10]"
C        2.12433216      -0.04181409      -0.20598406
O        1.60506202      -0.36865230       0.98157547
C        0.46360971       0.19002415       1.37370252
C       -0.69930928      -0.04202448      -0.38253622
N       -1.53949499       0.90802708      -0.53240430
O       -0.93469135       2.15985006      -0.40977624
C       -1.28247411      -1.42360642      -0.46863958
H        2.46892095       0.97890644      -0.32817249
H        2.65581199      -0.86095751      -0.67481099
H        0.61127991       0.12791332      -0.86552807
H        0.45349915       1.27585970       1.31988511
H        0.04346696      -0.27261259       2.25712281
H       -1.65876214       2.76428807      -0.58310943
H       -1.94115830      -1.64358105       0.37277987
H       -0.51277090      -2.19637958      -0.46780563
H       -1.85732178      -1.55524081      -1.38629877
16
Frame=9 idx=007664 GeodesicLength=0.9265869920618655 rxn_smarts="[C:1]([O:2][C:3](/[C:4](=[N:5]\[O:6][H:13])[C:7]([H:14])([H:15])[H:16])([H:11])[H:12])([H:8])([H:9])[H:10]>>[C-:1]([O+:2]=[C:3]([H:11])[H:12])([H:8])[H:9].[C:4](=[N:5]/[O:6][H:13])(\[C:7]([H:14])([H:15])[H:16])[H:10]"
C        2.12672599      -0.05222663      -0.19439485
O        1.60252474      -0.35957639       0.99838577
C        0.45339363       0.20118627       1.37317250
C       -0.70030943      -0.03830435      -0.38532933
N       -1.54532896       0.90531403      -0.54293882
O       -0.95785491       2.16308280      -0.40441469
C       -1.27629775      -1.42280818      -0.47497412
H        2.51988394       0.95121957      -0.31231065
H        2.62338657      -0.89211145      -0.66571143
H        0.64515678       0.14611470      -0.87800136
H        0.45153832       1.28705126       1.31501842
H        0.03045726      -0.24750181       2.26251728
H       -1.68546517       2.75949096      -0.59026053
H       -1.86914178      -1.67982721       0.40429252
H       -0.50261667      -2.18755107      -0.55381817
H       -1.91605258      -1.53355248      -1.35123255
16
Frame=10 idx=007664 GeodesicLength=1.0291954152631702 rxn_smarts="[C:1]([O:2][C:3](/[C:4](=[N:5]\[O:6][H:13])[C:7]([H:14])([H:15])[H:16])([H:11])[H:12])([H:8])([H:9])[H:10]>>[C-:1]([O+:2]=[C:3]([H:11])[H:12])([H:8])[H:9].[C:4](=[N:5]/[O:6][H:13])(\[C:7]([H:14])([H:15])[H:16])[H:10]"
C        2.12876306      -0.06306845      -0.18282758
O        1.59938035      -0.35079584       1.01480132
C        0.44343334       0.21302221       1.37262792
C       -0.70209970      -0.03458017      -0.38727947
N       -1.55169509       0.90261787      -0.55321632
O       -0.98176962       2.16604277      -0.39910969
C       -1.27003227      -1.42220182      -0.48158853
H        2.57142615       0.92010141      -0.29569306
H        2.58991639      -0.92248465      -0.65612113
H        0.67995224       0.16546848      -0.89025725
H        0.45016722       1.29883846       1.30945778
H        0.01800392      -0.22066287       2.26832374
H       -1.71266181       2.75452798      -0.59698066
H       -1.79342568      -1.71750267       0.42938684
H       -0.49728180      -2.17536455      -0.64072106
H       -1.97207669      -1.51395813      -1.31080286
16
Frame=11 idx=007664 GeodesicLength=1.1315854119687123 rxn_smarts="[C:1]([O:2][C:3](/[C:4](=[N:5]\[O:6][H:13])[C:7]([H:14])([H:15])[H:16])([H:11])[H:12])([H:8])([H:9])[H:10]>>[C-:1]([O+:2]=[C:3]([H:11])[H:12])([H:8])[H:9].[C:4](=[N:5]/[O:6][H:13])(\[C:7]([H:14])([H:15])[H:16])[H:10]"
C        2.13042606      -0.07422219      -0.17123734
O        1.59576756      -0.34208455       1.03091461
C        0.43382763       0.22567500       1.37218533
C       -0.70473983      -0.03098811      -0.38802447
N       -1.55854168       0.89978893      -0.56312542
O       -1.00631173       2.16853589      -0.39389214
C       -1.26377203      -1.42182063      -0.48858779
H        2.62328253       0.88540360      -0.27836911
H        2.55530143      -0.95191637      -0.64607189
H        0.71574861       0.18583768      -0.90209951
H        0.44942085       1.31129268       1.30318124
H        0.00633469      -0.19186113       2.27467258
H       -1.74020417       2.74919650      -0.60345329
H       -1.71444067      -1.75667326       0.44743378
H       -0.49704807      -2.15973051      -0.72828011
H       -2.02505117      -1.49643353      -1.26524646
16
Frame=12 idx=007664 GeodesicLength=1.2337731915900134 rxn_smarts="[C:1]([O:2][C:3](/[C:4](=[N:5]\[O:6][H:13])[C:7]([H:14])([H:15])[H:16])([H:11])[H:12])([H:8])([H:9])[H:10]>>[C-:1]([O+:2]=[C:3]([H:11])[H:12])([H:8])[H:9].[C:4](=[N:5]/[O:6][H:13])(\[C:7]([H:14])([H:15])[H:16])[H:10]"
C        2.13169121      -0.08565914      -0.15956283
O        1.59183521      -0.33320154       1.04690042
C        0.42470568       0.23939355       1.37201372
C       -0.70831571      -0.02767739      -0.38720498
N       -1.56585795       0.89669819      -0.57258408
O       -1.03141105       2.17046665      -0.38890800
C       -1.25757634      -1.42176664      -0.49613367
H        2.67528340       0.84686154      -0.26041535
H        2.51935904      -0.98042782      -0.63551649
H        0.75262417       0.20709950      -0.91337583
H        0.44939130       1.32463423       1.29612710
H       -0.00428475      -0.16069788       2.28180005
H       -1.76813066       2.74337879      -0.60959453
H       -1.63260180      -1.79746648       0.45773036
H       -0.50209803      -2.14055441      -0.81638339
H       -2.07461373      -1.48108116      -1.21489250
16
Frame=13 idx=007664 GeodesicLength=1.3357076811314368 rxn_smarts="[C:1]([O:2][C:3](/[C:4](=[N:5]\[O:6][H:13])[C:7]([H:14])([H:15])[H:16])([H:11])[H:12])([H:8])([H:9])[H:10]>>[C-:1]([O+:2]=[C:3]([H:11])[H:12])([H:8])[H:9].[C:4](=[N:5]/[O:6][H:13])(\[C:7]([H:14])([H:15])[H:16])[H:10]"
C        2.13252185      -0.09719916      -0.14783604
O        1.58801679      -0.32376143       1.06297481
C        0.41648101       0.25445993       1.37258828
C       -0.71304766      -0.02492413      -0.38386961
N       -1.57370018       0.89319053      -0.58092467
O       -1.05694369       2.17172442      -0.38393613
C       -1.25170191      -1.42227586      -0.50456609
H        2.72680568       0.80458841      -0.24229439
H        2.48197334      -1.00783751      -0.62453848
H        0.79040472       0.22897299      -0.92380663
H        0.45032158       1.33912492       1.28851945
H       -0.01300671      -0.12669396       2.29040146
H       -1.79598965       2.73695484      -0.61634410
H       -1.54940292      -1.84046933       0.45909375
H       -0.51260463      -2.11797645      -0.90443679
H       -2.12012761      -1.46787819      -1.16102481
16
Frame=14 idx=007664 GeodesicLength=1.4375892744994005 rxn_smarts="[C:1]([O:2][C:3](/[C:4](=[N:5]\[O:6][H:13])[C:7]([H:14])([H:15])[H:16])([H:11])[H:12])([H:8])([H:9])[H:10]>>[C-:1]([O+:2]=[C:3]([H:11])[H:12])([H:8])[H:9].[C:4](=[N:5]/[O:6][H:13])(\[C:7]([H:14])([H:15])[H:16])[H:10]"
C        2.13292720      -0.10894586      -0.13591895
O        1.58431190      -0.31348008       1.07928830
C        0.40910416       0.27118409       1.37381150
C       -0.71894004      -0.02293255      -0.37796380
N       -1.58195161       0.88902415      -0.58845259
O       -1.08274663       2.17210592      -0.37959356
C       -1.24606755      -1.42332732      -0.51396977
H        2.77791897       0.75802631      -0.22399882
H        2.44299100      -1.03433933      -0.61272227
H        0.82938398       0.25128580      -0.93340912
H        0.45219097       1.35498845       1.27993212
H       -0.01991835      -0.08931633       2.30032159
H       -1.82434404       2.72964768      -0.62223887
H       -1.46503500      -1.88520986       0.45107370
H       -0.52851320      -2.09156669      -0.99241866
H       -2.16131177      -1.45714439      -1.10374081
16
Frame=15 idx=007664 GeodesicLength=1.53957832281596 rxn_smarts="[C:1]([O:2][C:3](/[C:4](=[N:5]\[O:6][H:13])[C:7]([H:14])([H:15])[H:16])([H:11])[H:12])([H:8])([H:9])[H:10]>>[C-:1]([O+:2]=[C:3]([H:11])[H:12])([H:8])[H:9].[C:4](=[N:5]/[O:6][H:13])(\[C:7]([H:14])([H:15])[H:16])[H:10]"
C        2.13286052      -0.12079978      -0.12371131
O        1.58090839      -0.30200013       1.09596171
C        0.40275087       0.28980124       1.37580473
C       -0.72613469      -0.02196755      -0.36892338
N       -1.59055553       0.88392249      -0.59484528
O       -1.10856825       2.17135096      -0.37600531
C       -1.24076659      -1.42497647      -0.52453710
H        2.82821876       0.70702904      -0.20566914
H        2.40222592      -1.05979955      -0.59980652
H        0.86962670       0.27382254      -0.94202662
H        0.45511362       1.37234675       1.27024106
H       -0.02463775      -0.04812704       2.31166145
H       -1.85307942       2.72112845      -0.62729568
H       -1.38017091      -1.93165303       0.43288481
H       -0.54994601      -2.06097370      -1.08005723
H       -2.19784564      -1.44910423      -1.04367618
16
Frame=16 idx=007664 GeodesicLength=1.6421401146249177 rxn_smarts="[C:1]([O:2][C:3](/[C:4](=[N:5]\[O:6][H:13])[C:7]([H:14])([H:15])[H:16])([H:11])[H:12])([H:8])([H:9])[H:10]>>[C-:1]([O+:2]=[C:3]([H:11])[H:12])([H:8])[H:9].[C:4](=[N:5]/[O:6][H:13])(\[C:7]([H:14])([H:15])[H:16])[H:10]"
C        2.13229721      -0.13268444      -0.11120139
O        1.57803924      -0.28918566       1.11316775
C        0.39758681       0.31042940       1.37891068
C       -0.73489201      -0.02224689      -0.35612545
N       -1.59964768       0.87782188      -0.59958470
O       -1.13432575       2.16952465      -0.37313999
C       -1.23582235      -1.42738745      -0.53650580
H        2.87722912       0.65154771      -0.18736726
H        2.35955593      -1.08409824      -0.58589567
H        0.91112076       0.29647461      -0.94966347
H        0.45909896       1.39132093       1.25961030
H       -0.02667924      -0.00284682       2.32488166
H       -1.88186893       2.71144339      -0.63239239
H       -1.29544504      -1.97990771       0.40388659
H       -0.57677900      -2.02604444      -1.16711615
H       -2.22946804      -1.44416090      -0.98146470
