16
Frame=0 idx=004073 GeodesicLength=0.0 rxn_smarts="[C:1]([C@@:2]1([H:10])[C:3]([H:11])([H:12])[C@:4]1([C:5]([H:13])([H:14])[H:15])[O:6][H:16])([H:7])([H:8])[H:9]>>[C:1]([C:2]([C:3]([H:10])([H:11])[H:12])=[C:4]([C:5]([H:13])([H:14])[H:15])[O:6][H:16])([H:7])([H:8])[H:9]"
C        1.49010767      -0.01660218       1.06651838
C        0.96158740       0.46856147      -0.25572256
C        0.07193550      -0.93538961      -1.06104542
C       -0.48296893       0.36453177      -0.47580682
C       -1.49477549       0.23857340       0.63850185
O       -0.99223457       1.24644071      -1.45082965
H        2.53387707      -0.32389542       0.99631285
H        1.46871020       0.86691730       1.71261866
H        0.92136593      -0.80421920       1.57567511
H        1.23014886      -0.64576777      -1.12905209
H       -0.12609748      -1.02318205      -2.12444188
H       -0.07119638      -1.83172508      -0.46662178
H       -2.47104643      -0.01145939       0.22220895
H       -1.58663073       1.19359909       1.15740363
H       -1.22184336      -0.52976152       1.36091063
H       -0.23093921       1.74337852      -1.76662986
16
Frame=1 idx=004073 GeodesicLength=0.09878056389531098 rxn_smarts="[C:1]([C@@:2]1([H:10])[C:3]([H:11])([H:12])[C@:4]1([C:5]([H:13])([H:14])[H:15])[O:6][H:16])([H:7])([H:8])[H:9]>>[C:1]([C:2]([C:3]([H:10])([H:11])[H:12])=[C:4]([C:5]([H:13])([H:14])[H:15])[O:6][H:16])([H:7])([H:8])[H:9]"
C        1.48688038      -0.02676005       1.06885354
C        0.95012770       0.44980038      -0.25265433
C        0.09069420      -0.93756064      -1.06301355
C       -0.49188697       0.36802065      -0.47028931
C       -1.50184846       0.25377650       0.64582635
O       -0.99904821       1.24035853      -1.45280119
H        2.53344565      -0.32365244       0.99353986
H        1.45353085       0.85167051       1.72087919
H        0.93071963      -0.82483459       1.57506992
H        1.25562912      -0.62718290      -1.15658683
H       -0.12372664      -1.02535474      -2.12325462
H       -0.04281556      -1.84003185      -0.47538075
H       -2.47817723      -0.00317283       0.23366556
H       -1.59646416       1.21467352       1.15370052
H       -1.22758089      -0.50483576       1.37775124
H       -0.23947942       1.73508571      -1.77530559
16
Frame=2 idx=004073 GeodesicLength=0.19751318877987906 rxn_smarts="[C:1]([C@@:2]1([H:10])[C:3]([H:11])([H:12])[C@:4]1([C:5]([H:13])([H:14])[H:15])[O:6][H:16])([H:7])([H:8])[H:9]>>[C:1]([C:2]([C:3]([H:10])([H:11])[H:12])=[C:4]([C:5]([H:13])([H:14])[H:15])[O:6][H:16])([H:7])([H:8])[H:9]"
C        1.48338147      -0.03715414       1.07117971
C        0.93845390       0.43053994      -0.24965617
C        0.10961539      -0.94007414      -1.06541872
C       -0.50087994       0.37107291      -0.46472478
C       -1.50882904       0.26936374       0.65333114
O       -1.00611171       1.23355012      -1.45478490
H        2.53264543      -0.32352973       0.99078970
H        1.43827698       0.83602452       1.72904917
H        0.93999799      -0.84555517       1.57433735
H        1.28049852      -0.60704254      -1.18322874
H       -0.12015801      -1.02748539      -2.12248563
H       -0.01411066      -1.84875949      -0.48497091
H       -2.48533841       0.00550827       0.24575733
H       -1.60582471       1.23623793       1.14970982
H       -1.23314135      -0.47908578       1.39493756
H       -0.24847588       1.72638896      -1.78382194
16
Frame=3 idx=004073 GeodesicLength=0.2961932039597387 rxn_smarts="[C:1]([C@@:2]1([H:10])[C:3]([H:11])([H:12])[C@:4]1([C:5]([H:13])([H:14])[H:15])[O:6][H:16])([H:7])([H:8])[H:9]>>[C:1]([C:2]([C:3]([H:10])([H:11])[H:12])=[C:4]([C:5]([H:13])([H:14])[H:15])[O:6][H:16])([H:7])([H:8])[H:9]"
C        1.47959634      -0.04779579       1.07348887
C        0.92655513       0.41076608      -0.24673780
C        0.12868842      -0.94296057      -1.06827303
C       -0.50994327       0.37366957      -0.45911648
C       -1.51570238       0.28534215       0.66100912
O       -1.01343187       1.22598110      -1.45678283
H        2.53145928      -0.32354096       0.98806628
H        1.42296177       0.81999022       1.73710674
H        0.94918381      -0.86637453       1.57348348
H        1.30475362      -0.58528138      -1.20884581
H       -0.11542139      -1.02954845      -2.12219095
H        0.01496119      -1.85791700      -0.49539010
H       -2.49252777       0.01461412       0.25849633
H       -1.61466914       1.25829047       1.14542959
H       -1.23851922      -0.45250671       1.41243968
H       -0.25794452       1.71727170      -1.79218309
16
Frame=4 idx=004073 GeodesicLength=0.3948038523822208 rxn_smarts="[C:1]([C@@:2]1([H:10])[C:3]([H:11])([H:12])[C@:4]1([C:5]([H:13])([H:14])[H:15])[O:6][H:16])([H:7])([H:8])[H:9]>>[C:1]([C:2]([C:3]([H:10])([H:11])[H:12])=[C:4]([C:5]([H:13])([H:14])[H:15])[O:6][H:16])([H:7])([H:8])[H:9]"
C        1.47553317      -0.05869768       1.07576989
C        0.91444514       0.39044763      -0.24391444
C        0.14791424      -0.94625669      -1.07157949
C       -0.51906532       0.37580285      -0.45346696
C       -1.52248287       0.30171966       0.66884906
O       -1.02100255       1.21762868      -1.45879014
H        2.52990060      -0.32369632       0.98536866
H        1.40761837       0.80359070       1.74503266
H        0.95828453      -0.88729572       1.57251246
H        1.32835464      -0.56180933      -1.23332067
H       -0.10956021      -1.03153897      -2.12240731
H        0.04444698      -1.86751659      -0.50661918
H       -2.49978308       0.02417019       0.27187249
H       -1.62298419       1.28083353       1.14087169
H       -1.24373801      -0.42510367       1.43021193
H       -0.26788145       1.70772174      -1.80039063
16
Frame=5 idx=004073 GeodesicLength=0.49318615080077943 rxn_smarts="[C:1]([C@@:2]1([H:10])[C:3]([H:11])([H:12])[C@:4]1([C:5]([H:13])([H:14])[H:15])[O:6][H:16])([H:7])([H:8])[H:9]>>[C:1]([C:2]([C:3]([H:10])([H:11])[H:12])=[C:4]([C:5]([H:13])([H:14])[H:15])[O:6][H:16])([H:7])([H:8])[H:9]"
C        1.47111976      -0.06984477       1.07805711
C        0.90200995       0.36970627      -0.24109478
C        0.16735925      -0.94990371      -1.07534315
C       -0.52829522       0.37746572      -0.44773826
C       -1.52905706       0.31852363       0.67682166
O       -1.02891000       1.20846383      -1.46076855
H        2.52787528      -0.32398886       0.98268143
H        1.39219010       0.78676852       1.75288726
H        0.96722208      -0.90830214       1.57143954
H        1.35132594      -0.53694956      -1.25672195
H       -0.10260123      -1.03341531      -2.12313130
H        0.07444729      -1.87751061      -0.51869874
H       -2.50691420       0.03424617       0.28588633
H       -1.63071299       1.30381839       1.13592206
H       -1.24866036      -0.39682647       1.44821950
H       -0.27839859       1.69774890      -1.80841818
16
Frame=6 idx=004073 GeodesicLength=0.5914808288815218 rxn_smarts="[C:1]([C@@:2]1([H:10])[C:3]([H:11])([H:12])[C@:4]1([C:5]([H:13])([H:14])[H:15])[O:6][H:16])([H:7])([H:8])[H:9]>>[C:1]([C:2]([C:3]([H:10])([H:11])[H:12])=[C:4]([C:5]([H:13])([H:14])[H:15])[O:6][H:16])([H:7])([H:8])[H:9]"
C        1.46639876      -0.08130556       1.08030466
C        0.88932144       0.34840613      -0.23836321
C        0.18700737      -0.95396359      -1.07957314
C       -0.53759920       0.37863556      -0.44196472
C       -1.53551390       0.33576459       0.68494613
O       -1.03710712       1.19842830      -1.46277019
H        2.52544987      -0.32447195       0.98001298
H        1.37673487       0.76954265       1.76060462
H        0.97605122      -0.92945363       1.57024465
H        1.37362711      -0.51029391      -1.27879154
H       -0.09456896      -1.03516391      -2.12441229
H        0.10501848      -1.88790958      -0.53159691
H       -2.51410338       0.04483404       0.30058198
H       -1.63787036       1.32732862       1.13064123
H       -1.25339312      -0.36765518       1.46647068
H       -0.28945308       1.68727742      -1.81633492
16
Frame=7 idx=004073 GeodesicLength=0.6897244503601723 rxn_smarts="[C:1]([C@@:2]1([H:10])[C:3]([H:11])([H:12])[C@:4]1([C:5]([H:13])([H:14])[H:15])[O:6][H:16])([H:7])([H:8])[H:9]>>[C:1]([C:2]([C:3]([H:10])([H:11])[H:12])=[C:4]([C:5]([H:13])([H:14])[H:15])[O:6][H:16])([H:7])([H:8])[H:9]"
C        1.46132395      -0.09312474       1.08249523
C        0.87634271       0.32651677      -0.23572536
C        0.20687900      -0.95846666      -1.08429485
C       -0.54700494       0.37927738      -0.43614472
C       -1.54179853       0.35349094       0.69323313
O       -1.04565635       1.18744575      -1.46481703
H        2.52257372      -0.32513305       0.97735299
H        1.36119157       0.75183980       1.76822548
H        0.98475282      -0.95082300       1.56888847
H        1.39521585      -0.48166019      -1.29932308
H       -0.08541556      -1.03680585      -2.12631951
H        0.13624930      -1.89875113      -0.54537062
H       -2.52131454       0.05600344       0.31603034
H       -1.64437099       1.35141857       1.12497704
H       -1.25786245      -0.33749129       1.48498452
H       -0.30110555       1.67626326      -1.82419204
16
Frame=8 idx=004073 GeodesicLength=0.7879934032708851 rxn_smarts="[C:1]([C@@:2]1([H:10])[C:3]([H:11])([H:12])[C@:4]1([C:5]([H:13])([H:14])[H:15])[O:6][H:16])([H:7])([H:8])[H:9]>>[C:1]([C:2]([C:3]([H:10])([H:11])[H:12])=[C:4]([C:5]([H:13])([H:14])[H:15])[O:6][H:16])([H:7])([H:8])[H:9]"
C        1.45586895      -0.10531841       1.08466487
C        0.86299683       0.30403619      -0.23312376
C        0.22700657      -0.96338021      -1.08946619
C       -0.55653545       0.37940879      -0.43024208
C       -1.54783694       0.37173256       0.70159611
O       -1.05463948       1.17549339      -1.46680168
H        2.51922277      -0.32598271       0.97472736
H        1.34555687       0.73361208       1.77574214
H        0.99332407      -0.97240516       1.56738689
H        1.41612060      -0.45110137      -1.31833201
H       -0.07525163      -1.03833287      -2.12880606
H        0.16821559      -1.90998224      -0.55998983
H       -2.52841011       0.06787253       0.33214875
H       -1.65017582       1.37601637       1.11878193
H       -1.26196972      -0.30631622       1.50362041
H       -0.31349308       1.66464726      -1.83190685
16
Frame=9 idx=004073 GeodesicLength=0.8862697149617338 rxn_smarts="[C:1]([C@@:2]1([H:10])[C:3]([H:11])([H:12])[C@:4]1([C:5]([H:13])([H:14])[H:15])[O:6][H:16])([H:7])([H:8])[H:9]>>[C:1]([C:2]([C:3]([H:10])([H:11])[H:12])=[C:4]([C:5]([H:13])([H:14])[H:15])[O:6][H:16])([H:7])([H:8])[H:9]"
C        1.45002454      -0.11790350       1.08679024
C        0.84930955       0.28094641      -0.23060595
C        0.24746485      -0.96873966      -1.09516933
C       -0.56619703       0.37900709      -0.42426816
C       -1.55367967       0.39051204       0.71011626
O       -1.06403129       1.16252857      -1.46880477
H        2.51540197      -0.32703360       0.97210165
H        1.32982611       0.71491589       1.78318520
H        1.00172058      -0.99425039       1.56575463
H        1.43627759      -0.41857619      -1.33569960
H       -0.06400902      -1.03975612      -2.13196947
H        0.20102518      -1.92164735      -0.57552936
H       -2.53551026       0.08043992       0.34906188
H       -1.65528000       1.40121994       1.11216929
H       -1.26578069      -0.27411156       1.52246218
H       -0.32656242       1.65244851      -1.83959468
16
Frame=10 idx=004073 GeodesicLength=0.9839824152035684 rxn_smarts="[C:1]([C@@:2]1([H:10])[C:3]([H:11])([H:12])[C@:4]1([C:5]([H:13])([H:14])[H:15])[O:6][H:16])([H:7])([H:8])[H:9]>>[C:1]([C:2]([C:3]([H:10])([H:11])[H:12])=[C:4]([C:5]([H:13])([H:14])[H:15])[O:6][H:16])([H:7])([H:8])[H:9]"
C        1.44378817      -0.13093399       1.08883909
C        0.83522655       0.25726197      -0.22812519
C        0.26833882      -0.97433572      -1.10134580
C       -0.57600690       0.37801823      -0.41823134
C       -1.55927534       0.40982404       0.71872349
O       -1.07385836       1.14840095      -1.47086536
H        2.51106298      -0.32832080       0.96949017
H        1.31399112       0.69561190       1.79051717
H        1.00999779      -1.01635350       1.56391124
H        1.45544055      -0.38435845      -1.35119939
H       -0.05173786      -1.04081182      -2.13564953
H        0.23484837      -1.93341021      -0.59196495
H       -2.54257447       0.09373798       0.36673624
H       -1.65960182       1.42698544       1.10501391
H       -1.26921441      -0.24084021       1.54139954
H       -0.34042519       1.63952419      -1.84724929
16
Frame=11 idx=004073 GeodesicLength=1.0819167056407841 rxn_smarts="[C:1]([C@@:2]1([H:10])[C:3]([H:11])([H:12])[C@:4]1([C:5]([H:13])([H:14])[H:15])[O:6][H:16])([H:7])([H:8])[H:9]>>[C:1]([C:2]([C:3]([H:10])([H:11])[H:12])=[C:4]([C:5]([H:13])([H:14])[H:15])[O:6][H:16])([H:7])([H:8])[H:9]"
C        1.43709384      -0.14446917       1.09083304
C        0.82071931       0.23280853      -0.22574452
C        0.28957428      -0.98037083      -1.10803810
C       -0.58598627       0.37646501      -0.41210104
C       -1.56453775       0.42975951       0.72738683
O       -1.08425975       1.13311909      -1.47285657
H        2.50617695      -0.32987975       0.96691132
H        1.29804334       0.67570867       1.79773212
H        1.01808348      -1.03880057       1.56190235
H        1.47373854      -0.34774382      -1.36458692
H       -0.03841970      -1.04176864      -2.14001658
H        0.26968686      -1.94555071      -0.60935537
H       -2.54949045       0.10791962       0.38519058
H       -1.66306954       1.45335025       1.09720911
H       -1.27214463      -0.20637678       1.56040153
H       -0.35520851       1.62582958      -1.85486779
16
Frame=12 idx=004073 GeodesicLength=1.1799173256909405 rxn_smarts="[C:1]([C@@:2]1([H:10])[C:3]([H:11])([H:12])[C@:4]1([C:5]([H:13])([H:14])[H:15])[O:6][H:16])([H:7])([H:8])[H:9]>>[C:1]([C:2]([C:3]([H:10])([H:11])[H:12])=[C:4]([C:5]([H:13])([H:14])[H:15])[O:6][H:16])([H:7])([H:8])[H:9]"
C        1.42993135      -0.15853510       1.09275452
C        0.80578026       0.20761049      -0.22346815
C        0.31133016      -0.98679191      -1.11532369
C       -0.59616090       0.37431502      -0.40586723
C       -1.56952584       0.45036387       0.73618590
O       -1.09522828       1.11658922      -1.47484717
H        2.50075557      -0.33171934       0.96432292
H        1.28193853       0.65521356       1.80488159
H        1.02595106      -1.06167159       1.55970950
H        1.49107295      -0.30894154      -1.37581280
H       -0.02397416      -1.04255913      -2.14511191
H        0.30575207      -1.95800443      -0.62779440
H       -2.55637279       0.12302243       0.40457174
H       -1.66569722       1.48043324       1.08881317
H       -1.27463727      -0.17067613       1.57953957
H       -0.37091549       1.61135134      -1.86255357
16
Frame=13 idx=004073 GeodesicLength=1.2775056179152997 rxn_smarts="[C:1]([C@@:2]1([H:10])[C:3]([H:11])([H:12])[C@:4]1([C:5]([H:13])([H:14])[H:15])[O:6][H:16])([H:7])([H:8])[H:9]>>[C:1]([C:2]([C:3]([H:10])([H:11])[H:12])=[C:4]([C:5]([H:13])([H:14])[H:15])[O:6][H:16])([H:7])([H:8])[H:9]"
C        1.42226675      -0.17321061       1.09458604
C        0.79031960       0.18159787      -0.22126059
C        0.33360971      -0.99336109      -1.12309296
C       -0.60653896       0.37151382      -0.39953912
C       -1.57406891       0.47161575       0.74495691
O       -1.10683715       1.09863491      -1.47682732
H        2.49467124      -0.33389952       0.96180461
H        1.26568927       0.63394207       1.81188460
H        1.03365190      -1.08491513       1.55728165
H        1.50707038      -0.26798539      -1.38448107
H       -0.00852090      -1.04291055      -2.15073847
H        0.34317810      -1.97037847      -0.64721553
H       -2.56303266       0.13916078       0.42473294
H       -1.66724883       1.50807382       1.07961080
H       -1.27646450      -0.13372186       1.59857836
H       -0.38774506       1.59584361      -1.87028084
16
Frame=14 idx=004073 GeodesicLength=1.3753439519134871 rxn_smarts="[C:1]([C@@:2]1([H:10])[C:3]([H:11])([H:12])[C@:4]1([C:5]([H:13])([H:14])[H:15])[O:6][H:16])([H:7])([H:8])[H:9]>>[C:1]([C:2]([C:3]([H:10])([H:11])[H:12])=[C:4]([C:5]([H:13])([H:14])[H:15])[O:6][H:16])([H:7])([H:8])[H:9]"
C        1.41404462      -0.18854395       1.09633262
C        0.77434657       0.15470812      -0.21918942
C        0.35659360      -1.00028203      -1.13154021
C       -0.61718461       0.36803393      -0.39307242
C       -1.57826204       0.49368238       0.75386379
O       -1.11919215       1.07919653      -1.47877661
H        2.48798788      -0.33641275       0.95927438
H        1.24917935       0.61195586       1.81887222
H        1.04108586      -1.10876958       1.55462287
H        1.52190795      -0.22459691      -1.39055388
H        0.00819252      -1.04308105      -2.15718565
H        0.38221299      -1.98302074      -0.66785265
H       -2.56963308       0.15648556       0.44598464
H       -1.66779448       1.53657795       1.06965237
H       -1.27772568      -0.09530791       1.61773460
H       -0.40575929       1.57937458      -1.87816667
16
Frame=15 idx=004073 GeodesicLength=1.472943593822535 rxn_smarts="[C:1]([C@@:2]1([H:10])[C:3]([H:11])([H:12])[C@:4]1([C:5]([H:13])([H:14])[H:15])[O:6][H:16])([H:7])([H:8])[H:9]>>[C:1]([C:2]([C:3]([H:10])([H:11])[H:12])=[C:4]([C:5]([H:13])([H:14])[H:15])[O:6][H:16])([H:7])([H:8])[H:9]"
C        1.40521943      -0.20467188       1.09798752
C        0.75775910       0.12680687      -0.21719886
C        0.38027641      -1.00722463      -1.14052845
C       -0.62809572       0.36380101      -0.38647449
C       -1.58185503       0.51656795       0.76267059
O       -1.13243191       1.05799533      -1.48063624
H        2.48054182      -0.33941275       0.95686005
H        1.23248737       0.58897613       1.82574041
H        1.04827218      -1.13318111       1.55163948
H        1.53506839      -0.17866945      -1.39344497
H        0.02603156      -1.04271867      -2.16420789
H        0.42300470      -1.99536744      -0.68966189
H       -2.57587155       0.17509988       0.46812397
H       -1.66707438       1.56575291       1.05855286
H       -1.27805961      -0.05528231       1.63671689
H       -0.42527276       1.56152816      -1.88613898
16
Frame=16 idx=004073 GeodesicLength=1.5706163910649882 rxn_smarts="[C:1]([C@@:2]1([H:10])[C:3]([H:11])([H:12])[C@:4]1([C:5]([H:13])([H:14])[H:15])[O:6][H:16])([H:7])([H:8])[H:9]>>[C:1]([C:2]([C:3]([H:10])([H:11])[H:12])=[C:4]([C:5]([H:13])([H:14])[H:15])[O:6][H:16])([H:7])([H:8])[H:9]"
C        1.39573435      -0.22164105       1.09954111
C        0.74054853       0.09785527      -0.21535945
C        0.40485898      -1.01425478      -1.15020153
C       -0.63932684       0.35878581      -0.37970520
C       -1.58490676       0.54038924       0.77149984
O       -1.14662866       1.03494777      -1.48241496
H        2.47234657      -0.34291057       0.95449904
H        1.21549686       0.56506056       1.83257032
H        1.05512857      -1.15832765       1.54835950
H        1.54652608      -0.13016817      -1.39306530
H        0.04519982      -1.04192455      -2.17198949
H        0.46585941      -2.00756384      -0.71280514
H       -2.58187662       0.19518954       0.49139883
H       -1.66506778       1.59580884       1.04639343
H       -1.27753364      -0.01356509       1.65564074
H       -0.44635887       1.54231866      -1.89436174
