11
Frame=0 idx=002169 GeodesicLength=0.0 rxn_smarts="[O:1]([C:2]([C:3]([C:4]#[C:5][H:11])([H:9])[H:10])([H:7])[H:8])[H:6]>>[C:3]([C:4]#[C:5][H:11])([H:6])([H:9])[H:10].[O:1]=[C:2]([H:7])[H:8]"
O       -1.89608067      -0.79243674       1.00104945
C       -1.18853101      -0.88800517      -0.09865920
C       -0.12574097       0.79434282      -0.15343689
C        1.25995922       0.44232573      -0.00076437
C        2.39730762       0.09016979       0.13473188
H       -1.03632519       0.17039618       0.68406797
H       -0.31642401      -1.55502970      -0.13163660
H       -1.69182236      -0.77584184      -1.06988663
H       -0.39969342       1.11329784      -1.15573971
H       -0.41458000       1.60800938       0.53290654
H        3.41193084      -0.20722830       0.25736752
11
Frame=1 idx=002169 GeodesicLength=0.08766139453591985 rxn_smarts="[O:1]([C:2]([C:3]([C:4]#[C:5][H:11])([H:9])[H:10])([H:7])[H:8])[H:6]>>[C:3]([C:4]#[C:5][H:11])([H:6])([H:9])[H:10].[O:1]=[C:2]([H:7])[H:8]"
O       -1.88350192      -0.80257885       0.99885767
C       -1.18255759      -0.89521347      -0.10457390
C       -0.13001499       0.80715233      -0.15405776
C        1.25452666       0.45166445       0.00958315
C        2.38605471       0.08268439       0.14864907
H       -1.02788841       0.17751980       0.70917548
H       -0.31646798      -1.57011282      -0.14127145
H       -1.69575085      -0.79023420      -1.07118803
H       -0.39104152       1.12467617      -1.16074860
H       -0.41592538       1.63203465       0.51895749
H        3.40256728      -0.21759245       0.24661689
11
Frame=2 idx=002169 GeodesicLength=0.17523652012509144 rxn_smarts="[O:1]([C:2]([C:3]([C:4]#[C:5][H:11])([H:9])[H:10])([H:7])[H:8])[H:6]>>[C:3]([C:4]#[C:5][H:11])([H:6])([H:9])[H:10].[O:1]=[C:2]([H:7])[H:8]"
O       -1.87073926      -0.81180401       0.99621957
C       -1.17644145      -0.90277209      -0.11083832
C       -0.13445045       0.81985811      -0.15447130
C        1.24891102       0.46065465       0.01943942
C        2.37472090       0.07567153       0.16137071
H       -1.01926337       0.18503741       0.73480553
H       -0.31668766      -1.58584291      -0.15057029
H       -1.69930703      -0.80529658      -1.07282559
H       -0.38244858       1.13655968      -1.16523450
H       -0.41659425       1.65574556       0.50540905
H        3.39230012      -0.22781134       0.23669572
11
Frame=3 idx=002169 GeodesicLength=0.26276646237996876 rxn_smarts="[O:1]([C:2]([C:3]([C:4]#[C:5][H:11])([H:9])[H:10])([H:7])[H:8])[H:6]>>[C:3]([C:4]#[C:5][H:11])([H:6])([H:9])[H:10].[O:1]=[C:2]([H:7])[H:8]"
O       -1.85782839      -0.82008154       0.99305680
C       -1.17014734      -0.91072633      -0.11749067
C       -0.13908522       0.83247969      -0.15461896
C        1.24307596       0.46935895       0.02903010
C        2.36330340       0.06922707       0.17326230
H       -1.01056628       0.19302736       0.76097774
H       -0.31703342      -1.60224555      -0.15944982
H       -1.70240179      -0.82108294      -1.07486922
H       -0.37384788       1.14888281      -1.16918801
H       -0.41668840       1.67923413       0.49220565
H        3.38121936      -0.23807365       0.22708410
11
Frame=4 idx=002169 GeodesicLength=0.35029277878528886 rxn_smarts="[O:1]([C:2]([C:3]([C:4]#[C:5][H:11])([H:9])[H:10])([H:7])[H:8])[H:6]>>[C:3]([C:4]#[C:5][H:11])([H:6])([H:9])[H:10].[O:1]=[C:2]([H:7])[H:8]"
O       -1.84441502      -0.82748889       0.98954232
C       -1.16365931      -0.91909741      -0.12456932
C       -0.14397274       0.84505482      -0.15458612
C        1.23702721       0.47781219       0.03787883
C        2.35176267       0.06301184       0.18348336
H       -1.00160648       0.20147715       0.78780658
H       -0.31750571      -1.61932087      -0.16822142
H       -1.70531197      -0.83749598      -1.07717120
H       -0.36555812       1.16173749      -1.17260458
H       -0.41606686       1.70251908       0.47937407
H        3.36930633      -0.24820942       0.21906747
11
Frame=5 idx=002169 GeodesicLength=0.4378318218890971 rxn_smarts="[O:1]([C:2]([C:3]([C:4]#[C:5][H:11])([H:9])[H:10])([H:7])[H:8])[H:6]>>[C:3]([C:4]#[C:5][H:11])([H:6])([H:9])[H:10].[O:1]=[C:2]([H:7])[H:8]"
O       -1.83074086      -0.83387728       0.98544366
C       -1.15695851      -0.92793192      -0.13212295
C       -0.14911378       0.85756826      -0.15422653
C        1.23071745       0.48600471       0.04661265
C        2.33999769       0.05702546       0.19316387
H       -0.99270060       0.21053957       0.81525574
H       -0.31808640      -1.63712479      -0.17659670
H       -1.70778618      -0.85463770      -1.07991541
H       -0.35725261       1.17494625      -1.17547317
H       -0.41490258       1.72569666       0.46681396
H        3.35682638      -0.25820921       0.21104488
11
Frame=6 idx=002169 GeodesicLength=0.5254202412485873 rxn_smarts="[O:1]([C:2]([C:3]([C:4]#[C:5][H:11])([H:9])[H:10])([H:7])[H:8])[H:6]>>[C:3]([C:4]#[C:5][H:11])([H:6])([H:9])[H:10].[O:1]=[C:2]([H:7])[H:8]"
O       -1.81664873      -0.83925613       0.98081155
C       -1.15003490      -0.93725437      -0.14019591
C       -0.15453259       0.87003761      -0.15355949
C        1.22413931       0.49394284       0.05511739
C        2.32793259       0.05099440       0.20208897
H       -0.98380472       0.22026117       0.84340392
H       -0.31877845      -1.65567786      -0.18469936
H       -1.70994411      -0.87246095      -1.08306363
H       -0.34902408       1.18850264      -1.17778780
H       -0.41313997       1.74879733       0.45450530
H        3.34383567      -0.26788668       0.20337907
11
Frame=7 idx=002169 GeodesicLength=0.6130647332643518 rxn_smarts="[O:1]([C:2]([C:3]([C:4]#[C:5][H:11])([H:9])[H:10])([H:7])[H:8])[H:6]>>[C:3]([C:4]#[C:5][H:11])([H:6])([H:9])[H:10].[O:1]=[C:2]([H:7])[H:8]"
O       -1.80198910      -0.84360614       0.97564918
C       -1.14286567      -0.94710219      -0.14883746
C       -0.16025066       0.88247296      -0.15256938
C        1.21728026       0.50163552       0.06342308
C        2.31552301       0.04491044       0.21038683
H       -0.97496894       0.23071510       0.87229247
H       -0.31957044      -1.67501025      -0.19260615
H       -1.71185735      -0.89095068      -1.08659969
H       -0.34088875       1.20235804      -1.17955374
H       -0.41077749       1.77184781       0.44239952
H        3.33036512      -0.27727060       0.19601534
11
Frame=8 idx=002169 GeodesicLength=0.7007932295467028 rxn_smarts="[O:1]([C:2]([C:3]([C:4]#[C:5][H:11])([H:9])[H:10])([H:7])[H:8])[H:6]>>[C:3]([C:4]#[C:5][H:11])([H:6])([H:9])[H:10].[O:1]=[C:2]([H:7])[H:8]"
O       -1.78656916      -0.84692229       0.96995681
C       -1.13542542      -0.95750684      -0.15809955
C       -0.16628796       0.89489581      -0.15125443
C        1.21012751       0.50911150       0.07153477
C        2.30268333       0.03860637       0.21811639
H       -0.96620860       0.24198046       0.90197629
H       -0.32045494      -1.69512759      -0.20042330
H       -1.71361789      -0.91008771      -1.09047541
H       -0.33287394       1.21646351      -1.18078000
H       -0.40781994       1.79488176       0.43044990
H        3.31644702      -0.28629497       0.18899855
11
Frame=9 idx=002169 GeodesicLength=0.7886855674441818 rxn_smarts="[O:1]([C:2]([C:3]([C:4]#[C:5][H:11])([H:9])[H:10])([H:7])[H:8])[H:6]>>[C:3]([C:4]#[C:5][H:11])([H:6])([H:9])[H:10].[O:1]=[C:2]([H:7])[H:8]"
O       -1.77002826      -0.84919713       0.96379065
C       -1.12768701      -0.96852960      -0.16805172
C       -0.17267119       0.90731268      -0.14962251
C        1.20267768       0.51638177       0.07933811
C        2.28942162       0.03227678       0.22524452
H       -0.95750593       0.25417434       0.93251880
H       -0.32141756      -1.71604884      -0.20837870
H       -1.71543684      -0.92982685      -1.09460964
H       -0.32507766       1.23076667      -1.18149539
H       -0.40425818       1.81784533       0.41863048
H        3.30198333      -0.29515514       0.18263540
11
Frame=10 idx=002169 GeodesicLength=0.876662631117291 rxn_smarts="[O:1]([C:2]([C:3]([C:4]#[C:5][H:11])([H:9])[H:10])([H:7])[H:8])[H:6]>>[C:3]([C:4]#[C:5][H:11])([H:6])([H:9])[H:10].[O:1]=[C:2]([H:7])[H:8]"
O       -1.75217625      -0.85046099       0.95714990
C       -1.11962535      -0.98017626      -0.17873448
C       -0.17941168       0.91976253      -0.14768917
C        1.19492859       0.52349854       0.08684427
C        2.27565147       0.02575741       0.23184419
H       -0.94887829       0.26731412       0.96394171
H       -0.32245086      -1.73777012      -0.21657543
H       -1.71741456      -0.95015131      -1.09891999
H       -0.31753398       1.24523417      -1.18171613
H       -0.40009770       1.84080609       0.40688394
H        3.28700861      -0.30381420       0.17697116
11
Frame=11 idx=002169 GeodesicLength=0.9647140661720164 rxn_smarts="[O:1]([C:2]([C:3]([C:4]#[C:5][H:11])([H:9])[H:10])([H:7])[H:8])[H:6]>>[C:3]([C:4]#[C:5][H:11])([H:6])([H:9])[H:10].[O:1]=[C:2]([H:7])[H:8]"
O       -1.73272725      -0.85074772       0.95006821
C       -1.11121743      -0.99246190      -0.19019772
C       -0.18651771       0.93228203      -0.14546987
C        1.18688120       0.53051094       0.09403582
C        2.26127504       0.01892101       0.23799625
H       -0.94034497       0.28146937       0.99625724
H       -0.32353572      -1.76028336      -0.22518431
H       -1.71971367      -0.97102516      -1.10330456
H       -0.31028335       1.25981868      -1.18147227
H       -0.39535496       1.86378115       0.39515401
H        3.27153882      -0.31226505       0.17211719
11
Frame=12 idx=002169 GeodesicLength=1.0528411334983274 rxn_smarts="[O:1]([C:2]([C:3]([C:4]#[C:5][H:11])([H:9])[H:10])([H:7])[H:8])[H:6]>>[C:3]([C:4]#[C:5][H:11])([H:6])([H:9])[H:10].[O:1]=[C:2]([H:7])[H:8]"
O       -1.71137015      -0.85010433       0.94256136
C       -1.10243498      -1.00540094      -0.20249230
C       -0.19399522       0.94491102      -0.14297770
C        1.17853841       0.53748558       0.10091661
C        2.24625794       0.01182244       0.24383086
H       -0.93193202       0.29669792       1.02946815
H       -0.32464450      -1.78357430      -0.23438207
H       -1.72249550      -0.99242709      -1.10763888
H       -0.30335853       1.27447249      -1.18080845
H       -0.39006795       1.88678054       0.38338341
H        3.25550250      -0.32066333       0.16813901
11
Frame=13 idx=002169 GeodesicLength=1.1410588472335332 rxn_smarts="[O:1]([C:2]([C:3]([C:4]#[C:5][H:11])([H:9])[H:10])([H:7])[H:8])[H:6]>>[C:3]([C:4]#[C:5][H:11])([H:6])([H:9])[H:10].[O:1]=[C:2]([H:7])[H:8]"
O       -1.68775644      -0.84859947       0.93465145
C       -1.09326120      -1.01899870      -0.21566166
C       -0.20183558       0.95769171      -0.14024449
C        1.16991385       0.54449060       0.10747153
C        2.23052487       0.00438073       0.24945933
H       -0.92365895       0.31304971       1.06355150
H       -0.32576410      -1.80760557      -0.24438925
H       -1.72596885      -1.01432394      -1.11174790
H       -0.29678907       1.28914732      -1.17977593
H       -0.38427998       1.90982286       0.37151544
H        3.23887546      -0.32905525       0.16516998
11
Frame=14 idx=002169 GeodesicLength=1.2293772765026616 rxn_smarts="[O:1]([C:2]([C:3]([C:4]#[C:5][H:11])([H:9])[H:10])([H:7])[H:8])[H:6]>>[C:3]([C:4]#[C:5][H:11])([H:6])([H:9])[H:10].[O:1]=[C:2]([H:7])[H:8]"
O       -1.66156221      -0.84632612       0.92637280
C       -1.08368677      -1.03323799      -0.22974791
C       -0.21002668       0.97067555      -0.13731062
C        1.16103136       0.55159974       0.11364889
C        2.21405662      -0.00331031       0.25496198
H       -0.91552719       0.33052011       1.09846874
H       -0.32687973      -1.83234667      -0.25541184
H       -1.73034123      -1.03668501      -1.11544702
H       -0.29062590       1.30382212      -1.17843946
H       -0.37802656       1.93290486       0.35950673
H        3.22158828      -0.33761629       0.16339772
11
Frame=15 idx=002169 GeodesicLength=1.317854707108264 rxn_smarts="[O:1]([C:2]([C:3]([C:4]#[C:5][H:11])([H:9])[H:10])([H:7])[H:8])[H:6]>>[C:3]([C:4]#[C:5][H:11])([H:6])([H:9])[H:10].[O:1]=[C:2]([H:7])[H:8]"
O       -1.63247503      -0.84339577       0.91775261
C       -1.07371165      -1.04809049      -0.24478176
C       -0.21854924       0.98392202      -0.13421782
C        1.15191891       0.55890199       0.11940964
C        2.19679160      -0.01131398       0.26038461
H       -0.90754299       0.34909937       1.13415699
H       -0.32796960      -1.85774626      -0.26765222
H       -1.73581714      -1.05947727      -1.11852609
H       -0.28490963       1.31848319      -1.17686753
H       -0.37135326       1.95603717       0.34731543
H        3.20361803      -0.34641996       0.16302613
11
Frame=16 idx=002169 GeodesicLength=1.4065897126005165 rxn_smarts="[O:1]([C:2]([C:3]([C:4]#[C:5][H:11])([H:9])[H:10])([H:7])[H:8])[H:6]>>[C:3]([C:4]#[C:5][H:11])([H:6])([H:9])[H:10].[O:1]=[C:2]([H:7])[H:8]"
O       -1.60020321      -0.83993543       0.90881993
C       -1.06335164      -1.06351371      -0.26079630
C       -0.22737449       0.99748936      -0.13101725
C        1.14261575       0.56648189       0.12468839
C        2.17869795      -0.01961222       0.26577538
H       -0.89969278       0.36873873       1.17053249
H       -0.32901990      -1.88375974      -0.28131180
H       -1.74261469      -1.08266639      -1.12075076
H       -0.27968453       1.33313328      -1.17513639
H       -0.36430706       1.97922280       0.33490921
H        3.18493460      -0.35557858       0.16428710
