16
Frame=0 idx=002886 GeodesicLength=0.0 rxn_smarts="[C:1]([C@@:2]1([H:10])[C:3]([H:11])([H:12])[C@@:4]2([H:13])[C:5]([H:14])([H:15])[C@@:6]12[H:16])([H:7])([H:8])[H:9]>>[C:1]([C:2]([C:3](=[C:4]([H:11])[H:13])[H:12])([C:6](=[C:5]([H:14])[H:15])[H:16])[H:10])([H:7])([H:8])[H:9]"
C       -1.02853023      -0.86280639       1.31593635
C       -0.50823525       0.39346995       0.64943587
C        0.98150644       0.71668999       0.69161239
C        1.04025947       0.96362630      -0.73444494
C        0.20115752      -0.94400254      -1.45511017
C       -0.32921862       0.29997580      -0.91669235
H       -0.92189934      -0.81438633       2.40208349
H       -2.09108504      -0.97760386       1.08481832
H       -0.50525195      -1.74308145       0.94486854
H       -1.12075538       1.23664364       1.00257826
H        0.83456258       1.94836906      -0.09908422
H        1.73329701       0.72799129       1.46961027
H        1.88619295       1.03083311      -1.41003293
H        1.07039409      -1.40215699      -1.00541496
H       -0.16407403      -1.34456962      -2.39020885
H       -1.07832024       0.77100807      -1.54995514
16
Frame=1 idx=002886 GeodesicLength=0.10128679117002165 rxn_smarts="[C:1]([C@@:2]1([H:10])[C:3]([H:11])([H:12])[C@@:4]2([H:13])[C:5]([H:14])([H:15])[C@@:6]12[H:16])([H:7])([H:8])[H:9]>>[C:1]([C:2]([C:3](=[C:4]([H:11])[H:13])[H:12])([C:6](=[C:5]([H:14])[H:15])[H:16])[H:10])([H:7])([H:8])[H:9]"
C       -1.02231125      -0.86014510       1.32189249
C       -0.51377680       0.39353662       0.64187563
C        0.97336938       0.72778808       0.68730954
C        1.04667224       0.97392967      -0.73564867
C        0.19908964      -0.94065317      -1.45825087
C       -0.34437050       0.29349606      -0.92089942
H       -0.92361050      -0.79368434       2.40778344
H       -2.08072166      -0.99557919       1.08349884
H       -0.48406634      -1.73942253       0.96983815
H       -1.12911838       1.23773207       0.98590515
H        0.83852507       1.96775253      -0.08846845
H        1.73688454       0.67482639       1.45198706
H        1.90026232       1.05087295      -1.40008178
H        1.03997124      -1.42831241      -0.98603863
H       -0.14763065      -1.33075613      -2.40496248
H       -1.08916834       0.76861850      -1.55574001
16
Frame=2 idx=002886 GeodesicLength=0.20264625564630584 rxn_smarts="[C:1]([C@@:2]1([H:10])[C:3]([H:11])([H:12])[C@@:4]2([H:13])[C:5]([H:14])([H:15])[C@@:6]12[H:16])([H:7])([H:8])[H:9]>>[C:1]([C:2]([C:3](=[C:4]([H:11])[H:13])[H:12])([C:6](=[C:5]([H:14])[H:15])[H:16])[H:10])([H:7])([H:8])[H:9]"
C       -1.01620391      -0.85736027       1.32786443
C       -0.51889649       0.39330929       0.63437791
C        0.96582184       0.73810302       0.68299941
C        1.05340203       0.98444372      -0.73666427
C        0.19779134      -0.93742248      -1.46123812
C       -0.35966548       0.28634653      -0.92499219
H       -0.92533041      -0.77317103       2.41316029
H       -2.07022222      -1.01297388       1.08286614
H       -0.46366275      -1.73534813       0.99469419
H       -1.13675601       1.23861599       0.96939332
H        0.84304693       1.98700232      -0.07645351
H        1.73831376       0.62248991       1.43176425
H        1.91434099       1.07221258      -1.38979896
H        1.00822598      -1.45474673      -0.96749580
H       -0.13030001      -1.31719657      -2.41894651
H       -1.09990559       0.76569573      -1.56153059
16
Frame=3 idx=002886 GeodesicLength=0.3040561784606197 rxn_smarts="[C:1]([C@@:2]1([H:10])[C:3]([H:11])([H:12])[C@@:4]2([H:13])[C:5]([H:14])([H:15])[C@@:6]12[H:16])([H:7])([H:8])[H:9]>>[C:1]([C:2]([C:3](=[C:4]([H:11])[H:13])[H:12])([C:6](=[C:5]([H:14])[H:15])[H:16])[H:10])([H:7])([H:8])[H:9]"
C       -1.01018091      -0.85450839       1.33383352
C       -0.52358410       0.39273324       0.62689519
C        0.95890127       0.74745379       0.67861199
C        1.06049052       0.99508928      -0.73752620
C        0.19717729      -0.93433581      -1.46413939
C       -0.37512459       0.27847542      -0.92900921
H       -0.92697246      -0.75288414       2.41820750
H       -2.05960747      -1.02981733       1.08292644
H       -0.44402951      -1.73095633       1.01939502
H       -1.14360652       1.23926590       0.95302263
H        0.84826659       2.00595774      -0.06294880
H        1.73760662       0.57195426       1.40950731
H        1.92847390       1.09472409      -1.37916710
H        0.97492592      -1.48159884      -0.95001569
H       -0.11223162      -1.30382824      -2.43225197
H       -1.11050494       0.76227535      -1.56734125
16
Frame=4 idx=002886 GeodesicLength=0.40550094294596717 rxn_smarts="[C:1]([C@@:2]1([H:10])[C:3]([H:11])([H:12])[C@@:4]2([H:13])[C:5]([H:14])([H:15])[C@@:6]12[H:16])([H:7])([H:8])[H:9]>>[C:1]([C:2]([C:3](=[C:4]([H:11])[H:13])[H:12])([C:6](=[C:5]([H:14])[H:15])[H:16])[H:10])([H:7])([H:8])[H:9]"
C       -1.00421583      -0.85161366       1.33979191
C       -0.52786776       0.39178946       0.61937230
C        0.95258259       0.75578144       0.67408125
C        1.06794134       1.00584777      -0.73827084
C        0.19720717      -0.93141601      -1.46697620
C       -0.39078376       0.26983280      -0.93299228
H       -0.92848484      -0.73279721       2.42292626
H       -2.04888425      -1.04616541       1.08367355
H       -0.42510476      -1.72629474       1.04394679
H       -1.14968461       1.23967480       0.93673461
H        0.85425175       2.02452695      -0.04789648
H        1.73498230       0.52370102       1.38568613
H        1.94267526       1.11834209      -1.36815452
H        0.93983657      -1.50894786      -0.93377627
H       -0.09349076      -1.29060899      -2.44493160
H       -1.12096040       0.75834756      -1.57321462
16
Frame=5 idx=002886 GeodesicLength=0.5069839528340824 rxn_smarts="[C:1]([C@@:2]1([H:10])[C:3]([H:11])([H:12])[C@@:4]2([H:13])[C:5]([H:14])([H:15])[C@@:6]12[H:16])([H:7])([H:8])[H:9]>>[C:1]([C:2]([C:3](=[C:4]([H:11])[H:13])[H:12])([C:6](=[C:5]([H:14])[H:15])[H:16])[H:10])([H:7])([H:8])[H:9]"
C       -0.99828097      -0.84868481       1.34573531
C       -0.53178567       0.39047209       0.61175442
C        0.94682053       0.76308763       0.66935618
C        1.07575479       1.01672928      -0.73892596
C        0.19787537      -0.92868228      -1.46974626
C       -0.40667272       0.26036748      -0.93697968
H       -0.92981917      -0.71286658       2.42731735
H       -2.03805103      -1.06207046       1.08511391
H       -0.40681598      -1.72137996       1.06836776
H       -1.15503933       1.23984401       0.92045515
H        0.86102800       2.04266285      -0.03124482
H        1.73069394       0.47797403       1.36067629
H        1.95694699       1.14304043      -1.35672007
H        0.90271630      -1.53685107      -0.91895433
H       -0.07411051      -1.27752914      -2.45700110
H       -1.13126055       0.75388650      -1.57920416
16
Frame=6 idx=002886 GeodesicLength=0.6084948489909371 rxn_smarts="[C:1]([C@@:2]1([H:10])[C:3]([H:11])([H:12])[C@@:4]2([H:13])[C:5]([H:14])([H:15])[C@@:6]12[H:16])([H:7])([H:8])[H:9]>>[C:1]([C:2]([C:3](=[C:4]([H:11])[H:13])[H:12])([C:6](=[C:5]([H:14])[H:15])[H:16])[H:10])([H:7])([H:8])[H:9]"
C       -0.99234582      -0.84571487       1.35166765
C       -0.53538440       0.38879167       0.60399053
C        0.94154993       0.76943096       0.66439242
C        1.08391238       1.02777136      -0.73951221
C        0.19918875      -0.92616364      -1.47240827
C       -0.42282284       0.25002457      -0.94100038
H       -0.93093498      -0.69303139       2.43138737
H       -2.02709701      -1.07757806       1.08725818
H       -0.38907475      -1.71620287       1.09267792
H       -1.15974373       1.23978182       0.90409931
H        0.86859518       2.06034607      -0.01295563
H        1.72500971       0.43478099       1.33472908
H        1.97128209       1.16880322      -1.34480432
H        0.86333353      -1.56529784      -0.90570320
H       -0.05406980      -1.26458522      -2.46845051
H       -1.14139823       0.74884323      -1.58536793
16
Frame=7 idx=002886 GeodesicLength=0.7100091611330499 rxn_smarts="[C:1]([C@@:2]1([H:10])[C:3]([H:11])([H:12])[C@@:4]2([H:13])[C:5]([H:14])([H:15])[C@@:6]12[H:16])([H:7])([H:8])[H:9]>>[C:1]([C:2]([C:3](=[C:4]([H:11])[H:13])[H:12])([C:6](=[C:5]([H:14])[H:15])[H:16])[H:10])([H:7])([H:8])[H:9]"
C       -0.98637295      -0.84268906       1.35759440
C       -0.53870447       0.38676250       0.59603749
C        0.93670754       0.77489106       0.65916320
C        1.09240029       1.03901955      -0.74003930
C        0.20117049      -0.92388981      -1.47489613
C       -0.43924988       0.23874921      -0.94507361
H       -0.93179513      -0.67322878       2.43514018
H       -2.01599760      -1.09273291       1.09011821
H       -0.37178606      -1.71073665       1.11689460
H       -1.16387771       1.23949134       0.88758113
H        0.87694388       2.07756101       0.00700675
H        1.71815279       0.39406892       1.30801283
H        1.98566810       1.19562430      -1.33234408
H        0.82142248      -1.59427477      -0.89419579
H       -0.03333058      -1.25177198      -2.47924035
H       -1.15135118       0.74315606      -1.59175952
16
Frame=8 idx=002886 GeodesicLength=0.8115179001172141 rxn_smarts="[C:1]([C@@:2]1([H:10])[C:3]([H:11])([H:12])[C@@:4]2([H:13])[C:5]([H:14])([H:15])[C@@:6]12[H:16])([H:7])([H:8])[H:9]>>[C:1]([C:2]([C:3](=[C:4]([H:11])[H:13])[H:12])([C:6](=[C:5]([H:14])[H:15])[H:16])[H:10])([H:7])([H:8])[H:9]"
C       -0.98031977      -0.83958597       1.36352546
C       -0.54178553       0.38439917       0.58785119
C        0.93222548       0.77956399       0.65363994
C        1.10119924       1.05052296      -0.74051455
C        0.20383827      -0.92191336      -1.47710398
C       -0.45596360       0.22646979      -0.94921525
H       -0.93236035      -0.65338348       2.43858256
H       -2.00471270      -1.10756818       1.09372602
H       -0.35484318      -1.70494262       1.14103632
H       -1.16752238       1.23897342       0.87080823
H        0.88606222       2.09429480       0.02868200
H        1.71030774       0.35571457       1.28063512
H        2.00007817       1.22349725      -1.31925946
H        0.77668135      -1.62372105      -0.88465015
H       -0.01180052      -1.23907439      -2.48931239
H       -1.16108443       0.73675311      -1.59843107
16
Frame=9 idx=002886 GeodesicLength=0.9131001119071543 rxn_smarts="[C:1]([C@@:2]1([H:10])[C:3]([H:11])([H:12])[C@@:4]2([H:13])[C:5]([H:14])([H:15])[C@@:6]12[H:16])([H:7])([H:8])[H:9]>>[C:1]([C:2]([C:3](=[C:4]([H:11])[H:13])[H:12])([C:6](=[C:5]([H:14])[H:15])[H:16])[H:10])([H:7])([H:8])[H:9]"
C       -0.97415210      -0.83637316       1.36949199
C       -0.54466683       0.38170200       0.57939088
C        0.92804243       0.78356807       0.64776628
C        1.11028501       1.06232446      -0.74096618
C        0.20713615      -0.92026822      -1.47900510
C       -0.47307145       0.21308537      -0.95341981
H       -0.93246706      -0.63343869       2.44174822
H       -1.99326745      -1.12202399       1.09817929
H       -0.33823389      -1.69882514       1.16507069
H       -1.17075977       1.23821035       0.85368405
H        0.89584773       2.11047057       0.05200560
H        1.70159759       0.31933687       1.25248213
H        2.01451080       1.25238035      -1.30552133
H        0.72902395      -1.65350074      -0.87668586
H        0.01079929      -1.22619517      -2.49883010
H       -1.17062440       0.72954707      -1.60539074
16
Frame=10 idx=002886 GeodesicLength=1.0146793945836772 rxn_smarts="[C:1]([C@@:2]1([H:10])[C:3]([H:11])([H:12])[C@@:4]2([H:13])[C:5]([H:14])([H:15])[C@@:6]12[H:16])([H:7])([H:8])[H:9]>>[C:1]([C:2]([C:3](=[C:4]([H:11])[H:13])[H:12])([C:6](=[C:5]([H:14])[H:15])[H:16])[H:10])([H:7])([H:8])[H:9]"
C       -0.96781678      -0.83304338       1.37546968
C       -0.54738851       0.37869809       0.57062104
C        0.92408200       0.78701236       0.64156007
C        1.11967107       1.07445431      -0.74136708
C        0.21108341      -0.91904623      -1.48036617
C       -0.49051487       0.19857712      -0.95771062
H       -0.93216291      -0.61334179       2.44460034
H       -1.98157514      -1.13620059       1.10343641
H       -0.32179575      -1.69231030       1.18899506
H       -1.17367977       1.23720389       0.83613145
H        0.90635573       2.12610299       0.07707444
H        1.69222683       0.28501687       1.22376180
H        2.02894240       1.28225605      -1.29103083
H        0.67809177      -1.68349773      -0.87101520
H        0.03436130      -1.21337164      -2.50743936
H       -1.17988079       0.72148999      -1.61272103
16
Frame=11 idx=002886 GeodesicLength=1.116255381998519 rxn_smarts="[C:1]([C@@:2]1([H:10])[C:3]([H:11])([H:12])[C@@:4]2([H:13])[C:5]([H:14])([H:15])[C@@:6]12[H:16])([H:7])([H:8])[H:9]>>[C:1]([C:2]([C:3](=[C:4]([H:11])[H:13])[H:12])([C:6](=[C:5]([H:14])[H:15])[H:16])[H:10])([H:7])([H:8])[H:9]"
C       -0.96126109      -0.82957998       1.38145016
C       -0.54998473       0.37540433       0.56151244
C        0.92027677       0.79001245       0.63501511
C        1.12936830       1.08692336      -0.74170869
C        0.21560760      -0.91834947      -1.48100807
C       -0.50830878       0.18289209      -0.96208420
H       -0.93137151      -0.59307457       2.44712670
H       -1.96959278      -1.15010163       1.10953008
H       -0.30544795      -1.68536299       1.21273628
H       -1.17636252       1.23594326       0.81807799
H        0.91756493       2.14115212       0.10388579
H        1.68228183       0.25268664       1.19452780
H        2.04337603       1.31303953      -1.27571656
H        0.62371622      -1.71349194      -0.86790357
H        0.05894129      -1.20061793      -2.51498256
H       -1.18880360       0.71252471      -1.62045869
16
Frame=12 idx=002886 GeodesicLength=1.2178356822373029 rxn_smarts="[C:1]([C@@:2]1([H:10])[C:3]([H:11])([H:12])[C@@:4]2([H:13])[C:5]([H:14])([H:15])[C@@:6]12[H:16])([H:7])([H:8])[H:9]>>[C:1]([C:2]([C:3](=[C:4]([H:11])[H:13])[H:12])([C:6](=[C:5]([H:14])[H:15])[H:16])[H:10])([H:7])([H:8])[H:9]"
C       -0.95443516      -0.82597450       1.38740810
C       -0.55249242       0.37184006       0.55203981
C        0.91655664       0.79268662       0.62811883
C        1.13939227       1.09971814      -0.74198906
C        0.22057616      -0.91830842      -1.48073814
C       -0.52648627       0.16599555      -0.96653643
H       -0.93000317      -0.57264428       2.44930469
H       -1.95728779      -1.16371594       1.11648619
H       -0.28912508      -1.67796947       1.23617458
H       -1.17888371       1.23441920       0.79946908
H        0.92946573       2.15556075       0.13242452
H        1.67183316       0.22230473       1.16484452
H        2.05781975       1.34460942      -1.25951809
H        0.56586283      -1.74316369      -0.86757331
H        0.08456019      -1.18797276      -2.52127768
H       -1.19735311       0.70261458      -1.62863761
16
Frame=13 idx=002886 GeodesicLength=1.3194340224921477 rxn_smarts="[C:1]([C@@:2]1([H:10])[C:3]([H:11])([H:12])[C@@:4]2([H:13])[C:5]([H:14])([H:15])[C@@:6]12[H:16])([H:7])([H:8])[H:9]>>[C:1]([C:2]([C:3](=[C:4]([H:11])[H:13])[H:12])([C:6](=[C:5]([H:14])[H:15])[H:16])[H:10])([H:7])([H:8])[H:9]"
C       -0.94732183      -0.82222244       1.39331202
C       -0.55495549       0.36802144       0.54218364
C        0.91285607       0.79512812       0.62083402
C        1.14974438       1.11280416      -0.74223434
C        0.22574616      -0.91902829      -1.47944012
C       -0.54514820       0.14788012      -0.97104316
H       -0.92792476      -0.55209055       2.45111945
H       -1.94470318      -1.17695638       1.12433936
H       -0.27285204      -1.67017238       1.25913923
H       -1.18130213       1.23263022       0.78028100
H        0.94203062       2.16923632       0.16260964
H        1.66089902       0.19368424       1.13465469
H        2.07228974       1.37681169      -1.24241576
H        0.50493716      -1.77209143      -0.86985024
H        0.11125676      -1.17539808      -2.52624186
H       -1.20555228       0.69176324      -1.63724756
16
Frame=14 idx=002886 GeodesicLength=1.4210505960405913 rxn_smarts="[C:1]([C@@:2]1([H:10])[C:3]([H:11])([H:12])[C@@:4]2([H:13])[C:5]([H:14])([H:15])[C@@:6]12[H:16])([H:7])([H:8])[H:9]>>[C:1]([C:2]([C:3](=[C:4]([H:11])[H:13])[H:12])([C:6](=[C:5]([H:14])[H:15])[H:16])[H:10])([H:7])([H:8])[H:9]"
C       -0.93987342      -0.81834183       1.39908646
C       -0.55741161       0.36398883       0.53192578
C        0.90910860       0.79748210       0.61318483
C        1.16050611       1.12611810      -0.74241187
C        0.23091718      -0.92067246      -1.47685403
C       -0.56429838       0.12858670      -0.97561946
H       -0.92512131      -0.53147332       2.45250383
H       -1.93178975      -1.18987470       1.13301879
H       -0.25653076      -1.66195543       1.28146517
H       -1.18369261       1.23058454       0.76048066
H        0.95529082       2.18212131       0.19443208
H        1.64956580       0.16702066       1.10422114
H        2.08684145       1.40949160      -1.22432486
H        0.44118942      -1.79980582      -0.87532328
H        0.13863367      -1.16327164      -2.52945042
H       -1.21333521       0.68000138      -1.64633481
16
Frame=15 idx=002886 GeodesicLength=1.5227058889268534 rxn_smarts="[C:1]([C@@:2]1([H:10])[C:3]([H:11])([H:12])[C@@:4]2([H:13])[C:5]([H:14])([H:15])[C@@:6]12[H:16])([H:7])([H:8])[H:9]>>[C:1]([C:2]([C:3](=[C:4]([H:11])[H:13])[H:12])([C:6](=[C:5]([H:14])[H:15])[H:16])[H:10])([H:7])([H:8])[H:9]"
C       -0.93209097      -0.81434428       1.40465010
C       -0.55990270       0.35977905       0.52125442
C        0.90525271       0.79984687       0.60515156
C        1.17172440       1.13957882      -0.74253412
C        0.23577171      -0.92333476      -1.47287747
C       -0.58402725       0.10817879      -0.98025108
H       -0.92154462      -0.51086956       2.45340311
H       -1.91858673      -1.20242298       1.14246039
H       -0.24017939      -1.65336724       1.30295680
H       -1.18609802       1.22830473       0.74007729
H        0.96925868       2.19412094       0.22781969
H        1.63784347       0.14226727       1.07362584
H        2.10151395       1.44247076      -1.20522258
H        0.37546689      -1.82580960      -0.88392146
H        0.16632203      -1.15180676      -2.53071727
H       -1.22072416       0.66740797      -1.65587521
16
Frame=16 idx=002886 GeodesicLength=1.624410487562459 rxn_smarts="[C:1]([C@@:2]1([H:10])[C:3]([H:11])([H:12])[C@@:4]2([H:13])[C:5]([H:14])([H:15])[C@@:6]12[H:16])([H:7])([H:8])[H:9]>>[C:1]([C:2]([C:3](=[C:4]([H:11])[H:13])[H:12])([C:6](=[C:5]([H:14])[H:15])[H:16])[H:10])([H:7])([H:8])[H:9]"
C       -0.92401326      -0.81023280       1.40990914
C       -0.56246879       0.35543283       0.51015960
C        0.90123994       0.80227933       0.59669982
C        1.18343661       1.15310410      -0.74262614
C        0.23996366      -0.92705169      -1.46751099
C       -0.60444782       0.08674045      -0.98491268
H       -0.91719831      -0.49034844       2.45375454
H       -1.90516796      -1.21452686       1.15257562
H       -0.22385887      -1.64446455       1.32343858
H       -1.18853253       1.22583408       0.71910064
H        0.98397521       2.20511723       0.26272665
H        1.62571674       0.11932171       1.04289943
H        2.11632413       1.47559558      -1.18509846
H        0.30899510      -1.84965719      -0.89535594
H        0.19381740      -1.14124085      -2.52995387
H       -1.22778125       0.65409708      -1.66580593
