16
Frame=0 idx=000036 GeodesicLength=0.0 rxn_smarts="[O:1]([C:2]1([H:8])[C:3]([H:9])([H:10])[C:4]([H:11])([H:12])[C:5]([H:13])([H:14])[C:6]1([H:15])[H:16])[H:7]>>[O:1]([C@:2]1([H:8])[C:3]([H:9])([H:10])[C@@:4]1([C:5]([C:6]([H:12])([H:15])[H:16])([H:13])[H:14])[H:11])[H:7]"
O       -2.39445037      -0.12813983      -0.25890279
C       -1.09995862      -0.07020886      -0.58456793
C       -0.20522676      -1.23890071      -0.39071106
C        0.99070919      -0.80163754       0.40181182
C        1.36876770       0.59934539      -0.00454694
C        0.12063736       1.27760800       0.57791636
H       -2.52172466      -0.77395611       0.44341985
H       -0.94708953       0.56963646      -1.44743182
H       -0.72223324      -2.10472764       0.03792624
H        0.06100243      -1.50423584      -1.42995913
H        1.77600825      -1.54461311       0.54863430
H       -0.16623010       0.21461106       1.13314701
H        2.28520222       0.93449198       0.48405906
H        1.49612819       0.78374630      -1.08342318
H        0.38720162       1.73412231       1.53822701
H       -0.42874370       2.05285816       0.03440120
16
Frame=1 idx=000036 GeodesicLength=0.10116672065246327 rxn_smarts="[O:1]([C:2]1([H:8])[C:3]([H:9])([H:10])[C:4]([H:11])([H:12])[C:5]([H:13])([H:14])[C:6]1([H:15])[H:16])[H:7]>>[O:1]([C@:2]1([H:8])[C:3]([H:9])([H:10])[C@@:4]1([C:5]([C:6]([H:12])([H:15])[H:16])([H:13])[H:14])[H:11])[H:7]"
O       -2.37851217      -0.09312746      -0.24430371
C       -1.08354765      -0.07115099      -0.58666421
C       -0.21375442      -1.25598696      -0.38857189
C        0.98710434      -0.79633635       0.37818762
C        1.36628353       0.61153090      -0.00184198
C        0.11742228       1.27950587       0.58876651
H       -2.54092056      -0.78425943       0.40463904
H       -0.94066874       0.54008610      -1.47260548
H       -0.73431684      -2.10191930       0.07226163
H        0.04388410      -1.54642892      -1.42220084
H        1.78337738      -1.53168365       0.50348323
H       -0.14531833       0.19629019       1.16268692
H        2.28036439       0.93685646       0.49772022
H        1.50086826       0.81092717      -1.07619375
H        0.38023458       1.74773597       1.54395799
H       -0.42250014       2.05796041       0.04067870
16
Frame=2 idx=000036 GeodesicLength=0.20230857219848375 rxn_smarts="[O:1]([C:2]1([H:8])[C:3]([H:9])([H:10])[C:4]([H:11])([H:12])[C:5]([H:13])([H:14])[C:6]1([H:15])[H:16])[H:7]>>[O:1]([C@:2]1([H:8])[C:3]([H:9])([H:10])[C@@:4]1([C:5]([C:6]([H:12])([H:15])[H:16])([H:13])[H:14])[H:11])[H:7]"
O       -2.36110114      -0.05987207      -0.22909690
C       -1.06684389      -0.07241284      -0.58860794
C       -0.22244455      -1.27307716      -0.38521313
C        0.98361266      -0.79049097       0.35379189
C        1.36391826       0.62397115       0.00065821
C        0.11448322       1.28129407       0.59994574
H       -2.56219290      -0.79227526       0.36001779
H       -0.93564545       0.50912746      -1.49695585
H       -0.74550607      -2.09764547       0.10851258
H        0.02556851      -1.58943575      -1.41249791
H        1.79036915      -1.51796981       0.45687561
H       -0.12198100       0.17728025       1.19231640
H        2.27576631       0.93895415       0.51084433
H        1.50515886       0.83901228      -1.06884152
H        0.37329973       1.76055233       1.55025632
H       -0.41646169       2.06298763       0.04799435
16
Frame=3 idx=000036 GeodesicLength=0.30338872383340854 rxn_smarts="[O:1]([C:2]1([H:8])[C:3]([H:9])([H:10])[C:4]([H:11])([H:12])[C:5]([H:13])([H:14])[C:6]1([H:15])[H:16])[H:7]>>[O:1]([C@:2]1([H:8])[C:3]([H:9])([H:10])[C@@:4]1([C:5]([C:6]([H:12])([H:15])[H:16])([H:13])[H:14])[H:11])[H:7]"
O       -2.34235782      -0.02891268      -0.21348791
C       -1.04985402      -0.07405517      -0.59054930
C       -0.23123425      -1.29014688      -0.38062606
C        0.98012210      -0.78412562       0.32868467
C        1.36160112       0.63661904       0.00300707
C        0.11171656       1.28288559       0.61143875
H       -2.58482748      -0.79702056       0.30996659
H       -0.93211694       0.47670939      -1.52050840
H       -0.75577242      -2.09180178       0.14647335
H        0.00626532      -1.63317034      -1.40072466
H        1.79684852      -1.50348109       0.40870749
H       -0.09611813       0.15749795       1.22193098
H        2.27131643       0.94074291       0.52349036
H        1.50896532       0.86794863      -1.06128219
H        0.36624244       1.77248602       1.55714421
H       -0.41079675       2.06782458       0.05633504
16
Frame=4 idx=000036 GeodesicLength=0.40441871037897875 rxn_smarts="[O:1]([C:2]1([H:8])[C:3]([H:9])([H:10])[C:4]([H:11])([H:12])[C:5]([H:13])([H:14])[C:6]1([H:15])[H:16])[H:7]>>[O:1]([C@:2]1([H:8])[C:3]([H:9])([H:10])[C@@:4]1([C:5]([C:6]([H:12])([H:15])[H:16])([H:13])[H:14])[H:11])[H:7]"
O       -2.32256676      -0.00066239      -0.19769497
C       -1.03263810      -0.07610235      -0.59267610
C       -0.24004580      -1.30715607      -0.37486056
C        0.97652589      -0.77729810       0.30297474
C        1.35930156       0.64940926       0.00525789
C        0.10898539       1.28420672       0.62318708
H       -2.60802032      -0.79766423       0.25525699
H       -0.93018741       0.44285010      -1.54333920
H       -0.76510771      -2.08436585       0.18580234
H       -0.01371626      -1.67746849      -1.38683483
H        1.80268461      -1.48828633       0.35903452
H       -0.06769989       0.13686306       1.25140516
H        2.26697896       0.94214776       0.53573655
H        1.51234721       0.89766495      -1.05344857
H        0.35884574       1.78346287       1.56460635
H       -0.40568709       2.07239909       0.06559261
16
Frame=5 idx=000036 GeodesicLength=0.5052846468671887 rxn_smarts="[O:1]([C:2]1([H:8])[C:3]([H:9])([H:10])[C:4]([H:11])([H:12])[C:5]([H:13])([H:14])[C:6]1([H:15])[H:16])[H:7]>>[O:1]([C@:2]1([H:8])[C:3]([H:9])([H:10])[C@@:4]1([C:5]([C:6]([H:12])([H:15])[H:16])([H:13])[H:14])[H:11])[H:7]"
O       -2.30184960       0.02457111      -0.18181355
C       -1.01525430      -0.07858339      -0.59511876
C       -0.24885083      -1.32393341      -0.36798668
C        0.97263861      -0.76995294       0.27681200
C        1.35691464       0.66224609       0.00747614
C        0.10626408       1.28514845       0.63511091
H       -2.63086264      -0.79379898       0.19633291
H       -0.93004054       0.40748497      -1.56540676
H       -0.77345341      -2.07518948       0.22608192
H       -0.03421535      -1.72203231      -1.37077285
H        1.80755661      -1.47228749       0.30810361
H       -0.03660110       0.11540422       1.28055416
H        2.26263463       0.94308794       0.54763826
H        1.51519518       0.92794264      -1.04522107
H        0.35108602       1.79338815       1.57256366
H       -0.40116199       2.07650442       0.07564610
16
Frame=6 idx=000036 GeodesicLength=0.6061187676710557 rxn_smarts="[O:1]([C:2]1([H:8])[C:3]([H:9])([H:10])[C:4]([H:11])([H:12])[C:5]([H:13])([H:14])[C:6]1([H:15])[H:16])[H:7]>>[O:1]([C@:2]1([H:8])[C:3]([H:9])([H:10])[C@@:4]1([C:5]([C:6]([H:12])([H:15])[H:16])([H:13])[H:14])[H:11])[H:7]"
O       -2.28060310       0.04672598      -0.16697423
C       -0.99769018      -0.08157026      -0.59847271
C       -0.25751299      -1.34054151      -0.36037566
C        0.96827619      -0.76227571       0.25034514
C        1.35433232       0.67503437       0.00982909
C        0.10314300       1.28559643       0.64705397
H       -2.65193365      -0.78400084       0.13684683
H       -0.93126094       0.37059787      -1.58718879
H       -0.78091657      -2.06457297       0.26641735
H       -0.05450969      -1.76674581      -1.35283621
H        1.81132807      -1.45564987       0.25590518
H       -0.00317310       0.09294829       1.30910170
H        2.25803650       0.94350059       0.55956421
H        1.51775909       0.95871713      -1.03639658
H        0.34223657       1.80213439       1.58098010
H       -0.39751152       2.08010190       0.08620062
16
Frame=7 idx=000036 GeodesicLength=0.7069323300715277 rxn_smarts="[O:1]([C:2]1([H:8])[C:3]([H:9])([H:10])[C:4]([H:11])([H:12])[C:5]([H:13])([H:14])[C:6]1([H:15])[H:16])[H:7]>>[O:1]([C@:2]1([H:8])[C:3]([H:9])([H:10])[C@@:4]1([C:5]([C:6]([H:12])([H:15])[H:16])([H:13])[H:14])[H:11])[H:7]"
O       -2.25903785       0.06613573      -0.15365643
C       -0.98000282      -0.08503999      -0.60299001
C       -0.26599324      -1.35682993      -0.35222399
C        0.96328134      -0.75428977       0.22380285
C        1.35148088       0.68766531       0.01240320
C        0.09951228       1.28549767       0.65888394
H       -2.67055976      -0.76844332       0.07845399
H       -0.93369247       0.33218810      -1.60880707
H       -0.78752368      -2.05259044       0.30622254
H       -0.07424524      -1.81130837      -1.33315456
H        1.81376253      -1.43835997       0.20267663
H        0.03248175       0.06954429       1.33683303
H        2.25306463       0.94330446       0.57163330
H        1.52008704       0.98975253      -1.02685293
H        0.33209830       1.80963881       1.58975617
H       -0.39471368       2.08313491       0.09701934
16
Frame=8 idx=000036 GeodesicLength=0.8077740367215234 rxn_smarts="[O:1]([C:2]1([H:8])[C:3]([H:9])([H:10])[C:4]([H:11])([H:12])[C:5]([H:13])([H:14])[C:6]1([H:15])[H:16])[H:7]>>[O:1]([C@:2]1([H:8])[C:3]([H:9])([H:10])[C@@:4]1([C:5]([C:6]([H:12])([H:15])[H:16])([H:13])[H:14])[H:11])[H:7]"
O       -2.23733989       0.08323874      -0.14202817
C       -0.96227789      -0.08892496      -0.60875457
C       -0.27426782      -1.37264472      -0.34363825
C        0.95757181      -0.74602546       0.19744371
C        1.34834279       0.70004996       0.01522312
C        0.09535178       1.28486916       0.67051053
H       -2.68658271      -0.74778990       0.02188995
H       -0.93725321       0.29232441      -1.63023092
H       -0.79330954      -2.03933521       0.34511636
H       -0.09314037      -1.85543114      -1.31180825
H        1.81470320      -1.42043493       0.14866987
H        0.07031926       0.04529705       1.36361045
H        2.24770660       0.94245482       0.58381643
H        1.52222008       1.02080130      -1.01656917
H        0.32063328       1.81591093       1.59881376
H       -0.39267736       2.08563997       0.10793514
16
Frame=9 idx=000036 GeodesicLength=0.9086530403494203 rxn_smarts="[O:1]([C:2]1([H:8])[C:3]([H:9])([H:10])[C:4]([H:11])([H:12])[C:5]([H:13])([H:14])[C:6]1([H:15])[H:16])[H:7]>>[O:1]([C@:2]1([H:8])[C:3]([H:9])([H:10])[C@@:4]1([C:5]([C:6]([H:12])([H:15])[H:16])([H:13])[H:14])[H:11])[H:7]"
O       -2.21566338       0.09853692      -0.13242172
C       -0.94457428      -0.09317263      -0.61590124
C       -0.28230944      -1.38786098      -0.33477754
C        0.95108412      -0.73753995       0.17153345
C        1.34488982       0.71210070       0.01832944
C        0.09060399       1.28372015       0.68183104
H       -2.69984706      -0.72262995      -0.03168843
H       -0.94175135       0.25108695      -1.65148314
H       -0.79836382      -2.02495200       0.38267944
H       -0.11087246      -1.89883791      -1.28895503
H        1.81401957      -1.40189943       0.09412259
H        0.11022513       0.02028698       1.38928228
H        2.24191989       0.94093070       0.59612684
H        1.52421830       1.05163135      -1.00550902
H        0.30773818       1.82094003       1.60806869
H       -0.39131721       2.08765906       0.11876234
16
Frame=10 idx=000036 GeodesicLength=1.0095974902268252 rxn_smarts="[O:1]([C:2]1([H:8])[C:3]([H:9])([H:10])[C:4]([H:11])([H:12])[C:5]([H:13])([H:14])[C:6]1([H:15])[H:16])[H:7]>>[O:1]([C@:2]1([H:8])[C:3]([H:9])([H:10])[C@@:4]1([C:5]([C:6]([H:12])([H:15])[H:16])([H:13])[H:14])[H:11])[H:7]"
O       -2.19410974       0.11240168      -0.12470225
C       -0.92697416      -0.09770497      -0.62433827
C       -0.29011918      -1.40235232      -0.32565784
C        0.94383524      -0.72886633       0.14631786
C        1.34113575       0.72376619       0.02168696
C        0.08533602       1.28210241       0.69282561
H       -2.71063253      -0.69380989      -0.08260174
H       -0.94718069       0.20858503      -1.67236972
H       -0.80276107      -2.00949795       0.41881178
H       -0.12729707      -1.94130721      -1.26462678
H        1.81164824      -1.38276434       0.03926795
H        0.15224388      -0.00536846       1.41378819
H        2.23577461       0.93876801       0.60839547
H        1.52605856       1.08202374      -0.99375278
H        0.29355182       1.82476105       1.61749135
H       -0.39050967       2.08926335       0.12946421
16
Frame=11 idx=000036 GeodesicLength=1.1106136219510012 rxn_smarts="[O:1]([C:2]1([H:8])[C:3]([H:9])([H:10])[C:4]([H:11])([H:12])[C:5]([H:13])([H:14])[C:6]1([H:15])[H:16])[H:7]>>[O:1]([C@:2]1([H:8])[C:3]([H:9])([H:10])[C@@:4]1([C:5]([C:6]([H:12])([H:15])[H:16])([H:13])[H:14])[H:11])[H:7]"
O       -2.17275766       0.12516523      -0.11885112
C       -0.90953162      -0.10246827      -0.63401899
C       -0.29769818      -1.41603356      -0.31633201
C        0.93585592      -0.72005734       0.12201090
C        1.33708116       0.73500578       0.02527353
C        0.07957749       1.28005036       0.70346863
H       -2.71912624      -0.66195950      -0.13087409
H       -0.95346778       0.16493072      -1.69274111
H       -0.80661184      -1.99305081       0.45339841
H       -0.14226650      -1.98265916      -1.23890018
H        1.80754205      -1.36305103      -0.01566255
H        0.19638261      -0.03159725       1.43704163
H        2.22931413       0.93602894       0.62049805
H        1.52772310       1.11180352      -0.98136513
H        0.27814884       1.82738166       1.62705313
H       -0.39016548       2.09051070       0.14000091
16
Frame=12 idx=000036 GeodesicLength=1.2117094532195842 rxn_smarts="[O:1]([C:2]1([H:8])[C:3]([H:9])([H:10])[C:4]([H:11])([H:12])[C:5]([H:13])([H:14])[C:6]1([H:15])[H:16])[H:7]>>[O:1]([C@:2]1([H:8])[C:3]([H:9])([H:10])[C@@:4]1([C:5]([C:6]([H:12])([H:15])[H:16])([H:13])[H:14])[H:11])[H:7]"
O       -2.15166276       0.13707647      -0.11478069
C       -0.89228987      -0.10742075      -0.64486034
C       -0.30505928      -1.42884739      -0.30682853
C        0.92720266      -0.71116476       0.09878184
C        1.33272891       0.74579849       0.02905487
C        0.07336891       1.27759448       0.71375789
H       -2.72555187      -0.62760905      -0.17679310
H       -0.96055703       0.12023978      -1.71241666
H       -0.81002925      -1.97566030       0.48641670
H       -0.15569609      -2.02276656      -1.21182786
H        1.80168160      -1.34277946      -0.07044940
H        0.24268074      -0.05835385       1.45895893
H        2.22259460       0.93280447       0.63229488
H        1.52917174       1.14083579      -0.96843224
H        0.26163107       1.82880239       1.63674627
H       -0.39021407       2.09145026       0.15037745
16
Frame=13 idx=000036 GeodesicLength=1.3128883764022143 rxn_smarts="[O:1]([C:2]1([H:8])[C:3]([H:9])([H:10])[C:4]([H:11])([H:12])[C:5]([H:13])([H:14])[C:6]1([H:15])[H:16])[H:7]>>[O:1]([C@:2]1([H:8])[C:3]([H:9])([H:10])[C@@:4]1([C:5]([C:6]([H:12])([H:15])[H:16])([H:13])[H:14])[H:11])[H:7]"
O       -2.13086514       0.14833627      -0.11241301
C       -0.87527645      -0.11253557      -0.65677858
C       -0.31222247      -1.44076374      -0.29717473
C        0.91794303      -0.70224243       0.07675219
C        1.32807796       0.75613593       0.03299797
C        0.06673984       1.27475748       0.72369676
H       -2.73010138      -0.59117005      -0.22064998
H       -0.96837557       0.07463181      -1.73121926
H       -0.81312917      -1.95736208       0.51787785
H       -0.16753735      -2.06154389      -1.18345623
H        1.79406459      -1.32197762      -0.12487606
H        0.29118246      -0.08562546       1.47943402
H        2.21566636       0.92920055       0.64366307
H        1.53035839       1.16902452      -0.95503753
H        0.24408317       1.82901277       1.64656836
H       -0.39060824       2.09212151       0.16061516
16
Frame=14 idx=000036 GeodesicLength=1.4141573156789204 rxn_smarts="[O:1]([C:2]1([H:8])[C:3]([H:9])([H:10])[C:4]([H:11])([H:12])[C:5]([H:13])([H:14])[C:6]1([H:15])[H:16])[H:7]>>[O:1]([C@:2]1([H:8])[C:3]([H:9])([H:10])[C@@:4]1([C:5]([C:6]([H:12])([H:15])[H:16])([H:13])[H:14])[H:11])[H:7]"
O       -2.11039349       0.15910302      -0.11167578
C       -0.85850938      -0.11780068      -0.66969342
C       -0.31922066      -1.45177894      -0.28740138
C        0.90814503      -0.69334193       0.05599691
C        1.32312435       0.76602280       0.03707164
C        0.05971370       1.27156102       0.73329435
H       -2.73292705      -0.55296797      -0.26272674
H       -0.97683989       0.02823791      -1.74898853
H       -0.81602038      -1.93818941       0.54781899
H       -0.17778213      -2.09894227      -1.15383568
H        1.78470041      -1.30068794      -0.17870609
H        0.34193621      -0.11342703       1.49834027
H        2.20857483       0.92533531       0.65450055
H        1.53123288       1.19631091      -0.94126443
H        0.22558054       1.82800393       1.65652477
H       -0.39131496       2.09256127       0.17074458
16
Frame=15 idx=000036 GeodesicLength=1.515519821279132 rxn_smarts="[O:1]([C:2]1([H:8])[C:3]([H:9])([H:10])[C:4]([H:11])([H:12])[C:5]([H:13])([H:14])[C:6]1([H:15])[H:16])[H:7]>>[O:1]([C@:2]1([H:8])[C:3]([H:9])([H:10])[C@@:4]1([C:5]([C:6]([H:12])([H:15])[H:16])([H:13])[H:14])[H:11])[H:7]"
O       -2.09026762       0.16949947      -0.11249146
C       -0.84199846      -0.12321480      -0.68351779
C       -0.32609122      -1.46190410      -0.27753130
C        0.89787742      -0.68451046       0.03654880
C        1.31786045       0.77546950       0.04124902
C        0.05230489       1.26802187       0.74256037
H       -2.73415698      -0.51324885      -0.30332198
H       -0.98586376      -0.01880290      -1.76556631
H       -0.81879650      -1.91816020       0.57629970
H       -0.18645138      -2.13493343      -1.12299950
H        1.77361789      -1.27896472      -0.23170460
H        0.39500026      -0.14180096       1.51551958
H        2.20135769       0.92132609       0.66472529
H        1.53174166       1.22266220      -0.92718703
H        0.20618462       1.82576465       1.66661637
H       -0.39231898       2.09279665       0.18080083
16
Frame=16 idx=000036 GeodesicLength=1.6169821244893996 rxn_smarts="[O:1]([C:2]1([H:8])[C:3]([H:9])([H:10])[C:4]([H:11])([H:12])[C:5]([H:13])([H:14])[C:6]1([H:15])[H:16])[H:7]>>[O:1]([C@:2]1([H:8])[C:3]([H:9])([H:10])[C@@:4]1([C:5]([C:6]([H:12])([H:15])[H:16])([H:13])[H:14])[H:11])[H:7]"
O       -2.07050341       0.17961622      -0.11477773
C       -0.82575080      -0.12878718      -0.69816187
C       -0.33287740      -1.47116604      -0.26758358
C        0.88720373      -0.67579016       0.01840584
C        1.31227644       0.78449209       0.04551064
C        0.04452018       1.26415788       0.75150423
H       -2.73389272      -0.47219585      -0.34272679
H       -0.99536374      -0.06633938      -1.78080792
H       -0.82153327      -1.89729198       0.60339215
H       -0.19359176      -2.16950576      -1.09097385
H        1.76086574      -1.25687836      -0.28363043
H        0.45044002      -0.17081430       1.53078328
H        2.19404502       0.91728840       0.67428229
H        1.53183349       1.24806876      -0.91286953
H        0.18594533       1.82229389       1.67683849
H       -0.39361685       2.09285177       0.19081480
