15
Frame=0 idx=008455 GeodesicLength=0.0 rxn_smarts="[C:1]1([H:8])([H:9])[C@@:2]2([H:10])[C@@:3]3([H:11])[O:4][C:5]([H:12])([H:13])[C@:6]1([H:14])[C@@:7]23[H:15]>>[C:1]1([H:8])([H:9])[C@@:2]2([H:10])[C@:6]1([H:14])[C@:7]2([C:3](=[O+:4][C-:5]([H:12])[H:13])[H:11])[H:15]"
C        1.01476453       1.07141544       0.37290124
C        1.40943110       0.15149484      -0.73800351
C        0.05060328      -1.51845330       0.44726392
O       -0.90767736      -1.00954287       1.21834238
C       -1.73361193      -0.12733852       0.64074899
C       -0.16398789       0.68761936      -0.46368724
C        0.26090256      -0.74488936      -0.79279512
H        1.03505370       0.72335844       1.40364378
H        1.35794050       2.09893847       0.28007659
H        2.07424107       0.41129989      -1.55298432
H        0.86489375      -1.93091063       1.03108810
H       -2.34295947       0.38178905       1.38029916
H       -2.25427873      -0.44781211      -0.25450850
H       -0.54285833       1.35683175      -1.22426321
H       -0.12245673      -1.10380045      -1.74812226
15
Frame=1 idx=008455 GeodesicLength=0.05680231347194184 rxn_smarts="[C:1]1([H:8])([H:9])[C@@:2]2([H:10])[C@@:3]3([H:11])[O:4][C:5]([H:12])([H:13])[C@:6]1([H:14])[C@@:7]23[H:15]>>[C:1]1([H:8])([H:9])[C@@:2]2([H:10])[C@:6]1([H:14])[C@:7]2([C:3](=[O+:4][C-:5]([H:12])[H:13])[H:11])[H:15]"
C        1.00801791       1.08072671       0.37029994
C        1.40958468       0.14003501      -0.71995765
C        0.06430994      -1.50642889       0.44044678
O       -0.90690653      -1.02215093       1.21298354
C       -1.73377840      -0.13118333       0.64640811
C       -0.16926765       0.69455179      -0.46827329
C        0.24803443      -0.73727816      -0.80417220
H        1.02648173       0.74908023       1.40645399
H        1.35955936       2.10390080       0.26177069
H        2.10022059       0.37719736      -1.52009440
H        0.87274262      -1.94198086       1.01391684
H       -2.33772966       0.37316919       1.39352092
H       -2.26229190      -0.44347068      -0.24735547
H       -0.55060623       1.36514144      -1.22656860
H       -0.12837091      -1.10130966      -1.75937920
15
Frame=2 idx=008455 GeodesicLength=0.11368223810127562 rxn_smarts="[C:1]1([H:8])([H:9])[C@@:2]2([H:10])[C@@:3]3([H:11])[O:4][C:5]([H:12])([H:13])[C@:6]1([H:14])[C@@:7]23[H:15]>>[C:1]1([H:8])([H:9])[C@@:2]2([H:10])[C@:6]1([H:14])[C@:7]2([C:3](=[O+:4][C-:5]([H:12])[H:13])[H:11])[H:15]"
C        1.00159311       1.09032745       0.36736767
C        1.40937825       0.12902397      -0.70188095
C        0.07784961      -1.49413889       0.43382042
O       -0.90597493      -1.03466082       1.20741770
C       -1.73382005      -0.13508025       0.65199034
C       -0.17449671       0.70159320      -0.47279348
C        0.23591694      -0.72948689      -0.81496481
H        1.01815925       0.77535392       1.40873874
H        1.36152950       2.10879445       0.24296649
H        2.12506725       0.34297640      -1.48624152
H        0.87956138      -1.95432585       0.99578706
H       -2.33240423       0.36434849       1.40659765
H       -2.27003609      -0.43917581      -0.24022449
H       -0.55885033       1.37341639      -1.22864757
H       -0.13347296      -1.09896576      -1.76993324
15
Frame=3 idx=008455 GeodesicLength=0.17061008019093413 rxn_smarts="[C:1]1([H:8])([H:9])[C@@:2]2([H:10])[C@@:3]3([H:11])[O:4][C:5]([H:12])([H:13])[C@:6]1([H:14])[C@@:7]23[H:15]>>[C:1]1([H:8])([H:9])[C@@:2]2([H:10])[C@:6]1([H:14])[C@:7]2([C:3](=[O+:4][C-:5]([H:12])[H:13])[H:11])[H:15]"
C        0.99551464       1.10017965       0.36411726
C        1.40885808       0.11848416      -0.68379530
C        0.09122280      -1.48160447       0.42746805
O       -0.90489077      -1.04703729       1.20167984
C       -1.73373927      -0.13902718       0.65747654
C       -0.17965475       0.70871392      -0.47723272
C        0.22456757      -0.72155634      -0.82514653
H        1.01014990       0.80212879       1.41049237
H        1.36383270       2.11358136       0.22370874
H        2.14868725       0.30880969      -1.45150731
H        0.88528408      -1.96789615       0.97663991
H       -2.32699978       0.35536713       1.41946782
H       -2.27749204      -0.43496203      -0.23313843
H       -0.56756438       1.38161705      -1.23048842
H       -0.13777603      -1.09679830      -1.77974181
15
Frame=4 idx=008455 GeodesicLength=0.22761816282013497 rxn_smarts="[C:1]1([H:8])([H:9])[C@@:2]2([H:10])[C@@:3]3([H:11])[O:4][C:5]([H:12])([H:13])[C@:6]1([H:14])[C@@:7]23[H:15]>>[C:1]1([H:8])([H:9])[C@@:2]2([H:10])[C@:6]1([H:14])[C@:7]2([C:3](=[O+:4][C-:5]([H:12])[H:13])[H:11])[H:15]"
C        0.98978254       1.11028113       0.36054977
C        1.40807147       0.10843648      -0.66571050
C        0.10443793      -1.46886099       0.42144041
O       -0.90366328      -1.05927946       1.19579620
C       -1.73354032      -0.14301811       0.66288252
C       -0.18473747       0.71590083      -0.48159138
C        0.21398735      -0.71352112      -0.83471887
H        1.00246046       0.82941235       1.41171052
H        1.36644048       2.11826543       0.20400014
H        2.17113514       0.27473682      -1.41588870
H        0.88985787      -1.98264033       0.95635748
H       -2.32153389       0.34622647       1.43215060
H       -2.28466776      -0.43084279      -0.22607943
H       -0.57673344       1.38972360      -1.23209780
H       -0.14129709      -1.09482031      -1.78880094
15
Frame=5 idx=008455 GeodesicLength=0.28466910755734826 rxn_smarts="[C:1]1([H:8])([H:9])[C@@:2]2([H:10])[C@@:3]3([H:11])[O:4][C:5]([H:12])([H:13])[C@:6]1([H:14])[C@@:7]23[H:15]>>[C:1]1([H:8])([H:9])[C@@:2]2([H:10])[C@:6]1([H:14])[C@:7]2([C:3](=[O+:4][C-:5]([H:12])[H:13])[H:11])[H:15]"
C        0.98442283       1.12058915       0.35668107
C        1.40707224       0.09888394      -0.64764025
C        0.11750202      -1.45593368       0.41581287
O       -0.90231019      -1.07136962       1.18979312
C       -1.73322930      -0.14705419       0.66819358
C       -0.18972029       0.72312418      -0.48585264
C        0.20418366      -0.70542089      -0.84365864
H        0.99514035       0.85715408       1.41239416
H        1.36934607       2.12280782       0.18388666
H        2.19233070       0.24092604      -1.37949826
H        0.89321437      -1.99844979       0.93489538
H       -2.31603499       0.33694516       1.44459802
H       -2.29154999      -0.42684544      -0.21906741
H       -0.58631245       1.39769795      -1.23346449
H       -0.14405504      -1.09305470      -1.79707316
15
Frame=6 idx=008455 GeodesicLength=0.3417931759525007 rxn_smarts="[C:1]1([H:8])([H:9])[C@@:2]2([H:10])[C@@:3]3([H:11])[O:4][C:5]([H:12])([H:13])[C@:6]1([H:14])[C@@:7]23[H:15]>>[C:1]1([H:8])([H:9])[C@@:2]2([H:10])[C@:6]1([H:14])[C@:7]2([C:3](=[O+:4][C-:5]([H:12])[H:13])[H:11])[H:15]"
C        0.97942690       1.13109403       0.35251460
C        1.40589618       0.08983346      -0.62958113
C        0.13042917      -1.44286430       0.41061642
O       -0.90083407      -1.08332039       1.18368025
C       -1.73280349      -0.15113338       0.67342358
C       -0.19460525       0.73036473      -0.49001976
C        0.19514246      -0.69729153      -0.85197746
H        0.98819040       0.88535949       1.41253916
H        1.37252272       2.12719912       0.16337058
H        2.21234101       0.20740807      -1.34229678
H        0.89530645      -2.01520469       0.91214461
H       -2.31048728       0.32753008       1.45683737
H       -2.29815140      -0.42297645      -0.21208762
H       -0.59629041       1.40551454      -1.23459400
H       -0.14608339      -1.09151278      -1.80456982
15
Frame=7 idx=008455 GeodesicLength=0.39893198722700446 rxn_smarts="[C:1]1([H:8])([H:9])[C@@:2]2([H:10])[C@@:3]3([H:11])[O:4][C:5]([H:12])([H:13])[C@:6]1([H:14])[C@@:7]23[H:15]>>[C:1]1([H:8])([H:9])[C@@:2]2([H:10])[C@:6]1([H:14])[C@:7]2([C:3](=[O+:4][C-:5]([H:12])[H:13])[H:11])[H:15]"
C        0.97481479       1.14174142       0.34806689
C        1.40459340       0.08127371      -0.61154067
C        0.14322139      -1.42968666       0.40591604
O       -0.89926006      -1.09513137       1.17747812
C       -1.73226838      -0.15526287       0.67856195
C       -0.19936360       0.73759077      -0.49407982
C        0.18686260      -0.68916859      -0.85965447
H        0.98164606       0.91396347       1.41214845
H        1.37596530       2.13138931       0.14249508
H        2.23109884       0.17436162      -1.30441929
H        0.89606270      -2.03273568       0.88809202
H       -2.30491201       0.31798836       1.46883277
H       -2.30445731      -0.41925642      -0.20515596
H       -0.60660100       1.41313974      -1.23548228
H       -0.14740273      -1.09020680      -1.81125882
15
Frame=8 idx=008455 GeodesicLength=0.4560758944608985 rxn_smarts="[C:1]1([H:8])([H:9])[C@@:2]2([H:10])[C@@:3]3([H:11])[O:4][C:5]([H:12])([H:13])[C@:6]1([H:14])[C@@:7]23[H:15]>>[C:1]1([H:8])([H:9])[C@@:2]2([H:10])[C@:6]1([H:14])[C@:7]2([C:3](=[O+:4][C-:5]([H:12])[H:13])[H:11])[H:15]"
C        0.97060454       1.15246461       0.34337449
C        1.40320485       0.07317165      -0.59353765
C        0.15588753      -1.41646537       0.40172994
O       -0.89760758      -1.10681185       1.17118403
C       -1.73164682      -0.15944284       0.68359534
C       -0.20398622       0.74477598      -0.49801167
C        0.17932828      -0.68109993      -0.86670467
H        0.97555666       0.94287960       1.41124351
H        1.37966557       2.13532474       0.12134998
H        2.24857799       0.14186892      -1.26600486
H        0.89551570      -2.05071724       0.86278407
H       -2.29935291       0.30833874       1.48056326
H       -2.31048425      -0.41569034      -0.19830343
H       -0.61720716       1.42055921      -1.23610636
H       -0.14805616      -1.08915589      -1.81715597
15
Frame=9 idx=008455 GeodesicLength=0.5132289564972452 rxn_smarts="[C:1]1([H:8])([H:9])[C@@:2]2([H:10])[C@@:3]3([H:11])[O:4][C:5]([H:12])([H:13])[C@:6]1([H:14])[C@@:7]23[H:15]>>[C:1]1([H:8])([H:9])[C@@:2]2([H:10])[C@:6]1([H:14])[C@:7]2([C:3](=[O+:4][C-:5]([H:12])[H:13])[H:11])[H:15]"
C        0.96679817       1.16324159       0.33844253
C        1.40176498       0.06551543      -0.57555691
C        0.16843023      -1.40324422       0.39807032
O       -0.89588737      -1.11838876       1.16478559
C       -1.73092949      -0.16368352       0.68852930
C       -0.20846327       0.75189510      -0.50181815
C        0.17251033      -0.67311385      -0.87313389
H        0.96992035       0.97210050       1.40981994
H        1.38362459       2.13898345       0.09993817
H        2.26481907       0.11001013      -1.22706628
H        0.89359783      -2.06897711       0.83620411
H       -2.29378156       0.29855621       1.49204731
H       -2.31624312      -0.41228337      -0.19151909
H       -0.62806988       1.42774274      -1.23647154
H       -0.14809085      -1.08835432      -1.82227142
15
Frame=10 idx=008455 GeodesicLength=0.5703470563182149 rxn_smarts="[C:1]1([H:8])([H:9])[C@@:2]2([H:10])[C@@:3]3([H:11])[O:4][C:5]([H:12])([H:13])[C@:6]1([H:14])[C@@:7]23[H:15]>>[C:1]1([H:8])([H:9])[C@@:2]2([H:10])[C@:6]1([H:14])[C@:7]2([C:3](=[O+:4][C-:5]([H:12])[H:13])[H:11])[H:15]"
C        0.96340598       1.17397952       0.33330178
C        1.40029949       0.05825656      -0.55762459
C        0.18082266      -1.39010337       0.39492278
O       -0.89413394      -1.12988422       1.15827370
C       -1.73014232      -0.16799218       0.69335364
C       -0.21278168       0.75892068      -0.50548723
C        0.16637920      -0.66524160      -0.87897380
H        0.96477360       1.00149690       1.40789595
H        1.38783869       2.14228212       0.07833590
H        2.27981320       0.07887875      -1.18776309
H        0.89039455      -2.08711166       0.80851864
H       -2.28823725       0.28863332       1.50327638
H       -2.32175192      -0.40902312      -0.18482593
H       -0.63912968       1.43469208      -1.23655805
H       -0.14755057      -1.08778378      -1.82664606
15
Frame=11 idx=008455 GeodesicLength=0.6274579570883286 rxn_smarts="[C:1]1([H:8])([H:9])[C@@:2]2([H:10])[C@@:3]3([H:11])[O:4][C:5]([H:12])([H:13])[C@:6]1([H:14])[C@@:7]23[H:15]>>[C:1]1([H:8])([H:9])[C@@:2]2([H:10])[C@:6]1([H:14])[C@:7]2([C:3](=[O+:4][C-:5]([H:12])[H:13])[H:11])[H:15]"
C        0.96041996       1.18464135       0.32796834
C        1.39882467       0.05136084      -0.53973360
C        0.19304894      -1.37711514       0.39224719
O       -0.89236206      -1.14133523       1.15161459
C       -1.72929053      -0.17237387       0.69807231
C       -0.21694535       0.76583418      -0.50902046
C        0.16089403      -0.65750898      -0.88426106
H        0.96011186       1.03103311       1.40547568
H        1.39230584       2.14518510       0.05656769
H        2.29361771       0.04849577      -1.14811250
H        0.88595952      -2.10486035       0.77981276
H       -2.28269494       0.27856241       1.51428025
H       -2.32704283      -0.40589145      -0.17821835
H       -0.65036461       1.44140165      -1.23635842
H       -0.14648222      -1.08742939      -1.83033444
15
Frame=12 idx=008455 GeodesicLength=0.6845699114945981 rxn_smarts="[C:1]1([H:8])([H:9])[C@@:2]2([H:10])[C@@:3]3([H:11])[O:4][C:5]([H:12])([H:13])[C@:6]1([H:14])[C@@:7]23[H:15]>>[C:1]1([H:8])([H:9])[C@@:2]2([H:10])[C@:6]1([H:14])[C@:7]2([C:3](=[O+:4][C-:5]([H:12])[H:13])[H:11])[H:15]"
C        0.95782932       1.19516234       0.32245565
C        1.39733263       0.04478976      -0.52190603
C        0.20507245      -1.36435685       0.38996443
O       -0.89059021      -1.15277625       1.14477129
C       -1.72837850      -0.17684457       0.70268523
C       -0.22096232       0.77262244      -0.51241874
C        0.15599902      -0.64991294      -0.88905766
H        0.95593641       1.06062165       1.40256168
H        1.39702321       2.14762392       0.03466875
H        2.30628816       0.01880497      -1.10813420
H        0.88041981      -2.12183328       0.75029447
H       -2.27713996       0.26829856       1.52508379
H       -2.33213587      -0.40286470      -0.17169361
H       -0.66175320       1.44788491      -1.23585410
H       -0.14494095      -1.08721995      -1.83342095
15
Frame=13 idx=008455 GeodesicLength=0.7416672240852092 rxn_smarts="[C:1]1([H:8])([H:9])[C@@:2]2([H:10])[C@@:3]3([H:11])[O:4][C:5]([H:12])([H:13])[C@:6]1([H:14])[C@@:7]23[H:15]>>[C:1]1([H:8])([H:9])[C@@:2]2([H:10])[C@:6]1([H:14])[C@:7]2([C:3](=[O+:4][C-:5]([H:12])[H:13])[H:11])[H:15]"
C        0.95564759       1.20545275       0.31680762
C        1.39583894       0.03847512      -0.50416354
C        0.21684065      -1.35191825       0.38800234
O       -0.88886241      -1.16423297       1.13769713
C       -1.72744140      -0.18140356       0.70716666
C       -0.22482648       0.77926622      -0.51567322
C        0.15164314      -0.64248622      -0.89342029
H        0.95229036       1.09012840       1.39918512
H        1.40201071       2.14952601       0.01274355
H        2.31779253      -0.01008734      -1.06803014
H        0.87399321      -2.13767344       0.72030573
H       -2.27160434       0.25784922       1.53566917
H       -2.33707843      -0.39991560      -0.16528792
H       -0.67324043       1.45416326      -1.23501750
H       -0.14300364      -1.08714361      -1.83598470
15
Frame=14 idx=008455 GeodesicLength=0.798702469355985 rxn_smarts="[C:1]1([H:8])([H:9])[C@@:2]2([H:10])[C@@:3]3([H:11])[O:4][C:5]([H:12])([H:13])[C@:6]1([H:14])[C@@:7]23[H:15]>>[C:1]1([H:8])([H:9])[C@@:2]2([H:10])[C@:6]1([H:14])[C@:7]2([C:3](=[O+:4][C-:5]([H:12])[H:13])[H:11])[H:15]"
C        0.95387520       1.21542233       0.31105372
C        1.39433389       0.03236239      -0.48653501
C        0.22828303      -1.33986561       0.38628034
O       -0.88722382      -1.17572548       1.13035907
C       -1.72650411      -0.18606082       0.71149360
C       -0.22853204       0.78575510      -0.51878154
C        0.14776703      -0.63522591      -0.89740781
H        0.94920786       1.11940114       1.39536313
H        1.40727174       2.15081751      -0.00912917
H        2.32811811      -0.03811622      -1.02797836
H        0.86691628      -2.15206959       0.69022302
H       -2.26610920       0.24719626       1.54601123
H       -2.34189720      -0.39701703      -0.15902492
H       -0.68476244       1.46026562      -1.23383018
H       -0.14074434      -1.08713969      -1.83809713
15
Frame=15 idx=008455 GeodesicLength=0.8557232887109805 rxn_smarts="[C:1]1([H:8])([H:9])[C@@:2]2([H:10])[C@@:3]3([H:11])[O:4][C:5]([H:12])([H:13])[C@:6]1([H:14])[C@@:7]23[H:15]>>[C:1]1([H:8])([H:9])[C@@:2]2([H:10])[C@:6]1([H:14])[C@:7]2([C:3](=[O+:4][C-:5]([H:12])[H:13])[H:11])[H:15]"
C        0.95249485       1.22503245       0.30521308
C        1.39280254       0.02640380      -0.46903610
C        0.23935856      -1.32825190       0.38469908
O       -0.88569852      -1.18727040       1.12270958
C       -1.72558620      -0.19081005       0.71566056
C       -0.23209946       0.79209279      -0.52174484
C        0.14431339      -0.62812644      -0.90109583
H        0.94668513       1.14838583       1.39111059
H        1.41281119       2.15145488      -0.03090950
H        2.33731773      -0.06535239      -0.98802130
H        0.85943927      -2.16482363       0.66032228
H       -2.26066454       0.23632101       1.55613173
H       -2.34663315      -0.39412834      -0.15290750
H       -0.69632027       1.46622868      -1.23226522
H       -0.13822053      -1.08715630      -1.83986661
15
Frame=16 idx=008455 GeodesicLength=0.9127046849263675 rxn_smarts="[C:1]1([H:8])([H:9])[C@@:2]2([H:10])[C@@:3]3([H:11])[O:4][C:5]([H:12])([H:13])[C@:6]1([H:14])[C@@:7]23[H:15]>>[C:1]1([H:8])([H:9])[C@@:2]2([H:10])[C@:6]1([H:14])[C@:7]2([C:3](=[O+:4][C-:5]([H:12])[H:13])[H:11])[H:15]"
C        0.95150373       1.23423803       0.29931378
C        1.39123598       0.02056175      -0.45167918
C        0.25001603      -1.31710874       0.38320114
O       -0.88432067      -1.19887359       1.11473866
C       -1.72471430      -0.19565576       0.71964958
C       -0.23553068       0.79828556      -0.52456386
C        0.14123048      -0.62117750      -0.90453271
H        0.94476094       1.17698773       1.38645316
H        1.41862118       2.15141671      -0.05253722
H        2.34539330      -0.09174659      -0.94832470
H        0.85177213      -2.17584884       0.63090900
H       -2.25529763       0.22522563       1.56600286
H       -2.35131501      -0.39123708      -0.14695645
H       -0.70786808       1.47208944      -1.23031977
H       -0.13548740      -1.08715676      -1.84135429
