15
Frame=0 idx=009012 GeodesicLength=0.0 rxn_smarts="[C:1]([C@@:2]12[O:3][C@@:4]3([H:11])[C:5]([H:12])([H:13])[C@:6]1([H:14])[C@@:7]23[H:15])([H:8])([H:9])[H:10]>>[C:1]([C@:2]1([C:6](=[C:5]([H:12])[H:13])[H:14])[O:3][C:4]([H:11])=[C:7]1[H:15])([H:8])([H:9])[H:10]"
C        2.06793936       0.16624161      -0.20254343
C        0.59152600       0.29432456      -0.11627714
O       -0.05960606       1.29556892      -0.87328921
C       -1.06163081       1.27798436       0.05361504
C       -1.68103237      -1.03065352      -0.44484495
C       -0.36066305      -0.91778145       0.01909995
C       -0.36614058       0.46515935       0.99983566
H        2.56506454       1.07010925       0.15052895
H        2.40308716      -0.67341847       0.40759909
H        2.36326403      -0.02112810      -1.23688491
H       -1.89542666       1.95862781       0.01230609
H       -2.50873527      -0.56173039       0.05258269
H       -1.93820260      -1.85569996      -1.10581979
H        0.23142741      -1.81866924       0.21498074
H       -0.35087107       0.35106528       2.06911121
15
Frame=1 idx=009012 GeodesicLength=0.047725985304415304 rxn_smarts="[C:1]([C@@:2]12[O:3][C@@:4]3([H:11])[C:5]([H:12])([H:13])[C@:6]1([H:14])[C@@:7]23[H:15])([H:8])([H:9])[H:10]>>[C:1]([C@:2]1([C:6](=[C:5]([H:12])[H:13])[H:14])[O:3][C:4]([H:11])=[C:7]1[H:15])([H:8])([H:9])[H:10]"
C        2.06354842       0.16470132      -0.20495059
C        0.58669064       0.28671928      -0.11512096
O       -0.06805979       1.28559062      -0.87595676
C       -1.06679282       1.27120703       0.05840173
C       -1.67372997      -1.02300849      -0.45601904
C       -0.35849080      -0.92656503       0.02721111
C       -0.36051399       0.47132977       1.00875692
H        2.55582377       1.07610513       0.13532477
H        2.40561029      -0.66537708       0.41446137
H        2.35523564      -0.03455504      -1.23808014
H       -1.89067396       1.96478691       0.02516681
H       -2.51287408      -0.57504409       0.04270658
H       -1.92538165      -1.83540975      -1.13468660
H        0.22588988      -1.82901561       0.23366474
H       -0.33628159       0.36853504       2.07912007
15
Frame=2 idx=009012 GeodesicLength=0.09549390326418083 rxn_smarts="[C:1]([C@@:2]12[O:3][C@@:4]3([H:11])[C:5]([H:12])([H:13])[C@:6]1([H:14])[C@@:7]23[H:15])([H:8])([H:9])[H:10]>>[C:1]([C@:2]1([C:6](=[C:5]([H:12])[H:13])[H:14])[O:3][C:4]([H:11])=[C:7]1[H:15])([H:8])([H:9])[H:10]"
C        2.05902743       0.16309073      -0.20738877
C        0.58177866       0.27917249      -0.11376169
O       -0.07652035       1.27587560      -0.87820329
C       -1.07208133       1.26439249       0.06344501
C       -1.66633528      -1.01561812      -0.46679859
C       -0.35646456      -0.93527321       0.03503401
C       -0.35487073       0.47758444       1.01764641
H        2.54647865       1.08171785       0.12018120
H        2.40796828      -0.65742423       0.42092649
H        2.34705280      -0.04784387      -1.23920243
H       -1.88571426       1.97083859       0.03801101
H       -2.51700791      -0.58840013       0.03175394
H       -1.91193769      -1.81520348      -1.16282568
H        0.22001116      -1.83917867       0.25227397
H       -0.32138487       0.38626951       2.08890840
15
Frame=3 idx=009012 GeodesicLength=0.14329191147269157 rxn_smarts="[C:1]([C@@:2]12[O:3][C@@:4]3([H:11])[C:5]([H:12])([H:13])[C@:6]1([H:14])[C@@:7]23[H:15])([H:8])([H:9])[H:10]>>[C:1]([C@:2]1([C:6](=[C:5]([H:12])[H:13])[H:14])[O:3][C:4]([H:11])=[C:7]1[H:15])([H:8])([H:9])[H:10]"
C        2.05440268       0.16142097      -0.20983975
C        0.57681019       0.27169913      -0.11221546
O       -0.08495999       1.26646066      -0.88004092
C       -1.07747654       1.25756408       0.06873918
C       -1.65887367      -1.00842804      -0.47724813
C       -0.35457105      -0.94389565       0.04251592
C       -0.34920036       0.48392403       1.02649127
H        2.53705630       1.08693974       0.10520878
H        2.41017684      -0.64961142       0.42696319
H        2.33876890      -0.06090830      -1.24025392
H       -1.88060236       1.97672922       0.05078278
H       -2.52111941      -0.60175053       0.01977048
H       -1.89799666      -1.79522197      -1.19005589
H        0.21379222      -1.84915531       0.27072831
H       -0.30620709       0.40423338       2.09845418
15
Frame=4 idx=009012 GeodesicLength=0.1911295515445784 rxn_smarts="[C:1]([C@@:2]12[O:3][C@@:4]3([H:11])[C:5]([H:12])([H:13])[C@:6]1([H:14])[C@@:7]23[H:15])([H:8])([H:9])[H:10]>>[C:1]([C@:2]1([C:6](=[C:5]([H:12])[H:13])[H:14])[O:3][C:4]([H:11])=[C:7]1[H:15])([H:8])([H:9])[H:10]"
C        2.04966932       0.15968535      -0.21230959
C        0.57178471       0.26429079      -0.11047072
O       -0.09339319       1.25731270      -0.88147653
C       -1.08297902       1.25069398       0.07429509
C       -1.65134983      -1.00144371      -0.48735589
C       -0.35280057      -0.95245245       0.04970379
C       -0.34349053       0.49035307       1.03530534
H        2.52755166       1.09180645       0.09031649
H        2.41224603      -0.64189607       0.43263494
H        2.33035156      -0.07383887      -1.24123395
H       -1.87538012       1.98238737       0.06348842
H       -2.52518201      -0.61514094       0.00683880
H       -1.88353169      -1.77527838      -1.21659799
H        0.20721910      -1.85895332       0.28910439
H       -0.29071542       0.42247402       2.10775742
15
Frame=5 idx=009012 GeodesicLength=0.2389859001159724 rxn_smarts="[C:1]([C@@:2]12[O:3][C@@:4]3([H:11])[C:5]([H:12])([H:13])[C@:6]1([H:14])[C@@:7]23[H:15])([H:8])([H:9])[H:10]>>[C:1]([C@:2]1([C:6](=[C:5]([H:12])[H:13])[H:14])[O:3][C:4]([H:11])=[C:7]1[H:15])([H:8])([H:9])[H:10]"
C        2.04484428       0.15789569      -0.21478576
C        0.56671743       0.25695300      -0.10853892
O       -0.10180132       1.24843848      -0.88252869
C       -1.08856862       1.24379103       0.08010333
C       -1.64378858      -0.99463566      -0.49714570
C       -0.35114070      -0.96094238       0.05657356
C       -0.33772902       0.49687673       1.04407767
H        2.51798423       1.09630757       0.07561741
H        2.41418130      -0.63433243       0.43789450
H        2.32184104      -0.08653261      -1.24215158
H       -1.87007262       1.98777974       0.07608776
H       -2.52919097      -0.62850710      -0.00701223
H       -1.86863523      -1.75549727      -1.24231985
H        0.20030326      -1.86857414       0.30733183
H       -0.27494447       0.44097935       2.11679668
15
Frame=6 idx=009012 GeodesicLength=0.2868828514685479 rxn_smarts="[C:1]([C@@:2]12[O:3][C@@:4]3([H:11])[C:5]([H:12])([H:13])[C@:6]1([H:14])[C@@:7]23[H:15])([H:8])([H:9])[H:10]>>[C:1]([C@:2]1([C:6](=[C:5]([H:12])[H:13])[H:14])[O:3][C:4]([H:11])=[C:7]1[H:15])([H:8])([H:9])[H:10]"
C        2.03992880       0.15604202      -0.21727434
C        0.56161006       0.24968114      -0.10640843
O       -0.11019461       1.23982407      -0.88319643
C       -1.09424758       1.23683838       0.08618131
C       -1.63618967      -0.98799856      -0.50662573
C       -0.34958267      -0.96937935       0.06315551
C       -0.33190738       0.50349691       1.05282528
H        2.50835436       1.10047382       0.06101878
H        2.41600012      -0.62688463       0.44280330
H        2.31321246      -0.09908564      -1.24300852
H       -1.86474955       1.99283847       0.08858910
H       -2.53311794      -0.64188502      -0.02173309
H       -1.85328211      -1.73572271      -1.26738969
H        0.19302335      -1.87802250       0.32548523
H       -0.25885767       0.45978359       2.12557772
15
Frame=7 idx=009012 GeodesicLength=0.3348594494133323 rxn_smarts="[C:1]([C@@:2]12[O:3][C@@:4]3([H:11])[C:5]([H:12])([H:13])[C@:6]1([H:14])[C@@:7]23[H:15])([H:8])([H:9])[H:10]>>[C:1]([C@:2]1([C:6](=[C:5]([H:12])[H:13])[H:14])[O:3][C:4]([H:11])=[C:7]1[H:15])([H:8])([H:9])[H:10]"
C        2.03491498       0.15411183      -0.21978827
C        0.55645836       0.24245878      -0.10406227
O       -0.11860058       1.23142602      -0.88348545
C       -1.10002744       1.22980367       0.09254715
C       -1.62855594      -0.98155500      -0.51577034
C       -0.34811539      -0.97779189       0.06950868
C       -0.32601752       0.51021856       1.06157131
H        2.49865052       1.10432584       0.04643090
H        2.41771700      -0.61952042       0.44740285
H        2.30443052      -0.11158141      -1.24381324
H       -1.85945566       1.99751854       0.10101444
H       -2.53695668      -0.65529662      -0.03730031
H       -1.83740047      -1.71575876      -1.29201234
H        0.18537930      -1.88731140       0.34364918
H       -0.24242099       0.47895227       2.13410770
15
Frame=8 idx=009012 GeodesicLength=0.38288497161996715 rxn_smarts="[C:1]([C@@:2]12[O:3][C@@:4]3([H:11])[C:5]([H:12])([H:13])[C@:6]1([H:14])[C@@:7]23[H:15])([H:8])([H:9])[H:10]>>[C:1]([C@:2]1([C:6](=[C:5]([H:12])[H:13])[H:14])[O:3][C:4]([H:11])=[C:7]1[H:15])([H:8])([H:9])[H:10]"
C        2.02982256       0.15211864      -0.22231049
C        0.55127910       0.23529452      -0.10151643
O       -0.12699128       1.22326372      -0.88340933
C       -1.10588174       1.22269900       0.09918969
C       -1.62090769      -0.97526527      -0.52461972
C       -0.34672997      -0.98617284       0.07558709
C       -0.32004850       0.51704189       1.07029632
H        2.48889086       1.10786283       0.03195198
H        2.41933672      -0.61227979       0.45166603
H        2.29554100      -0.12393758      -1.24456328
H       -1.85422182       2.00179161       0.11333080
H       -2.54068361      -0.66870004      -0.05367980
H       -1.82110054      -1.69573398      -1.31602668
H        0.17736233      -1.89643508       0.36174950
H       -0.22566742       0.49845238       2.14235432
15
Frame=9 idx=009012 GeodesicLength=0.4309336972712548 rxn_smarts="[C:1]([C@@:2]12[O:3][C@@:4]3([H:11])[C:5]([H:12])([H:13])[C@:6]1([H:14])[C@@:7]23[H:15])([H:8])([H:9])[H:10]>>[C:1]([C@:2]1([C:6](=[C:5]([H:12])[H:13])[H:14])[O:3][C:4]([H:11])=[C:7]1[H:15])([H:8])([H:9])[H:10]"
C        2.02466987       0.15007331      -0.22482541
C        0.54608846       0.22819310      -0.09878698
O       -0.13534361       1.21534710      -0.88298752
C       -1.11178546       1.21553306       0.10609377
C       -1.61326169      -0.96909148      -0.53319785
C       -0.34541414      -0.99452059       0.08135165
C       -0.31398927       0.52396784       1.07898066
H        2.47909080       1.11109201       0.01765071
H        2.42086522      -0.60518827       0.45558853
H        2.28658434      -0.13610113      -1.24525362
H       -1.84908748       2.00563129       0.12551403
H       -2.54426411      -0.68206499      -0.07081587
H       -1.80448583      -1.67573068      -1.33932506
H        0.16896949      -1.90539107       0.37972520
H       -0.20863660       0.51825048       2.15028776
15
Frame=10 idx=009012 GeodesicLength=0.4790350256936279 rxn_smarts="[C:1]([C@@:2]12[O:3][C@@:4]3([H:11])[C:5]([H:12])([H:13])[C@:6]1([H:14])[C@@:7]23[H:15])([H:8])([H:9])[H:10]>>[C:1]([C@:2]1([C:6](=[C:5]([H:12])[H:13])[H:14])[O:3][C:4]([H:11])=[C:7]1[H:15])([H:8])([H:9])[H:10]"
C        2.01944784       0.14796349      -0.22734382
C        0.54088196       0.22114140      -0.09585645
O       -0.14367914       1.20764181      -0.88221979
C       -1.11774618       1.20827683       0.11327916
C       -1.60561910      -0.96305436      -0.54148666
C       -0.34416023      -1.00285660       0.08685359
C       -0.30783198       0.53100074       1.08764395
H        2.46923998       1.11402721       0.00345250
H        2.42231297      -0.59822253       0.45920138
H        2.27752555      -0.14814171      -1.24589254
H       -1.84409356       2.00899133       0.13758188
H       -2.54769377      -0.69541901      -0.08869968
H       -1.78748762      -1.65557432      -1.36207736
H        0.16019002      -1.91418289       0.39765664
H       -0.19128675       0.53840861       2.15790719
15
Frame=11 idx=009012 GeodesicLength=0.5272189367487404 rxn_smarts="[C:1]([C@@:2]12[O:3][C@@:4]3([H:11])[C:5]([H:12])([H:13])[C@:6]1([H:14])[C@@:7]23[H:15])([H:8])([H:9])[H:10]>>[C:1]([C@:2]1([C:6](=[C:5]([H:12])[H:13])[H:14])[O:3][C:4]([H:11])=[C:7]1[H:15])([H:8])([H:9])[H:10]"
C        2.01415418       0.14577805      -0.22987328
C        0.53565811       0.21412835      -0.09271312
O       -0.15201247       1.20012842      -0.88109850
C       -1.12376943       1.20090539       0.12076344
C       -1.59797556      -0.95716046      -0.54949630
C       -0.34295999      -1.01120115       0.09211585
C       -0.30157381       0.53813819       1.09630007
H        2.45933281       1.11668456      -0.01072554
H        2.42369380      -0.59134662       0.46254822
H        2.26834314      -0.16013980      -1.24647621
H       -1.83929894       2.01183781       0.14957809
H       -2.55094084      -0.70876865      -0.10734089
H       -1.77006628      -1.63514517      -1.38438783
H        0.15100179      -1.92281754       0.41559805
H       -0.17358651       0.55897864       2.16520793
15
Frame=12 idx=009012 GeodesicLength=0.575462920035728 rxn_smarts="[C:1]([C@@:2]12[O:3][C@@:4]3([H:11])[C:5]([H:12])([H:13])[C@:6]1([H:14])[C@@:7]23[H:15])([H:8])([H:9])[H:10]>>[C:1]([C@:2]1([C:6](=[C:5]([H:12])[H:13])[H:14])[O:3][C:4]([H:11])=[C:7]1[H:15])([H:8])([H:9])[H:10]"
C        2.00880157       0.14352711      -0.23240185
C        0.53042995       0.20715624      -0.08936734
O       -0.16032427       1.19281202      -0.87963909
C       -1.12983195       1.19342331       0.12853760
C       -1.59034369      -0.95138521      -0.55724321
C       -0.34180359      -1.01955375       0.09711307
C       -0.29520466       0.54538283       1.10493470
H        2.44938412       1.11905691      -0.02477933
H        2.42500951      -0.58461362       0.46558817
H        2.25906870      -0.17200273      -1.24701661
H       -1.83473390       2.01415056       0.16147217
H       -2.55399347      -0.72206006      -0.12672481
H       -1.75230192      -1.61455279      -1.40613296
H        0.14140294      -1.93128978       0.43349837
H       -0.15555936       0.57994895       2.17216112
15
Frame=13 idx=009012 GeodesicLength=0.6237899594549274 rxn_smarts="[C:1]([C@@:2]12[O:3][C@@:4]3([H:11])[C:5]([H:12])([H:13])[C@:6]1([H:14])[C@@:7]23[H:15])([H:8])([H:9])[H:10]>>[C:1]([C@:2]1([C:6](=[C:5]([H:12])[H:13])[H:14])[O:3][C:4]([H:11])=[C:7]1[H:15])([H:8])([H:9])[H:10]"
C        2.00338698       0.14119776      -0.23493482
C        0.52519677       0.20021647      -0.08580553
O       -0.16862575       1.18567452      -0.87783414
C       -1.13593872       1.18580555       0.13661857
C       -1.58272262      -0.94573224      -0.56472991
C       -0.34068384      -1.02793034       0.10186780
C       -0.28871975       0.55273486       1.11355717
H        2.43938641       1.12115759      -0.03879225
H        2.42627122      -0.57799037       0.46836507
H        2.24967865      -0.18381280      -1.24750578
H       -1.83044932       2.01589043       0.17329520
H       -2.55681782      -0.73533520      -0.14684049
H       -1.73415065      -1.59364378      -1.42742072
H        0.13136631      -1.93959136       0.45141633
H       -0.13717787       0.60135893       2.17874351
15
Frame=14 idx=009012 GeodesicLength=0.6721828961123091 rxn_smarts="[C:1]([C@@:2]12[O:3][C@@:4]3([H:11])[C:5]([H:12])([H:13])[C@:6]1([H:14])[C@@:7]23[H:15])([H:8])([H:9])[H:10]>>[C:1]([C@:2]1([C:6](=[C:5]([H:12])[H:13])[H:14])[O:3][C:4]([H:11])=[C:7]1[H:15])([H:8])([H:9])[H:10]"
C        1.99792251       0.13880179      -0.23746202
C        0.51996935       0.19330617      -0.08204054
O       -0.17690202       1.17871460      -0.87570277
C       -1.14206831       1.17805490       0.14499417
C       -1.57512475      -0.94018582      -0.57197131
C       -0.33959026      -1.03633676       0.10635471
C       -0.28211239       0.56019607       1.12215300
H        2.42934938       1.12298812      -0.05267215
H        2.42748240      -0.57151786       0.47084841
H        2.24020800      -0.19548859      -1.24795499
H       -1.82645985       2.01705952       0.18503589
H       -2.55939601      -0.74853301      -0.16767031
H       -1.71569275      -1.57253356      -1.44814101
H        0.12089244      -1.94772588       0.46929704
H       -0.11847775       0.62320032       2.18493188
15
Frame=15 idx=009012 GeodesicLength=0.7206153112723278 rxn_smarts="[C:1]([C@@:2]12[O:3][C@@:4]3([H:11])[C:5]([H:12])([H:13])[C@:6]1([H:14])[C@@:7]23[H:15])([H:8])([H:9])[H:10]>>[C:1]([C@:2]1([C:6](=[C:5]([H:12])[H:13])[H:14])[O:3][C:4]([H:11])=[C:7]1[H:15])([H:8])([H:9])[H:10]"
C        1.99242441       0.13634926      -0.23996991
C        0.51476109       0.18642520      -0.07808710
O       -0.18513364       1.17193227      -0.87326801
C       -1.14819769       1.17017600       0.15364583
C       -1.56756636      -0.93472095      -0.57897681
C       -0.33850964      -1.04477550       0.11054066
C       -0.27537501       0.56776969       1.13070013
H        2.41928824       1.12455531      -0.06634232
H        2.42864938      -0.56522678       0.47302804
H        2.23069466      -0.20696779      -1.24836824
H       -1.82278791       2.01765382       0.19667308
H       -2.56169347      -0.76163047      -0.18915254
H       -1.69702363      -1.55129617      -1.46820840
H        0.10997439      -1.95568422       0.48709400
H       -0.09950480       0.64544033       2.19069159
15
Frame=16 idx=009012 GeodesicLength=0.7690585895484379 rxn_smarts="[C:1]([C@@:2]12[O:3][C@@:4]3([H:11])[C:5]([H:12])([H:13])[C@:6]1([H:14])[C@@:7]23[H:15])([H:8])([H:9])[H:10]>>[C:1]([C@:2]1([C:6](=[C:5]([H:12])[H:13])[H:14])[O:3][C:4]([H:11])=[C:7]1[H:15])([H:8])([H:9])[H:10]"
C        1.98690660       0.13385080      -0.24244492
C        0.50958479       0.17957010      -0.07395533
O       -0.19330263       1.16531669      -0.87055223
C       -1.15430176       1.16216975       0.16255466
C       -1.56006424      -0.92931939      -0.58574699
C       -0.33742828      -1.05325053       0.11440099
C       -0.26849920       0.57546040       1.13917850
H        2.40921847       1.12586847      -0.07973514
H        2.42977852      -0.55914307       0.47489563
H        2.22116888      -0.21819040      -1.24875049
H       -1.81944469       2.01767171       0.20817938
H       -2.56368091      -0.77459866      -0.21121559
H       -1.67823281      -1.52999440      -1.48755791
H        0.09861504      -1.96346096       0.50475295
H       -0.08031778       0.66804948       2.19599652
