17
Frame=0 idx=007812 GeodesicLength=0.0 rxn_smarts="[C:1]([C@@:2]1([H:11])[C:3]([H:12])([H:13])[C:4]([H:14])=[C:5]([H:15])[C@:6]1([O:7][H:17])[H:16])([H:8])([H:9])[H:10]>>[C:1]([H:8])[H:10].[C:2]1([H:9])([H:11])[C:3]([H:12])([H:13])[C:4]([H:14])=[C:5]([H:15])[C@:6]1([O:7][H:17])[H:16]"
C        2.65239174      -1.16385299      -0.59780819
C        0.47072909       0.30317570       0.78241667
C        0.02908431       1.54336386      -0.00988825
C       -1.44352684       1.30445327      -0.20758093
C       -1.81391887       0.08374093       0.15896597
C       -0.63372592      -0.74755003       0.59014493
O       -0.31958133      -1.73442637      -0.39204271
H        2.17482438      -1.02841142      -1.58960809
H        1.46461325      -0.07575887       0.48079182
H        2.33716766      -2.19143263      -0.33501685
H        0.56170442       0.54861714       1.84227047
H        0.54161693       1.63380338      -0.97297239
H        0.22746954       2.47057778       0.53103836
H       -2.10899569       2.05515082      -0.61768409
H       -2.81506958      -0.32337794       0.08929363
H       -0.81276127      -1.31574365       1.50417504
H       -0.51202185      -1.36232897      -1.25649547
17
Frame=1 idx=007812 GeodesicLength=0.12493251718607437 rxn_smarts="[C:1]([C@@:2]1([H:11])[C:3]([H:12])([H:13])[C:4]([H:14])=[C:5]([H:15])[C@:6]1([O:7][H:17])[H:16])([H:8])([H:9])[H:10]>>[C:1]([H:8])[H:10].[C:2]1([H:9])([H:11])[C:3]([H:12])([H:13])[C:4]([H:14])=[C:5]([H:15])[C@:6]1([O:7][H:17])[H:16]"
C        2.58996586      -1.16349478      -0.58888597
C        0.48099598       0.30572500       0.76907655
C        0.02398008       1.55096789      -0.00759290
C       -1.44868767       1.30492540      -0.19555131
C       -1.80816749       0.07839501       0.16257355
C       -0.61787462      -0.74950497       0.57129497
O       -0.30181860      -1.71761724      -0.42977771
H        2.15126612      -1.11458459      -1.60431957
H        1.51036671      -0.03447851       0.48325600
H        2.32127238      -2.17963881      -0.24721035
H        0.56444742       0.54156732       1.83222582
H        0.52795569       1.65430448      -0.97393826
H        0.22031157       2.47423341       0.54087560
H       -2.12199466       2.05445541      -0.59480497
H       -2.80627740      -0.33618640       0.09378488
H       -0.78410619      -1.33539956       1.47640019
H       -0.50163518      -1.33366906      -1.28740652
17
Frame=2 idx=007812 GeodesicLength=0.2498017536545586 rxn_smarts="[C:1]([C@@:2]1([H:11])[C:3]([H:12])([H:13])[C:4]([H:14])=[C:5]([H:15])[C@:6]1([O:7][H:17])[H:16])([H:8])([H:9])[H:10]>>[C:1]([H:8])[H:10].[C:2]1([H:9])([H:11])[C:3]([H:12])([H:13])[C:4]([H:14])=[C:5]([H:15])[C@:6]1([O:7][H:17])[H:16]"
C        2.52797418      -1.16262378      -0.58033711
C        0.49160739       0.30671375       0.75451675
C        0.01955525       1.55722699      -0.00580749
C       -1.45328103       1.30516802      -0.18351558
C       -1.80271344       0.07310644       0.16560377
C       -0.60348331      -0.75168137       0.55294084
O       -0.28665074      -1.70237649      -0.46553622
H        2.13129709      -1.19783237      -1.61157338
H        1.55434670       0.00524457       0.48324467
H        2.30469453      -2.16065505      -0.16450809
H        0.56907685       0.53294511       1.82070368
H        0.51444989       1.67325763      -0.97544840
H        0.21491106       2.47624370       0.55019956
H       -2.13397847       2.05420414      -0.57094390
H       -2.79807853      -0.34807007       0.09767283
H       -0.75735645      -1.35367276       1.44949535
H       -0.49237097      -1.30719844      -1.31670730
17
Frame=3 idx=007812 GeodesicLength=0.374651739503216 rxn_smarts="[C:1]([C@@:2]1([H:11])[C:3]([H:12])([H:13])[C:4]([H:14])=[C:5]([H:15])[C@:6]1([O:7][H:17])[H:16])([H:8])([H:9])[H:10]>>[C:1]([H:8])[H:10].[C:2]1([H:9])([H:11])[C:3]([H:12])([H:13])[C:4]([H:14])=[C:5]([H:15])[C@:6]1([O:7][H:17])[H:16]"
C        2.46672450      -1.16099376      -0.57217118
C        0.50239831       0.30632161       0.73903421
C        0.01584000       1.56224249      -0.00443926
C       -1.45726413       1.30522887      -0.17157191
C       -1.79758575       0.06791831       0.16797427
C       -0.59059083      -0.75407737       0.53522630
O       -0.27377947      -1.68878071      -0.49913949
H        2.11409740      -1.27739749      -1.61163865
H        1.59641412       0.04275758       0.48063712
H        2.28782321      -2.13533515      -0.08733824
H        0.57545128       0.52298397       1.80800448
H        0.50130001       1.69070807      -0.97733375
H        0.21121639       2.47676047       0.55905298
H       -2.14484176       2.05440068      -0.54635814
H       -2.79050367      -0.35902994       0.10071286
H       -0.73270210      -1.37062815       1.42366661
H       -0.48399751      -1.28307948      -1.34431820
17
Frame=4 idx=007812 GeodesicLength=0.49953740116345474 rxn_smarts="[C:1]([C@@:2]1([H:11])[C:3]([H:12])([H:13])[C:4]([H:14])=[C:5]([H:15])[C@:6]1([O:7][H:17])[H:16])([H:8])([H:9])[H:10]>>[C:1]([H:8])[H:10].[C:2]1([H:9])([H:11])[C:3]([H:12])([H:13])[C:4]([H:14])=[C:5]([H:15])[C@:6]1([O:7][H:17])[H:16]"
C        2.40657336      -1.15857776      -0.56431849
C        0.51317053       0.30476421       0.72292314
C        0.01282099       1.56609563      -0.00343377
C       -1.46062764       1.30511647      -0.15980688
C       -1.79280118       0.06286949       0.16966020
C       -0.57917687      -0.75665499       0.51825762
O       -0.26285717      -1.67678014      -0.53049542
H        2.09895053      -1.35246123      -1.60489773
H        1.63652245       0.07751483       0.47539448
H        2.27090808      -2.10468604      -0.01599540
H        0.58333399       0.51197188       1.79440205
H        0.48865404       1.70664128      -0.97946978
H        0.20910933       2.47591833       0.56740255
H       -2.15454567       2.05499815      -0.52122010
H       -2.78354970      -0.36908133       0.10275433
H       -0.71021902      -1.38631927       1.39903626
H       -0.47626605      -1.26132948      -1.37019307
17
Frame=5 idx=007812 GeodesicLength=0.624444582997776 rxn_smarts="[C:1]([C@@:2]1([H:11])[C:3]([H:12])([H:13])[C:4]([H:14])=[C:5]([H:15])[C@:6]1([O:7][H:17])[H:16])([H:8])([H:9])[H:10]>>[C:1]([H:8])[H:10].[C:2]1([H:9])([H:11])[C:3]([H:12])([H:13])[C:4]([H:14])=[C:5]([H:15])[C@:6]1([O:7][H:17])[H:16]"
C        2.34786175      -1.15551174      -0.55668416
C        0.52373705       0.30227322       0.70650762
C        0.01042713       1.56892000      -0.00273341
C       -1.46341949       1.30487403      -0.14829597
C       -1.78836976       0.05800654       0.17068577
C       -0.56915264      -0.75938384       0.50212558
O       -0.25350941      -1.66630754      -0.55960630
H        2.08523368      -1.42231575      -1.59192437
H        1.67473607       0.10914348       0.46760931
H        2.25413939      -2.06989220       0.04936382
H        0.59245699       0.50022560       1.78022035
H        0.47657754       1.72108265      -0.98175936
H        0.20838816       2.47393836       0.57522932
H       -2.16311683       2.05594522      -0.49580209
H       -2.77719373      -0.37824638       0.10372713
H       -0.68983738      -1.40084749       1.37569901
H       -0.46895852      -1.24190416      -1.39436224
17
Frame=6 idx=007812 GeodesicLength=0.7494445974017556 rxn_smarts="[C:1]([C@@:2]1([H:11])[C:3]([H:12])([H:13])[C:4]([H:14])=[C:5]([H:15])[C@:6]1([O:7][H:17])[H:16])([H:8])([H:9])[H:10]>>[C:1]([H:8])[H:10].[C:2]1([H:9])([H:11])[C:3]([H:12])([H:13])[C:4]([H:14])=[C:5]([H:15])[C@:6]1([O:7][H:17])[H:16]"
C        2.29083390      -1.15197392      -0.54902655
C        0.53395076       0.29907168       0.69002249
C        0.00860753       1.57083910      -0.00233613
C       -1.46568023       1.30449015      -0.13709908
C       -1.78429171       0.05330900       0.17108834
C       -0.56041837      -0.76224249       0.48686056
O       -0.24543699      -1.65721336      -0.58655010
H        2.07252153      -1.48642345      -1.57346583
H        1.71122932       0.13751568       0.45737137
H        2.23749944      -2.03207201       0.10893048
H        0.60256436       0.48802841       1.76568850
H        0.46511039       1.73409589      -0.98417910
H        0.20891020       2.47101291       0.58244918
H       -2.17064522       2.05718002      -0.47013280
H       -2.77140959      -0.38664613       0.10361750
H       -0.67145254      -1.41435037       1.35365934
H       -0.46189277      -1.22462112      -1.41689816
17
Frame=7 idx=007812 GeodesicLength=0.8745442421624763 rxn_smarts="[C:1]([C@@:2]1([H:11])[C:3]([H:12])([H:13])[C:4]([H:14])=[C:5]([H:15])[C@:6]1([O:7][H:17])[H:16])([H:8])([H:9])[H:10]>>[C:1]([H:8])[H:10].[C:2]1([H:9])([H:11])[C:3]([H:12])([H:13])[C:4]([H:14])=[C:5]([H:15])[C@:6]1([O:7][H:17])[H:16]"
C        2.23568130      -1.14811504      -0.54116875
C        0.54369167       0.29534951       0.67368851
C        0.00727382       1.57197199      -0.00220429
C       -1.46747972       1.30397113      -0.12623845
C       -1.78055945       0.04878322       0.17093786
C       -0.55284650      -0.76519429       0.47247950
O       -0.23833833      -1.64932390      -0.61144420
H        2.06044428      -1.54457006      -1.55036174
H        1.74621470       0.16263719       0.44482753
H        2.22097416      -1.99225661       0.16298822
H        0.61339335       0.47562200       1.75102543
H        0.45424672       1.74574809      -0.98667916
H        0.21046832       2.46731790       0.58904631
H       -2.17721885       2.05860772      -0.44436628
H       -2.76615337      -0.39435274       0.10246110
H       -0.65489834      -1.42693586       1.33289541
H       -0.45489374      -1.20926026      -1.43788701
17
Frame=8 idx=007812 GeodesicLength=0.9997383780453005 rxn_smarts="[C:1]([C@@:2]1([H:11])[C:3]([H:12])([H:13])[C:4]([H:14])=[C:5]([H:15])[C@:6]1([O:7][H:17])[H:16])([H:8])([H:9])[H:10]>>[C:1]([H:8])[H:10].[C:2]1([H:9])([H:11])[C:3]([H:12])([H:13])[C:4]([H:14])=[C:5]([H:15])[C@:6]1([O:7][H:17])[H:16]"
C        2.18251210      -1.14404813      -0.53296267
C        0.55287878       0.29126327       0.65768491
C        0.00633955       1.57243475      -0.00229983
C       -1.46888955       1.30332566      -0.11572309
C       -1.77716051       0.04442644       0.17030291
C       -0.54630888      -0.76821207       0.45897926
O       -0.23195736      -1.64247294      -0.63442709
H        2.04872361      -1.59676984      -1.52347689
H        1.77992299       0.18462012       0.43012621
H        2.20452410      -1.95131424       0.21195865
H        0.62471507       0.46320023       1.73641581
H        0.44395804       1.75612889      -0.98922092
H        0.21287045       2.46301793       0.59502609
H       -2.18293662       2.06014982      -0.41862283
H       -2.76137876      -0.40144352       0.10030518
H       -0.63999453      -1.43871409       1.31336249
H       -0.44781849      -1.19559228      -1.45742818
17
Frame=9 idx=007812 GeodesicLength=1.125007358782011 rxn_smarts="[C:1]([C@@:2]1([H:11])[C:3]([H:12])([H:13])[C:4]([H:14])=[C:5]([H:15])[C@:6]1([O:7][H:17])[H:16])([H:8])([H:9])[H:10]>>[C:1]([H:8])[H:10].[C:2]1([H:9])([H:11])[C:3]([H:12])([H:13])[C:4]([H:14])=[C:5]([H:15])[C@:6]1([O:7][H:17])[H:16]"
C        2.13132417      -1.13985961      -0.52433363
C        0.56146280       0.28693788       0.64218008
C        0.00574162       1.57235327      -0.00258349
C       -1.46996360       1.30257397      -0.10556758
C       -1.77408203       0.04022313       0.16925751
C       -0.54069658      -0.77129717       0.44636741
O       -0.22610436      -1.63655144      -0.65563145
H        2.03719014      -1.64309042      -1.49363473
H        1.81258038       0.20363119       0.41342552
H        2.18810543      -1.90996145       0.25627911
H        0.63633701       0.45092112       1.72205914
H        0.43423036       1.76535514      -0.99178512
H        0.21596695       2.45829684       0.60041597
H       -2.18787429       2.06173517      -0.39308083
H       -2.75704973      -0.40800767       0.09722166
H       -0.62658175      -1.44982002       1.29504735
H       -0.44058653      -1.18343994      -1.47563693
17
Frame=10 idx=007812 GeodesicLength=1.2503521075965234 rxn_smarts="[C:1]([C@@:2]1([H:11])[C:3]([H:12])([H:13])[C:4]([H:14])=[C:5]([H:15])[C@:6]1([O:7][H:17])[H:16])([H:8])([H:9])[H:10]>>[C:1]([H:8])[H:10].[C:2]1([H:9])([H:11])[C:3]([H:12])([H:13])[C:4]([H:14])=[C:5]([H:15])[C@:6]1([O:7][H:17])[H:16]"
C        2.08211543      -1.13555400      -0.51520691
C        0.56941381       0.28246935       0.62727031
C        0.00540991       1.57180451      -0.00301566
C       -1.47076100       1.30171275      -0.09575643
C       -1.77130733       0.03616487       0.16785233
C       -0.53590572      -0.77442001       0.43461041
O       -0.22060142      -1.63139649      -0.67518907
H        2.02571549      -1.68390402      -1.46157107
H        1.84438516       0.21985967       0.39481318
H        2.17166301      -1.86868061       0.29646194
H        0.64808887       0.43888827       1.70805137
H        0.42502412       1.77351192      -0.99433243
H        0.21960851       2.45324591       0.60524853
H       -2.19212607       2.06330649      -0.36776257
H       -2.75312046      -0.41410607       0.09324904
H       -0.61450867      -1.46032210       1.27786822
H       -0.43309364      -1.17258044      -1.49259119
17
Frame=11 idx=007812 GeodesicLength=1.3757580900498771 rxn_smarts="[C:1]([C@@:2]1([H:11])[C:3]([H:12])([H:13])[C:4]([H:14])=[C:5]([H:15])[C@:6]1([O:7][H:17])[H:16])([H:8])([H:9])[H:10]>>[C:1]([H:8])[H:10].[C:2]1([H:9])([H:11])[C:3]([H:12])([H:13])[C:4]([H:14])=[C:5]([H:15])[C@:6]1([O:7][H:17])[H:16]"
C        2.03482781      -1.13111246      -0.50558009
C        0.57671676       0.27793029       0.61304935
C        0.00528842       1.57086656      -0.00355067
C       -1.47132778       1.30075047      -0.08627917
C       -1.76881963       0.03224459       0.16614023
C       -0.53184854      -0.77756679       0.42368645
O       -0.21530988      -1.62689045      -0.69321579
H        2.01421318      -1.71958609      -1.42791848
H        1.87550603       0.23347792       0.37437092
H        2.15517690      -1.82782956       0.33296275
H        0.65982387       0.42717895       1.69449984
H        0.41631414       1.78069055      -0.99682581
H        0.22366881       2.44796167       0.60957649
H       -2.19576040       2.06481393      -0.34275442
H       -2.74955025      -0.41979027       0.08843649
H       -0.60364338      -1.47029579       1.26177013
H       -0.42527609      -1.16284351      -1.50836822
17
Frame=12 idx=007812 GeodesicLength=1.5012164705979567 rxn_smarts="[C:1]([C@@:2]1([H:11])[C:3]([H:12])([H:13])[C:4]([H:14])=[C:5]([H:15])[C@:6]1([O:7][H:17])[H:16])([H:8])([H:9])[H:10]>>[C:1]([H:8])[H:10].[C:2]1([H:9])([H:11])[C:3]([H:12])([H:13])[C:4]([H:14])=[C:5]([H:15])[C@:6]1([O:7][H:17])[H:16]"
C        1.98937594      -1.12649698      -0.49547898
C        0.58336890       0.27337436       0.59959411
C        0.00533415       1.56960358      -0.00414713
C       -1.47170181       1.29969414      -0.07712833
C       -1.76660501       0.02845505       0.16416687
C       -0.52845264      -0.78072838       0.41357220
O       -0.21012360      -1.62293490      -0.70981423
H        2.00264840      -1.75051534      -1.39320453
H        1.90608544       0.24463267       0.35215648
H        2.13863551      -1.78764535       0.36619804
H        0.67141780       0.41584561       1.68149679
H        0.40808391       1.78696961      -0.99923376
H        0.22804802       2.44252197       0.61345168
H       -2.19883739       2.06622012      -0.31812798
H       -2.74630689      -0.42510256       0.08283397
H       -0.59387374      -1.47980813       1.24670106
H       -0.41709701      -1.15408546      -1.52303625
17
Frame=13 idx=007812 GeodesicLength=1.626727082376383 rxn_smarts="[C:1]([C@@:2]1([H:11])[C:3]([H:12])([H:13])[C:4]([H:14])=[C:5]([H:15])[C@:6]1([O:7][H:17])[H:16])([H:8])([H:9])[H:10]>>[C:1]([H:8])[H:10].[C:2]1([H:9])([H:11])[C:3]([H:12])([H:13])[C:4]([H:14])=[C:5]([H:15])[C@:6]1([O:7][H:17])[H:16]"
C        1.94565787      -1.12166202      -0.48493778
C        0.58937486       0.26884075       0.58696786
C        0.00551350       1.56806577      -0.00476512
C       -1.47191491       1.29854890      -0.06829562
C       -1.76465262       0.02479144       0.16197545
C       -0.52565990      -0.78389553       0.40424488
O       -0.20496264      -1.61944184      -0.72507141
H        1.99104191      -1.77704894      -1.35788571
H        1.93624171       0.25343663       0.32819612
H        2.12203135      -1.74828088       0.39654650
H        0.68276430       0.40492199       1.66912145
H        0.40032510       1.79241314      -1.00152506
H        0.23266447       2.43698518       0.61692699
H       -2.20141303       2.06749385      -0.29395954
H       -2.74336553      -0.43007361       0.07649987
H       -0.58510775      -1.48891249       1.23261117
H       -0.40853868      -1.14618235      -1.53665007
17
Frame=14 idx=007812 GeodesicLength=1.7522718162864097 rxn_smarts="[C:1]([C@@:2]1([H:11])[C:3]([H:12])([H:13])[C:4]([H:14])=[C:5]([H:15])[C@:6]1([O:7][H:17])[H:16])([H:8])([H:9])[H:10]>>[C:1]([H:8])[H:10].[C:2]1([H:9])([H:11])[C:3]([H:12])([H:13])[C:4]([H:14])=[C:5]([H:15])[C@:6]1([O:7][H:17])[H:16]"
C        1.90357972      -1.11654229      -0.47402314
C        0.59474370       0.26435973       0.57522712
C        0.00579430       1.56629987      -0.00536289
C       -1.47199473       1.29732287      -0.05977775
C       -1.76294694       0.02125117       0.15960404
C       -0.52341257      -0.78706205       0.39567986
O       -0.19975374      -1.61633714      -0.73906889
H        1.97936678      -1.79957514      -1.32231222
H        1.96606297       0.25997155       0.30251765
H        2.10538982      -1.70979982       0.42433127
H        0.69376607       0.39442555       1.65744473
H        0.39302976       1.79708339      -1.00366492
H        0.23743894       2.43140293       0.62006202
H       -2.20353043       2.06861466      -0.27032281
H       -2.74069290      -0.43472825       0.06947408
H       -0.57724851      -1.49766017       1.21945056
H       -0.39959224      -1.13902686      -1.54925871
17
Frame=15 idx=007812 GeodesicLength=1.8778494845416487 rxn_smarts="[C:1]([C@@:2]1([H:11])[C:3]([H:12])([H:13])[C:4]([H:14])=[C:5]([H:15])[C@:6]1([O:7][H:17])[H:16])([H:8])([H:9])[H:10]>>[C:1]([H:8])[H:10].[C:2]1([H:9])([H:11])[C:3]([H:12])([H:13])[C:4]([H:14])=[C:5]([H:15])[C@:6]1([O:7][H:17])[H:16]"
C        1.86303428      -1.11107883      -0.46279608
C        0.59948701       0.25995265       0.56442212
C        0.00615597       1.56434039      -0.00590294
C       -1.47196227       1.29602052      -0.05157539
C       -1.76147775       0.01783233       0.15709256
C       -0.52166800      -0.79022255       0.38785723
O       -0.19444876      -1.61355700      -0.75187190
H        1.96765209      -1.81839514      -1.28678819
H        1.99562164       0.26427795       0.27512980
H        2.08873838      -1.67222748       0.44982990
H        0.70433679       0.38436453       1.64653312
H        0.38620503       1.80102480      -1.00562192
H        0.24231194       2.42581307       0.62291037
H       -2.20522927       2.06956262      -0.24730803
H       -2.73826691      -0.43908414       0.06181228
H       -0.57022110      -1.50609281       1.20717653
H       -0.39026908      -1.13253089      -1.56089947
17
Frame=16 idx=007812 GeodesicLength=2.003453521855349 rxn_smarts="[C:1]([C@@:2]1([H:11])[C:3]([H:12])([H:13])[C:4]([H:14])=[C:5]([H:15])[C@:6]1([O:7][H:17])[H:16])([H:8])([H:9])[H:10]>>[C:1]([H:8])[H:10].[C:2]1([H:9])([H:11])[C:3]([H:12])([H:13])[C:4]([H:14])=[C:5]([H:15])[C@:6]1([O:7][H:17])[H:16]"
C        1.82392046      -1.10521249      -0.45131875
C        0.60361808       0.25563602       0.55459959
C        0.00658078       1.56221754      -0.00635080
C       -1.47183615       1.29464690      -0.04369432
C       -1.76023410       0.01453352       0.15448112
C       -0.52038658      -0.79337362       0.38075812
O       -0.18900848      -1.61104475      -0.76353967
H        1.95592516      -1.83377501      -1.25157142
H        2.02497143       0.26636123       0.24604295
H        2.07211247      -1.63555525       0.47328358
H        0.71439758       0.37473866       1.63645053
H        0.37986106       1.80427335      -1.00736817
H        0.24722942       2.42024951       0.62552245
H       -2.20654583       2.07032552      -0.22501465
H       -2.73606497      -0.44315616       0.05357570
H       -0.56395084      -1.51425024       1.19574827
H       -0.38058951      -1.12661473      -1.57160454
