13
Frame=0 idx=002274 GeodesicLength=0.0 rxn_smarts="[C:1]1([H:7])([H:8])[C:2]([H:9])=[C:3]([H:10])[C@@:4]2([H:11])[N:5]([H:12])[C@@:6]12[H:13]>>[C:1]1([H:7])([H:8])[C:2]([H:9])([H:13])[C-:3]([H:10])[C@@:4]2([H:11])[N:5]([H:12])[C+:6]12"
C        0.23659720      -1.20855252      -0.02686364
C        1.26745868      -0.07245505      -0.13482960
C        0.54343308       1.05755783      -0.50755041
C       -0.75979558       1.03194434       0.09499987
N       -1.90485573      -0.00903265       0.20108912
C       -0.67561704      -0.31876788       0.76016507
H        0.60530672      -2.05768017       0.54397379
H       -0.15765660      -1.54442694      -0.99889541
H        2.30652097      -0.23393133      -0.40249520
H        0.99777107       1.99707637      -0.80103919
H       -1.08532031       1.93618449       0.59003543
H       -2.09649532      -0.56062024      -0.63527712
H        0.72265289      -0.01729620       1.31668734
13
Frame=1 idx=002274 GeodesicLength=0.04735146157107735 rxn_smarts="[C:1]1([H:7])([H:8])[C:2]([H:9])=[C:3]([H:10])[C@@:4]2([H:11])[N:5]([H:12])[C@@:6]12[H:13]>>[C:1]1([H:7])([H:8])[C:2]([H:9])([H:13])[C-:3]([H:10])[C@@:4]2([H:11])[N:5]([H:12])[C+:6]12"
C        0.23620144      -1.21178185      -0.02021316
C        1.26269800      -0.07227393      -0.13628876
C        0.53428515       1.05738258      -0.50980513
C       -0.75976767       1.03623226       0.11166719
N       -1.89954963      -0.00728276       0.18698078
C       -0.68018457      -0.32227484       0.76622139
H        0.61173147      -2.05403909       0.55684861
H       -0.15289414      -1.56543051      -0.98708129
H        2.29451883      -0.23637460      -0.43004590
H        0.98774053       1.99504785      -0.81042472
H       -1.08752149       1.93786593       0.60953336
H       -2.07212732      -0.53599628      -0.66853099
H        0.72486940      -0.02107477       1.33113861
13
Frame=2 idx=002274 GeodesicLength=0.09472394890177199 rxn_smarts="[C:1]1([H:7])([H:8])[C:2]([H:9])=[C:3]([H:10])[C@@:4]2([H:11])[N:5]([H:12])[C@@:6]12[H:13]>>[C:1]1([H:7])([H:8])[C:2]([H:9])([H:13])[C-:3]([H:10])[C@@:4]2([H:11])[N:5]([H:12])[C+:6]12"
C        0.23577479      -1.21497986      -0.01385171
C        1.25793632      -0.07213009      -0.13790284
C        0.52523162       1.05734577      -0.51193194
C       -0.75969740       1.04031378       0.12778960
N       -1.89389529      -0.00527986       0.17271053
C       -0.68482844      -0.32575725       0.77200082
H        0.61803860      -2.05030465       0.56935858
H       -0.14821197      -1.58630446      -0.97520588
H        2.28193649      -0.23891580      -0.45730804
H        0.97782699       1.99325018      -0.81918055
H       -1.08995137       1.93937895       0.62823969
H       -2.04719056      -0.51157259      -0.70029810
H        0.72703023      -0.02504412       1.34557983
13
Frame=3 idx=002274 GeodesicLength=0.14212052874083286 rxn_smarts="[C:1]1([H:7])([H:8])[C:2]([H:9])=[C:3]([H:10])[C@@:4]2([H:11])[N:5]([H:12])[C@@:6]12[H:13]>>[C:1]1([H:7])([H:8])[C:2]([H:9])([H:13])[C-:3]([H:10])[C@@:4]2([H:11])[N:5]([H:12])[C+:6]12"
C        0.23531671      -1.21814026      -0.00778439
C        1.25318207      -0.07202419      -0.13967509
C        0.51629931       1.05745972      -0.51393115
C       -0.75959751       1.04419250       0.14333999
N       -1.88790616      -0.00304020       0.15833968
C       -0.68953428      -0.32920837       0.77750555
H        0.62422471      -2.04648089       0.58149262
H       -0.14362542      -1.60701093      -0.96328291
H        2.26881083      -0.24155000      -0.48425235
H        0.96807316       1.99169654      -0.82731498
H       -1.09260483       1.94072693       0.64613944
H       -2.02178219      -0.48742338      -0.73058977
H        0.72914362      -0.02919747       1.36001338
13
Frame=4 idx=002274 GeodesicLength=0.1895782949416547 rxn_smarts="[C:1]1([H:7])([H:8])[C:2]([H:9])=[C:3]([H:10])[C@@:4]2([H:11])[N:5]([H:12])[C@@:6]12[H:13]>>[C:1]1([H:7])([H:8])[C:2]([H:9])([H:13])[C-:3]([H:10])[C@@:4]2([H:11])[N:5]([H:12])[C+:6]12"
C        0.23482351      -1.22126898      -0.00201311
C        1.24844864      -0.07195293      -0.14160490
C        0.50752075       1.05774610      -0.51580695
C       -0.75947823       1.04788389       0.15830208
N       -1.88160534      -0.00058758       0.14392461
C       -0.69429696      -0.33262563       0.78274785
H        0.63027708      -2.04259147       0.59324702
H       -0.13914489      -1.62753364      -0.95133620
H        2.25518374      -0.24426237      -0.51086989
H        0.95852933       1.99041663      -0.83485384
H       -1.09547118       1.94193342       0.66323776
H       -1.99599740      -0.46363456      -0.75943425
H        0.73121095      -0.03352288       1.37445983
13
Frame=5 idx=002274 GeodesicLength=0.23702428443269555 rxn_smarts="[C:1]1([H:7])([H:8])[C:2]([H:9])=[C:3]([H:10])[C@@:4]2([H:11])[N:5]([H:12])[C@@:6]12[H:13]>>[C:1]1([H:7])([H:8])[C:2]([H:9])([H:13])[C-:3]([H:10])[C@@:4]2([H:11])[N:5]([H:12])[C+:6]12"
C        0.23430630      -1.22433350       0.00346499
C        1.24374528      -0.07191877      -0.14368288
C        0.49891739       1.05818935      -0.51754919
C       -0.75935876       1.05138071       0.17266102
N       -1.87500324       0.00208329       0.12950072
C       -0.69911373      -0.33598092       0.78770867
H        0.63619931      -2.03859257       0.60461558
H       -0.13475056      -1.64782882      -0.93935119
H        2.24106395      -0.24707712      -0.53720035
H        0.94923573       1.98937818      -0.84176223
H       -1.09855867       1.94297265       0.67953543
H       -1.96989376      -0.44026354      -0.78683440
H        0.73321075      -0.03800894       1.38889382
13
Frame=6 idx=002274 GeodesicLength=0.2844498244549618 rxn_smarts="[C:1]1([H:7])([H:8])[C:2]([H:9])=[C:3]([H:10])[C@@:4]2([H:11])[N:5]([H:12])[C@@:6]12[H:13]>>[C:1]1([H:7])([H:8])[C:2]([H:9])([H:13])[C-:3]([H:10])[C@@:4]2([H:11])[N:5]([H:12])[C+:6]12"
C        0.23377039      -1.22733110       0.00865733
C        1.23907183      -0.07193594      -0.14590919
C        0.49049096       1.05877807      -0.51914956
C       -0.75924786       1.05468713       0.18642348
N       -1.86811702       0.00494854       0.11511378
C       -0.70396458      -0.33928146       0.79239489
H        0.64201157      -2.03448484       0.61558886
H       -0.13043834      -1.66784259      -0.92732320
H        2.22649335      -0.24997333      -0.56317320
H        0.94016552       1.98853971      -0.84813179
H       -1.10185143       1.94383015       0.69505706
H       -1.94354952      -0.41726974      -0.81286072
H        0.73516512      -0.04266460       1.40331225
13
Frame=7 idx=002274 GeodesicLength=0.33196036222406006 rxn_smarts="[C:1]1([H:7])([H:8])[C:2]([H:9])=[C:3]([H:10])[C@@:4]2([H:11])[N:5]([H:12])[C@@:6]12[H:13]>>[C:1]1([H:7])([H:8])[C:2]([H:9])([H:13])[C-:3]([H:10])[C@@:4]2([H:11])[N:5]([H:12])[C+:6]12"
C        0.23320636      -1.23028902       0.01357051
C        1.23444362      -0.07198147      -0.14828163
C        0.48227893       1.05956104      -0.52063267
C       -0.75914710       1.05783804       0.19958747
N       -1.86097318       0.00797192       0.10079346
C       -0.70885693      -0.34253361       0.79683242
H        0.64768905      -2.03031634       0.62620423
H       -0.12621742      -1.68762859      -0.91529085
H        2.21148658      -0.25293829      -0.58885183
H        0.93139393       1.98799094      -0.85397184
H       -1.10532302       1.94456098       0.70984637
H       -1.91704278      -0.39476992      -0.83757857
H        0.73706195      -0.04746569       1.41777292
13
Frame=8 idx=002274 GeodesicLength=0.3795125500918397 rxn_smarts="[C:1]1([H:7])([H:8])[C:2]([H:9])=[C:3]([H:10])[C@@:4]2([H:11])[N:5]([H:12])[C@@:6]12[H:13]>>[C:1]1([H:7])([H:8])[C:2]([H:9])([H:13])[C-:3]([H:10])[C@@:4]2([H:11])[N:5]([H:12])[C+:6]12"
C        0.23262084      -1.23319129       0.01820878
C        1.22986583      -0.07205985      -0.15079851
C        0.47428867       1.06052320      -0.52199953
C       -0.75906686       1.06083347       0.21215683
N       -1.85359001       0.01114418       0.08657086
C       -0.71378226      -0.34572887       0.80101616
H        0.65324258      -2.02606586       0.63645735
H       -0.12207657      -1.70715410      -0.90324688
H        2.19607079      -0.25596737      -0.61422075
H        0.92292962       1.98769781      -0.85930433
H       -1.10896480       1.94514925       0.72392180
H       -1.89043899      -0.37276920      -0.86102600
H        0.73890115      -0.05241137       1.43226423
13
Frame=9 idx=002274 GeodesicLength=0.4271031742903907 rxn_smarts="[C:1]1([H:7])([H:8])[C:2]([H:9])=[C:3]([H:10])[C@@:4]2([H:11])[N:5]([H:12])[C@@:6]12[H:13]>>[C:1]1([H:7])([H:8])[C:2]([H:9])([H:13])[C-:3]([H:10])[C@@:4]2([H:11])[N:5]([H:12])[C+:6]12"
C        0.23201758      -1.23603581       0.02257749
C        1.22534321      -0.07217100      -0.15345864
C        0.46652822       1.06166211      -0.52325794
C       -0.75901352       1.06368358       0.22414070
N       -1.84598637       0.01445071       0.07247369
C       -0.71873462      -0.34886490       0.80495086
H        0.65867711      -2.02173356       0.64635326
H       -0.11800472      -1.72640934      -0.89119575
H        2.18027008      -0.25905303      -0.63927465
H        0.91478374       1.98765129      -0.86416017
H       -1.11276390       1.94559964       0.73731184
H       -1.86379746      -0.35128149      -0.88325329
H        0.74068066      -0.05749819       1.44679260
13
Frame=10 idx=002274 GeodesicLength=0.47472859576488 rxn_smarts="[C:1]1([H:7])([H:8])[C:2]([H:9])=[C:3]([H:10])[C@@:4]2([H:11])[N:5]([H:12])[C@@:6]12[H:13]>>[C:1]1([H:7])([H:8])[C:2]([H:9])([H:13])[C-:3]([H:10])[C@@:4]2([H:11])[N:5]([H:12])[C+:6]12"
C        0.23139816      -1.23882229       0.02668272
C        1.22087902      -0.07231324      -0.15626181
C        0.45900398       1.06297553      -0.52441722
C       -0.75899008       1.06639805       0.23555237
N       -1.83818008       0.01787331       0.05852483
C       -0.72370916      -0.35194291       0.80864210
H        0.66399578      -2.01731957       0.65589903
H       -0.11399400      -1.74538975      -0.87913967
H        2.16410945      -0.26218165      -0.66400638
H        0.90696440       1.98784358      -0.86857545
H       -1.11670240       1.94591527       0.75004860
H       -1.83717357      -0.33031330      -0.90431535
H        0.74239850      -0.06272302       1.46136623
13
Frame=11 idx=002274 GeodesicLength=0.5223990506893871 rxn_smarts="[C:1]1([H:7])([H:8])[C:2]([H:9])=[C:3]([H:10])[C@@:4]2([H:11])[N:5]([H:12])[C@@:6]12[H:13]>>[C:1]1([H:7])([H:8])[C:2]([H:9])([H:13])[C-:3]([H:10])[C@@:4]2([H:11])[N:5]([H:12])[C+:6]12"
C        0.23076422      -1.24155331       0.03053223
C        1.21648049      -0.07248326      -0.15920842
C        0.45172448       1.06446389      -0.52548869
C       -0.75900057       1.06898903       0.24640708
N       -1.83019418       0.02139463       0.04474324
C       -0.72870547      -0.35496255       0.81210079
H        0.66920153      -2.01282744       0.66510756
H       -0.11003400      -1.76410034      -0.86708509
H        2.14760905      -0.26534511      -0.68843114
H        0.89948938       1.98827496      -0.87257356
H       -1.12077047       1.94610799       0.76216459
H       -1.81061684      -0.30987893      -0.92427007
H        0.74405238      -0.06807956       1.47600148
13
Frame=12 idx=002274 GeodesicLength=0.5700851954025359 rxn_smarts="[C:1]1([H:7])([H:8])[C:2]([H:9])=[C:3]([H:10])[C@@:4]2([H:11])[N:5]([H:12])[C@@:6]12[H:13]>>[C:1]1([H:7])([H:8])[C:2]([H:9])([H:13])[C-:3]([H:10])[C@@:4]2([H:11])[N:5]([H:12])[C+:6]12"
C        0.23012949      -1.24421961       0.03413670
C        1.21214662      -0.07268477      -0.16229110
C        0.44468124       1.06611599      -0.52646945
C       -0.75904805       1.07146343       0.25671657
N       -1.82203221       0.02501573       0.03113697
C       -0.73370975      -0.35791824       0.81531829
H        0.67431595      -2.00824352       0.67398925
H       -0.10610921      -1.78253487      -0.85501298
H        2.13076420      -0.26855497      -0.71256766
H        0.89234436       1.98892291      -0.87615222
H       -1.12496012       1.94617433       0.77367234
H       -1.78415923      -0.28996022      -0.94316837
H        0.74563670      -0.07357619       1.49069166
13
Frame=13 idx=002274 GeodesicLength=0.6178219803120808 rxn_smarts="[C:1]1([H:7])([H:8])[C:2]([H:9])=[C:3]([H:10])[C@@:4]2([H:11])[N:5]([H:12])[C@@:6]12[H:13]>>[C:1]1([H:7])([H:8])[C:2]([H:9])([H:13])[C-:3]([H:10])[C@@:4]2([H:11])[N:5]([H:12])[C+:6]12"
C        0.22948463      -1.24683433       0.03750712
C        1.20786569      -0.07291716      -0.16551965
C        0.43787860       1.06793635      -0.52737245
C       -0.75913006       1.07383373       0.26650911
N       -1.81369885       0.02871462       0.01770861
C       -0.73872539      -0.36082033       0.81830956
H        0.67933038      -2.00357955       0.68256076
H       -0.10220051      -1.80070558      -0.84291863
H        2.11357243      -0.27178553      -0.73640997
H        0.88552744       1.98979103      -0.87938137
H       -1.12925212       1.94612092       0.78463225
H       -1.75780002      -0.27054093      -0.96107468
H        0.74714777      -0.07921325       1.50544934
13
Frame=14 idx=002274 GeodesicLength=0.6656178199276823 rxn_smarts="[C:1]1([H:7])([H:8])[C:2]([H:9])=[C:3]([H:10])[C@@:4]2([H:11])[N:5]([H:12])[C@@:6]12[H:13]>>[C:1]1([H:7])([H:8])[C:2]([H:9])([H:13])[C-:3]([H:10])[C@@:4]2([H:11])[N:5]([H:12])[C+:6]12"
C        0.22883675      -1.24939734       0.04065220
C        1.20365914      -0.07317402      -0.16889177
C        0.43132572       1.06992322      -0.52820291
C       -0.75924951       1.07610877       0.27580507
N       -1.80522861       0.03247705       0.00446480
C       -0.74375832      -0.36366886       0.82108424
H        0.68425718      -1.99882730       0.69084442
H       -0.09830796      -1.81863192      -0.83080624
H        2.09606466      -0.27503366      -0.76000052
H        0.87905617       1.99087612      -0.88227163
H       -1.13364130       1.94595431       0.79507583
H       -1.73159727      -0.25162305      -0.97805799
H        0.74858336      -0.08498332       1.52030449
13
Frame=15 idx=002274 GeodesicLength=0.7134474746241667 rxn_smarts="[C:1]1([H:7])([H:8])[C:2]([H:9])=[C:3]([H:10])[C@@:4]2([H:11])[N:5]([H:12])[C@@:6]12[H:13]>>[C:1]1([H:7])([H:8])[C:2]([H:9])([H:13])[C-:3]([H:10])[C@@:4]2([H:11])[N:5]([H:12])[C+:6]12"
C        0.22819371      -1.25190347       0.04358226
C        1.19952078      -0.07345724      -0.17240563
C        0.42501408       1.07206767      -0.52896017
C       -0.75940379       1.07829700       0.28461759
N       -1.79662122       0.03629857      -0.00859117
C       -0.74879755      -0.36646081       0.82363994
H        0.68911049      -1.99397708       0.69884897
H       -0.09441290      -1.83630918      -0.81865764
H        2.07822175      -0.27830643      -0.78335372
H        0.87291779       1.99216086      -0.88482270
H       -1.13811708       1.94567655       0.80501790
H       -1.70556322      -0.23319126      -0.99416703
H        0.74993715      -0.09089516       1.53525140
13
Frame=16 idx=002274 GeodesicLength=0.7613127016747869 rxn_smarts="[C:1]1([H:7])([H:8])[C:2]([H:9])=[C:3]([H:10])[C@@:4]2([H:11])[N:5]([H:12])[C@@:6]12[H:13]>>[C:1]1([H:7])([H:8])[C:2]([H:9])([H:13])[C-:3]([H:10])[C@@:4]2([H:11])[N:5]([H:12])[C+:6]12"
C        0.22755083      -1.25435966       0.04629472
C        1.19544894      -0.07376559      -0.17607017
C        0.41893859       1.07436148      -0.52967605
C       -0.75959277       1.08040325       0.29296199
N       -1.78789747       0.04016730      -0.02143429
C       -0.75383930      -0.36920134       0.82598884
H        0.69388518      -1.98904256       0.70656926
H       -0.09050974      -1.85373351      -0.80649273
H        2.06009427      -0.28157530      -0.80642163
H        0.86711978       1.99364062      -0.88707359
H       -1.14266347       1.94530049       0.81447626
H       -1.67974644      -0.21524769      -1.00942441
H        0.75121158      -0.09694748       1.55030178
