16
Frame=0 idx=001883 GeodesicLength=0.0 rxn_smarts="[C:1]1([H:7])([H:8])[C:2]([H:9])([H:10])[C:3]([H:11])([H:12])[O:4][C:5]([H:13])([H:14])[C:6]1([H:15])[H:16]>>[C:1]1([H:7])([H:8])[C@:2]([C:3]([H:10])([H:11])[H:12])([H:9])[O:4][C:5]([H:13])([H:14])[C:6]1([H:15])[H:16]"
C       -0.49429072      -1.02812036       0.33960890
C       -1.17211203       0.15023990      -0.28018171
C       -1.02642919       1.41708314       0.23944886
O        0.76769355       1.12893365      -0.94185462
C        1.56831028       0.26988513      -0.23818697
C        0.93284110      -1.13202680      -0.23099271
H       -1.06400473      -1.94102947       0.15853660
H       -0.43401013      -0.87429808       1.42159459
H       -1.71176480       0.05195678      -1.21478933
H       -2.14383206       0.71144921       0.60417899
H       -0.49144465       1.56046593       1.16911691
H       -1.42137706       2.27267372      -0.28907892
H        1.71476899       0.57430762       0.82477358
H        2.59032097       0.19028535      -0.65136802
H        1.50064885      -1.86452329       0.35315996
H        0.88468157      -1.48728243      -1.26396609
16
Frame=1 idx=001883 GeodesicLength=0.06760914000802955 rxn_smarts="[C:1]1([H:7])([H:8])[C:2]([H:9])([H:10])[C:3]([H:11])([H:12])[O:4][C:5]([H:13])([H:14])[C:6]1([H:15])[H:16]>>[C:1]1([H:7])([H:8])[C@:2]([C:3]([H:10])([H:11])[H:12])([H:9])[O:4][C:5]([H:13])([H:14])[C:6]1([H:15])[H:16]"
C       -0.49336773      -1.02860098       0.34193602
C       -1.16260617       0.15255718      -0.28464453
C       -1.02402684       1.42335501       0.24318018
O        0.74565379       1.12972486      -0.91989972
C        1.56502589       0.26624617      -0.23826507
C        0.93282589      -1.13643383      -0.22791265
H       -1.06711433      -1.93898614       0.16102715
H       -0.43442437      -0.87475867       1.42398122
H       -1.68961036       0.05066958      -1.22652525
H       -2.14868000       0.70985509       0.58886629
H       -0.50211906       1.56280870       1.18151179
H       -1.41777983       2.27932756      -0.28643808
H        1.73103087       0.56858737       0.82120642
H        2.57591663       0.19649203      -0.67749140
H        1.50362113      -1.86423544       0.35867056
H        0.88565451      -1.49660847      -1.25920292
16
Frame=2 idx=001883 GeodesicLength=0.13523976511812064 rxn_smarts="[C:1]1([H:7])([H:8])[C:2]([H:9])([H:10])[C:3]([H:11])([H:12])[O:4][C:5]([H:13])([H:14])[C:6]1([H:15])[H:16]>>[C:1]1([H:7])([H:8])[C@:2]([C:3]([H:10])([H:11])[H:12])([H:9])[O:4][C:5]([H:13])([H:14])[C:6]1([H:15])[H:16]"
C       -0.49243202      -1.02906181       0.34428232
C       -1.15324012       0.15478596      -0.28892609
C       -1.02177983       1.42957603       0.24696244
O        0.72446168       1.13047512      -0.89775555
C        1.56181290       0.26261553      -0.23837729
C        0.93276886      -1.14076215      -0.22492889
H       -1.07017903      -1.93692778       0.16357156
H       -0.43472566      -0.87522813       1.42638614
H       -1.66741079       0.04930101      -1.23794870
H       -2.15342560       0.70832359       0.57351519
H       -0.51308727       1.56512227       1.19375038
H       -1.41408711       2.28588969      -0.28399244
H        1.74731569       0.56294705       0.81721721
H        2.56093498       0.20267242      -0.70314422
H        1.50657059      -1.86394426       0.36391903
H        0.88650274      -1.50578453      -1.25453108
16
Frame=3 idx=001883 GeodesicLength=0.20289271330056413 rxn_smarts="[C:1]1([H:7])([H:8])[C:2]([H:9])([H:10])[C:3]([H:11])([H:12])[O:4][C:5]([H:13])([H:14])[C:6]1([H:15])[H:16]>>[C:1]1([H:7])([H:8])[C@:2]([C:3]([H:10])([H:11])[H:12])([H:9])[O:4][C:5]([H:13])([H:14])[C:6]1([H:15])[H:16]"
C       -0.49148572      -1.02950519       0.34664698
C       -1.14400540       0.15693128      -0.29303715
C       -1.01968540       1.43574659       0.25080574
O        0.70406758       1.13118265      -0.87542258
C        1.55866238       0.25899432      -0.23853691
C        0.93267409      -1.14501860      -0.22202801
H       -1.07320325      -1.93485370       0.16616134
H       -0.43492365      -0.87570971       1.42880923
H       -1.64512903       0.04787409      -1.24908101
H       -2.15807410       0.70685025       0.55810957
H       -0.52435416       1.56739552       1.20584939
H       -1.41028417       2.29237164      -0.28171820
H        1.76362544       0.55738717       0.81279157
H        2.54537356       0.20883137      -0.72835641
H        1.50950266      -1.86364146       0.36893845
H        0.88723918      -1.51483622      -1.24993199
16
Frame=4 idx=001883 GeodesicLength=0.2705695951171133 rxn_smarts="[C:1]1([H:7])([H:8])[C:2]([H:9])([H:10])[C:3]([H:11])([H:12])[O:4][C:5]([H:13])([H:14])[C:6]1([H:15])[H:16]>>[C:1]1([H:7])([H:8])[C@:2]([C:3]([H:10])([H:11])[H:12])([H:9])[O:4][C:5]([H:13])([H:14])[C:6]1([H:15])[H:16]"
C       -0.49053105      -1.02993351       0.34902875
C       -1.13489365       0.15899809      -0.29698780
C       -1.01774071       1.44186709       0.25471935
O        0.68442473       1.13184382      -0.85290022
C        1.55556517       0.25538358      -0.23875680
C        0.93254549      -1.14920965      -0.21919736
H       -1.07619167      -1.93276339       0.16878765
H       -0.43502788      -0.87620693       1.43125001
H       -1.62272750       0.04641151      -1.25994047
H       -2.16262809       0.70543140       0.54263556
H       -0.53592607       1.56961770       1.21782339
H       -1.40635666       2.29878434      -0.27959309
H        1.77996093       0.55190899       0.80791424
H        2.52922810       0.21497362      -0.75315597
H        1.51242276      -1.86331856       0.37376025
H        0.88787609      -1.52378809      -1.24538749
16
Frame=5 idx=001883 GeodesicLength=0.3382735800241861 rxn_smarts="[C:1]1([H:7])([H:8])[C:2]([H:9])([H:10])[C:3]([H:11])([H:12])[O:4][C:5]([H:13])([H:14])[C:6]1([H:15])[H:16]>>[C:1]1([H:7])([H:8])[C@:2]([C:3]([H:10])([H:11])[H:12])([H:9])[O:4][C:5]([H:13])([H:14])[C:6]1([H:15])[H:16]"
C       -0.48956980      -1.03034953       0.35142647
C       -1.12589644       0.16099057      -0.30078670
C       -1.01594257       1.44793749       0.25871196
O        0.66548942       1.13245323      -0.83018686
C        1.55251369       0.25178355      -0.23904909
C        0.93238707      -1.15334129      -0.21642500
H       -1.07914815      -1.93065640       0.17144153
H       -0.43504686      -0.87672353       1.43370793
H       -1.60017342       0.04493489      -1.27054298
H       -2.16708885       0.70406501       0.52707978
H       -0.54780913       1.57177855       1.22968512
H       -1.40228887       2.30513771      -0.27759683
H        1.79632162       0.54651612       0.80256576
H        2.51249108       0.22110380      -0.77756330
H        1.51533601      -1.86296806       0.37841285
H        0.88842520      -1.53266211      -1.24088064
16
Frame=6 idx=001883 GeodesicLength=0.4060007514156758 rxn_smarts="[C:1]1([H:7])([H:8])[C:2]([H:9])([H:10])[C:3]([H:11])([H:12])[O:4][C:5]([H:13])([H:14])[C:6]1([H:15])[H:16]>>[C:1]1([H:7])([H:8])[C@:2]([C:3]([H:10])([H:11])[H:12])([H:9])[O:4][C:5]([H:13])([H:14])[C:6]1([H:15])[H:16]"
C       -0.48860465      -1.03075626       0.35383919
C       -1.11700663       0.16291266      -0.30444135
C       -1.01428868       1.45395738       0.26279160
O        0.64722311       1.13300388      -0.80727834
C        1.54949731       0.24819533      -0.23942582
C        0.93220205      -1.15741927      -0.21369935
H       -1.08207748      -1.92853312       0.17411471
H       -0.43498961      -0.87726349       1.43618284
H       -1.57743264       0.04346556      -1.28090197
H       -2.17145719       0.70275008       0.51142884
H       -0.56001189       1.57386761       1.24144628
H       -1.39806477       2.31144037      -0.27571028
H        1.81270813       0.54121256       0.79672660
H        2.49515840       0.22722662      -0.80160151
H        1.51824767      -1.86258126       0.38292380
H        0.88889686      -1.54147865      -1.23639525
16
Frame=7 idx=001883 GeodesicLength=0.47375732020420364 rxn_smarts="[C:1]1([H:7])([H:8])[C:2]([H:9])([H:10])[C:3]([H:11])([H:12])[O:4][C:5]([H:13])([H:14])[C:6]1([H:15])[H:16]>>[C:1]1([H:7])([H:8])[C@:2]([C:3]([H:10])([H:11])[H:12])([H:9])[O:4][C:5]([H:13])([H:14])[C:6]1([H:15])[H:16]"
C       -0.48763723      -1.03115653       0.35626567
C       -1.10821655       0.16476783      -0.30795990
C       -1.01277624       1.45992624       0.26696496
O        0.62958719       1.13348876      -0.78416451
C        1.54650764       0.24462035      -0.23990151
C        0.93199413      -1.16144857      -0.21100971
H       -1.08498281      -1.92639415       0.17679909
H       -0.43486345      -0.87782965       1.43867365
H       -1.55447230       0.04202474      -1.29102770
H       -2.17573214       0.70148700       0.49566709
H       -0.57254277       1.57587417       1.25311633
H       -1.39366864       2.31770096      -0.27391454
H        1.82912192       0.53600154       0.79037380
H        2.47721686       0.23334430      -0.82528695
H        1.52116306      -1.86214873       0.38731901
H        0.88930134      -1.55025826      -1.23191479
16
Frame=8 idx=001883 GeodesicLength=0.5415486247870819 rxn_smarts="[C:1]1([H:7])([H:8])[C:2]([H:9])([H:10])[C:3]([H:11])([H:12])[O:4][C:5]([H:13])([H:14])[C:6]1([H:15])[H:16]>>[C:1]1([H:7])([H:8])[C@:2]([C:3]([H:10])([H:11])[H:12])([H:9])[O:4][C:5]([H:13])([H:14])[C:6]1([H:15])[H:16]"
C       -0.48666978      -1.03155320       0.35870385
C       -1.09951693       0.16656077      -0.31135012
C       -1.01140323       1.46584352       0.27124108
O        0.61254430       1.13389569      -0.76084248
C        1.54353619       0.24105888      -0.24048812
C        0.93176748      -1.16543483      -0.20834426
H       -1.08786853      -1.92423888       0.17948391
H       -0.43467734      -0.87842623       1.44117887
H       -1.53125831       0.04063466      -1.30092795
H       -2.17991127       0.70027603       0.47978002
H       -0.58541128       1.57778731       1.26470541
H       -1.38908321       2.32392844      -0.27218930
H        1.84556177       0.53089035       0.78348196
H        2.45865205       0.23946088      -0.84863693
H        1.52408769      -1.86166191       0.39162583
H        0.88965040      -1.55902149      -1.22742175
16
Frame=9 idx=001883 GeodesicLength=0.6093393990178333 rxn_smarts="[C:1]1([H:7])([H:8])[C:2]([H:9])([H:10])[C:3]([H:11])([H:12])[O:4][C:5]([H:13])([H:14])[C:6]1([H:15])[H:16]>>[C:1]1([H:7])([H:8])[C@:2]([C:3]([H:10])([H:11])[H:12])([H:9])[O:4][C:5]([H:13])([H:14])[C:6]1([H:15])[H:16]"
C       -0.48570256      -1.03194415       0.36115215
C       -1.09091123       0.16829382      -0.31461430
C       -1.01017732       1.47171031       0.27562270
O        0.59605163       1.13420661      -0.73734306
C        1.54057770       0.23751748      -0.24118057
C        0.93152402      -1.16937286      -0.20569960
H       -1.09073379      -1.92206708       0.18216466
H       -0.43443618      -0.87905347       1.44369775
H       -1.50779514       0.03930952      -1.31060027
H       -2.18399755       0.69911541       0.46376607
H       -0.59861407       1.57960268       1.27620959
H       -1.38430271       2.33012489      -0.27051555
H        1.86201765       0.52588372       0.77604985
H        2.43952449       0.24555022      -0.87164622
H        1.52702331      -1.86111327       0.39585028
H        0.88995176      -1.56776382      -1.22291347
16
Frame=10 idx=001883 GeodesicLength=0.6771703378978805 rxn_smarts="[C:1]1([H:7])([H:8])[C:2]([H:9])([H:10])[C:3]([H:11])([H:12])[O:4][C:5]([H:13])([H:14])[C:6]1([H:15])[H:16]>>[C:1]1([H:7])([H:8])[C@:2]([C:3]([H:10])([H:11])[H:12])([H:9])[O:4][C:5]([H:13])([H:14])[C:6]1([H:15])[H:16]"
C       -0.48474045      -1.03233850       0.36360946
C       -1.08238216       0.16997047      -0.31776205
C       -1.00908475       1.47752407       0.28011837
O        0.58008678       1.13442140      -0.71361694
C        1.53761834       0.23399116      -0.24200360
C        0.93126837      -1.17327663      -0.20305662
H       -1.09358686      -1.91988122       0.18482686
H       -0.43415328      -0.87971967       1.44622940
H       -1.48401765       0.03807372      -1.32005987
H       -2.18798173       0.69801127       0.44760075
H       -0.61217349       1.58130526       1.28764624
H       -1.37929718       2.33630170      -0.26887932
H        1.87849669       0.52098670       0.76803515
H        2.41975116       0.25164480      -0.89436220
H        1.52997833      -1.86049165       0.40003516
H        0.89021787      -1.57652288      -1.21836078
16
Frame=11 idx=001883 GeodesicLength=0.7450554516834021 rxn_smarts="[C:1]1([H:7])([H:8])[C:2]([H:9])([H:10])[C:3]([H:11])([H:12])[O:4][C:5]([H:13])([H:14])[C:6]1([H:15])[H:16]>>[C:1]1([H:7])([H:8])[C@:2]([C:3]([H:10])([H:11])[H:12])([H:9])[O:4][C:5]([H:13])([H:14])[C:6]1([H:15])[H:16]"
C       -0.48378473      -1.03273897       0.36607324
C       -1.07392045       0.17159449      -0.32080033
C       -1.00812296       1.48328390       0.28473385
O        0.56461686       1.13452868      -0.68965311
C        1.53465149       0.23048220      -0.24297021
C        0.93100570      -1.17714935      -0.20040441
H       -1.09642998      -1.91768151       0.18745904
H       -0.43383666      -0.88042835       1.44877175
H       -1.45989142       0.03694840      -1.32930751
H       -2.19185830       0.69696626       0.43126782
H       -0.62609873       1.58288469       1.29902076
H       -1.37404830       2.34246608      -0.26726239
H        1.89499430       0.51620451       0.75941362
H        2.39930304       0.25774085      -0.91680117
H        1.53295922      -1.85978607       0.40420463
H        0.89046092      -1.58531582      -1.21374559
16
Frame=12 idx=001883 GeodesicLength=0.8130064863799442 rxn_smarts="[C:1]1([H:7])([H:8])[C:2]([H:9])([H:10])[C:3]([H:11])([H:12])[O:4][C:5]([H:13])([H:14])[C:6]1([H:15])[H:16]>>[C:1]1([H:7])([H:8])[C@:2]([C:3]([H:10])([H:11])[H:12])([H:9])[O:4][C:5]([H:13])([H:14])[C:6]1([H:15])[H:16]"
C       -0.48283814      -1.03314994       0.36854127
C       -1.06551580       0.17316959      -0.32373457
C       -1.00728794       1.48898866       0.28947580
O        0.54961408       1.13451518      -0.66543611
C        1.53166722       0.22699090      -0.24408947
C        0.93074079      -1.18099601      -0.19772929
H       -1.09926738      -1.91546896       0.19004785
H       -0.43349761      -0.88118548       1.45132325
H       -1.43538154       0.03595486      -1.33834489
H       -2.19562091       0.69598442       0.41474888
H       -0.64040113       1.58433018       1.31033905
H       -1.36853403       2.34862497      -0.26564736
H        1.91150726       0.51154423       0.75016157
H        2.37814892       0.26384317      -0.93899462
H        1.53597252      -1.85898532       0.40838680
H        0.89069368      -1.59416046      -1.20904818
16
Frame=13 idx=001883 GeodesicLength=0.8810320412339167 rxn_smarts="[C:1]1([H:7])([H:8])[C:2]([H:9])([H:10])[C:3]([H:11])([H:12])[O:4][C:5]([H:13])([H:14])[C:6]1([H:15])[H:16]>>[C:1]1([H:7])([H:8])[C@:2]([C:3]([H:10])([H:11])[H:12])([H:9])[O:4][C:5]([H:13])([H:14])[C:6]1([H:15])[H:16]"
C       -0.48190342      -1.03357567       0.37101097
C       -1.05716059       0.17469826      -0.32656933
C       -1.00657576       1.49463700       0.29434943
O        0.53505106       1.13436531      -0.64095499
C        1.52865578       0.22351830      -0.24537182
C        0.93047759      -1.18481984      -0.19501992
H       -1.10210203      -1.91324521       0.19258081
H       -0.43314595      -0.88199667       1.45388189
H       -1.41045782       0.03511288      -1.34717060
H       -2.19926214       0.69507093       0.39803134
H       -0.65509174       1.58563216       1.32160423
H       -1.36273145       2.35478396      -0.26401839
H        1.92802953       0.50701523       0.74025043
H        2.35626547       0.26995252      -0.96095710
H        1.53902408      -1.85807778       0.41260496
H        0.89092738      -1.60307138      -1.20425188
16
Frame=14 idx=001883 GeodesicLength=0.9491439718652398 rxn_smarts="[C:1]1([H:7])([H:8])[C:2]([H:9])([H:10])[C:3]([H:11])([H:12])[O:4][C:5]([H:13])([H:14])[C:6]1([H:15])[H:16]>>[C:1]1([H:7])([H:8])[C@:2]([C:3]([H:10])([H:11])[H:12])([H:9])[O:4][C:5]([H:13])([H:14])[C:6]1([H:15])[H:16]"
C       -0.48098345      -1.03402077       0.37347924
C       -1.04884528       0.17618408      -0.32930965
C       -1.00598263       1.50022755       0.29936047
O        0.52090227       1.13406217      -0.61619586
C        1.52560667       0.22006539      -0.24682856
C        0.93022092      -1.18862458      -0.19226354
H       -1.10493772      -1.91101199       0.19504332
H       -0.43279292      -0.88286803       1.45644506
H       -1.38508513       0.03444328      -1.35578087
H       -2.20277274       0.69423248       0.38109896
H       -0.67018379       1.58677875       1.33281906
H       -1.35661582       2.36094920      -0.26235674
H        1.94455543       0.50262803       0.72964964
H        2.33361880       0.27606967      -0.98270911
H        1.54212079      -1.85705009       0.41688550
H        0.89117461      -1.61206514      -1.19933694
16
Frame=15 idx=001883 GeodesicLength=1.0173564983514076 rxn_smarts="[C:1]1([H:7])([H:8])[C:2]([H:9])([H:10])[C:3]([H:11])([H:12])[O:4][C:5]([H:13])([H:14])[C:6]1([H:15])[H:16]>>[C:1]1([H:7])([H:8])[C@:2]([C:3]([H:10])([H:11])[H:12])([H:9])[O:4][C:5]([H:13])([H:14])[C:6]1([H:15])[H:16]"
C       -0.48008079      -1.03449013       0.37594289
C       -1.04056095       0.17762996      -0.33195911
C       -1.00550337       1.50575898       0.30451489
O        0.50714139       1.13358682      -0.59114859
C        1.52251035       0.21663283      -0.24847210
C        0.92997550      -1.19241317      -0.18944864
H       -1.10777721      -1.90877139       0.19742086
H       -0.43244861      -0.88380606       1.45901008
H       -1.35923674       0.03396494      -1.36417097
H       -2.20614222       0.69347697       0.36393741
H       -0.68568944       1.58775952       1.34398416
H       -1.35016059       2.36712659      -0.26064405
H        1.96107515       0.49839584       0.71832573
H        2.31018046       0.28219312      -1.00425870
H        1.54526946      -1.85588869       0.42125201
H        0.89144763      -1.62115612      -1.19428586
16
Frame=16 idx=001883 GeodesicLength=1.0856841431272861 rxn_smarts="[C:1]1([H:7])([H:8])[C:2]([H:9])([H:10])[C:3]([H:11])([H:12])[O:4][C:5]([H:13])([H:14])[C:6]1([H:15])[H:16]>>[C:1]1([H:7])([H:8])[C@:2]([C:3]([H:10])([H:11])[H:12])([H:9])[O:4][C:5]([H:13])([H:14])[C:6]1([H:15])[H:16]"
C       -0.47919880      -1.03498953       0.37839852
C       -1.03229875       0.17903857      -0.33452122
C       -1.00513226       1.51122955       0.30981796
O        0.49374569       1.13291904      -0.56579793
C        1.51935535       0.21322157      -0.25031368
C        0.92974611      -1.19618867      -0.18656212
H       -1.11062376      -1.90652630       0.19969768
H       -0.43212524      -0.88481814       1.46157409
H       -1.33288081       0.03369768      -1.37233456
H       -2.20935922       0.69281386       0.34653091
H       -0.70162290       1.58856250       1.35509975
H       -1.34333598       2.37332187      -0.25886198
H        1.97757988       0.49433167       0.70624185
H        2.28591397       0.28832470      -1.02562106
H        1.54847717      -1.85457863       0.42573046
H        0.89175953      -1.63035973      -1.18907867
