13
Frame=0 idx=010368 GeodesicLength=0.0 rxn_smarts="[N:1]#[C:2][C@@:3]1([H:8])[C:4]([H:9])([H:10])[C@@:5]2([H:11])[C:6]([H:12])([H:13])[N:7]12>>[N:1]#[C:2][C@@:3]1([H:8])[C:4]([H:9])([H:10])[C:6]([H:12])([H:13])[C:5]([H:11])=[N:7]1"
N        2.44601708      -1.59383941       0.88655311
C        1.77784020      -0.66608645       0.78472880
C        0.88590558       0.48956312       0.61492914
C        0.21137623       0.61917766      -0.74039504
C       -1.17052518       0.42384853       0.16561580
C       -1.34831816      -0.93277947      -0.28135558
N       -0.37867363       0.46161172       1.33059825
H        1.46048487       1.39348561       0.86094797
H        0.47452271      -0.07179080      -1.53662970
H        0.16826593       1.63422382      -1.13100806
H       -1.96652390       1.15556760      -0.02671945
H       -1.44615163      -1.17758986      -1.33481853
H       -1.11422014      -1.73539213       0.40755327
13
Frame=1 idx=010368 GeodesicLength=0.07318413746600808 rxn_smarts="[N:1]#[C:2][C@@:3]1([H:8])[C:4]([H:9])([H:10])[C@@:5]2([H:11])[C:6]([H:12])([H:13])[N:7]12>>[N:1]#[C:2][C@@:3]1([H:8])[C:4]([H:9])([H:10])[C:6]([H:12])([H:13])[C:5]([H:11])=[N:7]1"
N        2.45112459      -1.59099499       0.88151529
C        1.77771501      -0.66716136       0.77900345
C        0.88241434       0.48553991       0.60975243
C        0.21120075       0.61484181      -0.74893100
C       -1.17915580       0.43838880       0.16668725
C       -1.32485662      -0.92245679      -0.27826292
N       -0.38353379       0.44278085       1.32568364
H        1.45142638       1.39013136       0.86336291
H        0.49340832      -0.06828388      -1.54547747
H        0.17749661       1.63000190      -1.14025823
H       -1.98787576       1.15848503      -0.00611260
H       -1.42450483      -1.18144560      -1.32780960
H       -1.14485918      -1.72982704       0.42084686
13
Frame=2 idx=010368 GeodesicLength=0.14631987311598887 rxn_smarts="[N:1]#[C:2][C@@:3]1([H:8])[C:4]([H:9])([H:10])[C@@:5]2([H:11])[C:6]([H:12])([H:13])[N:7]12>>[N:1]#[C:2][C@@:3]1([H:8])[C:4]([H:9])([H:10])[C:6]([H:12])([H:13])[C:5]([H:11])=[N:7]1"
N        2.45645329      -1.58773226       0.87749078
C        1.77790517      -0.66784875       0.77383022
C        0.87921827       0.48178399       0.60453340
C        0.21132025       0.61008698      -0.75759873
C       -1.18727153       0.45240221       0.16804496
C       -1.30178930      -0.91211918      -0.27480831
N       -0.38812423       0.42451207       1.32045995
H        1.44257692       1.38713234       0.86526403
H        0.51258209      -0.06535172      -1.55383062
H        0.18658044       1.62518643      -1.14984290
H       -2.00910630       1.15982070       0.01579608
H       -1.40428891      -1.18428507      -1.32044463
H       -1.17605618      -1.72358773       0.43110577
13
Frame=3 idx=010368 GeodesicLength=0.21937224361175872 rxn_smarts="[N:1]#[C:2][C@@:3]1([H:8])[C:4]([H:9])([H:10])[C@@:5]2([H:11])[C:6]([H:12])([H:13])[N:7]12>>[N:1]#[C:2][C@@:3]1([H:8])[C:4]([H:9])([H:10])[C:6]([H:12])([H:13])[C:5]([H:11])=[N:7]1"
N        2.46188477      -1.58413043       0.87444682
C        1.77832712      -0.66819661       0.76920773
C        0.87629207       0.47829684       0.59927926
C        0.21170417       0.60492186      -0.76638569
C       -1.19492482       0.46593629       0.16969166
C       -1.27918339      -0.90177108      -0.27100400
N       -0.39246066       0.40686301       1.31497698
H        1.43395630       1.38447524       0.86664662
H        0.53196261      -0.06299647      -1.56169207
H        0.19550692       1.61979695      -1.15975507
H       -2.03015693       1.15958058       0.03896005
H       -1.38547672      -1.18614195      -1.31277069
H       -1.20743142      -1.71663422       0.43839841
13
Frame=4 idx=010368 GeodesicLength=0.2923088627197631 rxn_smarts="[N:1]#[C:2][C@@:3]1([H:8])[C:4]([H:9])([H:10])[C@@:5]2([H:11])[C:6]([H:12])([H:13])[N:7]12>>[N:1]#[C:2][C@@:3]1([H:8])[C:4]([H:9])([H:10])[C:6]([H:12])([H:13])[C:5]([H:11])=[N:7]1"
N        2.46730506      -1.58028894       0.87234853
C        1.77889983      -0.66826315       0.76513150
C        0.87360451       0.47507799       0.59399969
C        0.21231530       0.59936232      -0.77528624
C       -1.20217472       0.47904646       0.17163117
C       -1.25710034      -0.89141490      -0.26687084
N       -0.39656707       0.38988714       1.30929432
H        1.42557412       1.38215001       0.86751618
H        0.55147265      -0.06121204      -1.56908491
H        0.20425689       1.61386797      -1.16999332
H       -2.05096677       1.15779976       0.06331815
H       -1.36802194      -1.18705592      -1.30484741
H       -1.23859750      -1.70895671       0.44284318
13
Frame=5 idx=010368 GeodesicLength=0.3650835288027298 rxn_smarts="[N:1]#[C:2][C@@:3]1([H:8])[C:4]([H:9])([H:10])[C@@:5]2([H:11])[C:6]([H:12])([H:13])[N:7]12>>[N:1]#[C:2][C@@:3]1([H:8])[C:4]([H:9])([H:10])[C:6]([H:12])([H:13])[C:5]([H:11])=[N:7]1"
N        2.47256225      -1.57622065       0.87115926
C        1.77950740      -0.66807229       0.76157417
C        0.87112016       0.47211576       0.58868933
C        0.21311321       0.59340628      -0.78425539
C       -1.20907399       0.49176018       0.17386010
C       -1.23562590      -0.88102590      -0.26244011
N       -0.40046451       0.37361775       1.30341567
H        1.41745533       1.38010975       0.86786016
H        0.57101065      -0.05997872      -1.57596748
H        0.21283196       1.60738103      -1.18049539
H       -2.07140296       1.15450534       0.08875235
H       -1.35192867      -1.18702107      -1.29668750
H       -1.26910494      -1.70057744       0.44453485
13
Frame=6 idx=010368 GeodesicLength=0.4377212404132007 rxn_smarts="[N:1]#[C:2][C@@:3]1([H:8])[C:4]([H:9])([H:10])[C@@:5]2([H:11])[C:6]([H:12])([H:13])[N:7]12>>[N:1]#[C:2][C@@:3]1([H:8])[C:4]([H:9])([H:10])[C:6]([H:12])([H:13])[C:5]([H:11])=[N:7]1"
N        2.47762192      -1.57205568       0.87079197
C        1.78010497      -0.66770618       0.75852453
C        0.86880407       0.46940371       0.58336408
C        0.21406796       0.58709354      -0.79331759
C       -1.21568595       0.50414540       0.17638003
C       -1.21477907      -0.87062140      -0.25774897
N       -0.40419604       0.35807984       1.29743015
H        1.40957759       1.37836283       0.86771413
H        0.59056393      -0.05926328      -1.58242008
H        0.22120788       1.60042336      -1.19129195
H       -2.09145371       1.14976374       0.11521968
H       -1.33702736      -1.18613674      -1.28839742
H       -1.29880618      -1.69148914       0.44375142
13
Frame=7 idx=010368 GeodesicLength=0.5101662182469653 rxn_smarts="[N:1]#[C:2][C@@:3]1([H:8])[C:4]([H:9])([H:10])[C@@:5]2([H:11])[C:6]([H:12])([H:13])[N:7]12>>[N:1]#[C:2][C@@:3]1([H:8])[C:4]([H:9])([H:10])[C:6]([H:12])([H:13])[C:5]([H:11])=[N:7]1"
N        2.48240245      -1.56781654       0.87127497
C        1.78059151      -0.66721886       0.75595727
C        0.86661470       0.46691988       0.57802724
C        0.21511584       0.58042818      -0.80244162
C       -1.22207806       0.51624786       0.17920466
C       -1.19465323      -0.86015998      -0.25284347
N       -0.40778663       0.34329125       1.29136410
H        1.40195082       1.37686040       0.86708547
H        0.61001100      -0.05904179      -1.58844001
H        0.22935785       1.59299514      -1.20234058
H       -2.11096246       1.14371594       0.14254871
H       -1.32337343      -1.18437753      -1.28001155
H       -1.32719037      -1.68184396       0.44061482
13
Frame=8 idx=010368 GeodesicLength=0.5825571835011136 rxn_smarts="[N:1]#[C:2][C@@:3]1([H:8])[C:4]([H:9])([H:10])[C@@:5]2([H:11])[C:6]([H:12])([H:13])[N:7]12>>[N:1]#[C:2][C@@:3]1([H:8])[C:4]([H:9])([H:10])[C:6]([H:12])([H:13])[C:5]([H:11])=[N:7]1"
N        2.48678948      -1.56351750       0.87238211
C        1.78091056      -0.66660548       0.75381623
C        0.86451454       0.46463272       0.57265885
C        0.21625213       0.57341760      -0.81157390
C       -1.22829792       0.52805755       0.18229574
C       -1.17521855      -0.84961927      -0.24776195
N       -0.41129171       0.32924756       1.28517982
H        1.39455026       1.37551786       0.86596751
H        0.62938131      -0.05924442      -1.59395982
H        0.23728647       1.58507291      -1.21353480
H       -2.12990640       1.13631607       0.17062112
H       -1.31073832      -1.18178788      -1.27153579
H       -1.35423186      -1.67148772       0.43544487
13
Frame=9 idx=010368 GeodesicLength=0.6547228561448776 rxn_smarts="[N:1]#[C:2][C@@:3]1([H:8])[C:4]([H:9])([H:10])[C@@:5]2([H:11])[C:6]([H:12])([H:13])[N:7]12>>[N:1]#[C:2][C@@:3]1([H:8])[C:4]([H:9])([H:10])[C:6]([H:12])([H:13])[C:5]([H:11])=[N:7]1"
N        2.49077167      -1.55930062       0.87417746
C        1.78101063      -0.66596903       0.75210563
C        0.86247590       0.46256000       0.56730144
C        0.21742024       0.56612864      -0.82077042
C       -1.23439854       0.53965172       0.18569892
C       -1.15652982      -0.83905280      -0.24256156
N       -0.41472136       0.31595459       1.27902708
H        1.38737707       1.37442298       0.86444182
H        0.64858212      -0.05983096      -1.59914841
H        0.24495554       1.57682215      -1.22495024
H       -2.14815659       1.12782050       0.19931478
H       -1.29913114      -1.17848381      -1.26311708
H       -1.37965571      -1.66072336       0.42848057
13
Frame=10 idx=010368 GeodesicLength=0.7268253690716506 rxn_smarts="[N:1]#[C:2][C@@:3]1([H:8])[C:4]([H:9])([H:10])[C@@:5]2([H:11])[C:6]([H:12])([H:13])[N:7]12>>[N:1]#[C:2][C@@:3]1([H:8])[C:4]([H:9])([H:10])[C:6]([H:12])([H:13])[C:5]([H:11])=[N:7]1"
N        2.49432994      -1.55507874       0.87660816
C        1.78084517      -0.66530993       0.75073281
C        0.86045942       0.46063640       0.56191841
C        0.21858442       0.55853865      -0.82995156
C       -1.24043515       0.55101517       0.18940668
C       -1.13860521      -0.82837504      -0.23728254
N       -0.41811484       0.30335725       1.27283082
H        1.38039931       1.37342735       0.86247928
H        0.66757358      -0.06074223      -1.60390598
H        0.25233892       1.56815598      -1.23645233
H       -2.16561493       1.11831970       0.22842266
H       -1.28850357      -1.17438906      -1.25471273
H       -1.40325706      -1.64955549       0.41990631
13
Frame=11 idx=010368 GeodesicLength=0.7987927617222014 rxn_smarts="[N:1]#[C:2][C@@:3]1([H:8])[C:4]([H:9])([H:10])[C@@:5]2([H:11])[C:6]([H:12])([H:13])[N:7]12>>[N:1]#[C:2][C@@:3]1([H:8])[C:4]([H:9])([H:10])[C:6]([H:12])([H:13])[C:5]([H:11])=[N:7]1"
N        2.49746031      -1.55091398       0.87955365
C        1.78040178      -0.66465836       0.74969232
C        0.85845557       0.45887112       0.55653812
C        0.21973776       0.55069613      -0.83913817
C       -1.24642597       0.56216047       0.19341764
C       -1.12140960      -0.81764970      -0.23197251
N       -0.42148037       0.29143320       1.26666707
H        1.37361554       1.37258061       0.86015395
H        0.68635760      -0.06191991      -1.60831125
H        0.25943532       1.55918171      -1.24804545
H       -2.18224577       1.10790507       0.25784734
H       -1.27872554      -1.16965180      -1.24642494
H       -1.42517663      -1.63803457       0.41002223
13
Frame=12 idx=010368 GeodesicLength=0.8706494669753513 rxn_smarts="[N:1]#[C:2][C@@:3]1([H:8])[C:4]([H:9])([H:10])[C@@:5]2([H:11])[C:6]([H:12])([H:13])[N:7]12>>[N:1]#[C:2][C@@:3]1([H:8])[C:4]([H:9])([H:10])[C:6]([H:12])([H:13])[C:5]([H:11])=[N:7]1"
N        2.50010417      -1.54686423       0.88299990
C        1.77966116      -0.66404163       0.74892764
C        0.85643648       0.45724217       0.55115794
C        0.22084485       0.54262992      -0.84831131
C       -1.25241829       0.57309165       0.19775397
C       -1.10493690      -0.80686185      -0.22666414
N       -0.42484238       0.28014923       1.26055446
H        1.36699984       1.37184513       0.85748790
H        0.70488566      -0.06329282      -1.61239076
H        0.26620262       1.54994056      -1.25967777
H       -2.19797490       1.09677174       0.28737814
H       -1.26976504      -1.16428859      -1.23826839
H       -1.44519728      -1.62632128       0.39905242
13
Frame=13 idx=010368 GeodesicLength=0.9424234620680092 rxn_smarts="[N:1]#[C:2][C@@:3]1([H:8])[C:4]([H:9])([H:10])[C@@:5]2([H:11])[C:6]([H:12])([H:13])[N:7]12>>[N:1]#[C:2][C@@:3]1([H:8])[C:4]([H:9])([H:10])[C:6]([H:12])([H:13])[C:5]([H:11])=[N:7]1"
N        2.50229802      -1.54290944       0.88688235
C        1.77862949      -0.66346576       0.74840051
C        0.85439411       0.45573138       0.54577840
C        0.22190211       0.53435412      -0.85745966
C       -1.25842749       0.58379909       0.20241501
C       -1.08915174      -0.79602295      -0.22139579
N       -0.42820679       0.26944814       1.25450210
H        1.36053480       1.37120264       0.85451383
H        0.72316515      -0.06480987      -1.61615711
H        0.27263450       1.54045692      -1.27131505
H       -2.21278030       1.08501281       0.31691409
H       -1.26154554      -1.15835349      -1.23027668
H       -1.46344633      -1.61444359       0.38719799
13
Frame=14 idx=010368 GeodesicLength=1.0141338064768133 rxn_smarts="[N:1]#[C:2][C@@:3]1([H:8])[C:4]([H:9])([H:10])[C@@:5]2([H:11])[C:6]([H:12])([H:13])[N:7]12>>[N:1]#[C:2][C@@:3]1([H:8])[C:4]([H:9])([H:10])[C:6]([H:12])([H:13])[C:5]([H:11])=[N:7]1"
N        2.50409215      -1.53902411       0.89116618
C        1.77731496      -0.66294263       0.74807499
C        0.85232141       0.45431792       0.54040023
C        0.22290409       0.52587973      -0.86657589
C       -1.26446610       0.59427550       0.20740594
C       -1.07402481      -0.78514105      -0.21620067
N       -0.43157590       0.25927076       1.24852057
H        1.35420360       1.37063174       0.85126393
H        0.74119531      -0.06642743      -1.61962854
H        0.27872134       1.53075259      -1.28293146
H       -2.22664805       1.07273586       0.34635914
H       -1.25401518      -1.15188606      -1.22248037
H       -1.48002284      -1.60244282       0.37462596
13
Frame=15 idx=010368 GeodesicLength=1.0857997929183612 rxn_smarts="[N:1]#[C:2][C@@:3]1([H:8])[C:4]([H:9])([H:10])[C@@:5]2([H:11])[C:6]([H:12])([H:13])[N:7]12>>[N:1]#[C:2][C@@:3]1([H:8])[C:4]([H:9])([H:10])[C:6]([H:12])([H:13])[C:5]([H:11])=[N:7]1"
N        2.50553408      -1.53518905       0.89581148
C        1.77573031      -0.66248068       0.74792280
C        0.85021453       0.45298477       0.53502418
C        0.22385256       0.51721771      -0.87565587
C       -1.27054519       0.60451587       0.21272880
C       -1.05952494      -0.77422334      -0.21110764
N       -0.43495332       0.24956289       1.24261724
H        1.34799113       1.37011737       0.84776552
H        0.75898753      -0.06810475      -1.62282195
H        0.28446312       1.52085009      -1.29450796
H       -2.23958485       1.06003163       0.37563866
H       -1.24712115      -1.14492878      -1.21490300
H       -1.49504381      -1.59035372       0.36148774
13
Frame=16 idx=010368 GeodesicLength=1.157450869377977 rxn_smarts="[N:1]#[C:2][C@@:3]1([H:8])[C:4]([H:9])([H:10])[C@@:5]2([H:11])[C:6]([H:12])([H:13])[N:7]12>>[N:1]#[C:2][C@@:3]1([H:8])[C:4]([H:9])([H:10])[C:6]([H:12])([H:13])[C:5]([H:11])=[N:7]1"
N        2.50665150      -1.53138858       0.90080148
C        1.77388856      -0.66208442       0.74790533
C        0.84806835       0.45171599       0.52964603
C        0.22474924       0.50837374      -0.88469493
C       -1.27666788       0.61451359       0.21838887
C       -1.04561366      -0.76327498      -0.20613946
N       -0.43833759       0.24027291       1.23679327
H        1.34187477       1.36964368       0.84403997
H        0.77654795      -0.06980697      -1.62575436
H        0.28985406       1.51076230      -1.30602492
H       -2.25160114       1.04698660       0.40469571
H       -1.24081313      -1.13751216      -1.20756016
H       -1.50860102      -1.57820170       0.34790319
