16
Frame=0 idx=006478 GeodesicLength=0.0 rxn_smarts="[C:1]([C@@:2]([C:3]([O:4][H:14])([H:12])[H:13])([N:5]([C:6](=[O:7])[H:16])[H:15])[H:11])([H:8])([H:9])[H:10]>>[C:1]([C@@:2]([C:3](=[O:4])[H:12])([N:5]([C:6]([O:7][H:14])([H:13])[H:16])[H:15])[H:11])([H:8])([H:9])[H:10]"
C       -1.20672100       1.49324204      -0.27204024
C       -0.29206574       0.53326363       0.46174430
C       -0.69171491      -0.96700067       0.26279853
O       -0.39759378      -1.79174551       1.19695464
N        1.09073682       0.61252688      -0.02195076
C        1.52034112      -0.68914752      -0.36565067
O        1.85168595      -1.53446934       0.55776621
H       -0.86704678       2.52459210      -0.16022986
H       -2.22076641       1.43172857       0.12640184
H       -1.24791891       1.25738661      -1.33977616
H       -0.33269998       0.71893679       1.53791657
H       -1.62418307      -1.16057723      -0.29123603
H        0.22950322      -1.15508539      -0.70992601
H        0.91483494      -1.74550868       1.11631609
H        1.17787996       1.24034274      -0.80819601
H        2.09572853      -0.76848498      -1.29089250
16
Frame=1 idx=006478 GeodesicLength=0.0769784922829249 rxn_smarts="[C:1]([C@@:2]([C:3]([O:4][H:14])([H:12])[H:13])([N:5]([C:6](=[O:7])[H:16])[H:15])[H:11])([H:8])([H:9])[H:10]>>[C:1]([C@@:2]([C:3](=[O:4])[H:12])([N:5]([C:6]([O:7][H:14])([H:13])[H:16])[H:15])[H:11])([H:8])([H:9])[H:10]"
C       -1.21046951       1.49558119      -0.26570530
C       -0.29338763       0.52830237       0.45503350
C       -0.70262129      -0.96734519       0.25532455
O       -0.41158085      -1.79259720       1.19229220
N        1.08607235       0.61009788      -0.03840906
C        1.53341367      -0.68968010      -0.36555735
O        1.86070662      -1.51932324       0.57493617
H       -0.86394847       2.52450426      -0.15291952
H       -2.22078136       1.43713234       0.14237003
H       -1.26290820       1.26422198      -1.33391062
H       -0.31785728       0.71135681       1.53218053
H       -1.63963199      -1.15183637      -0.29351089
H        0.23435291      -1.17049166      -0.71818563
H        0.90902296      -1.74767255       1.12311154
H        1.16796963       1.23134052      -0.83034915
H        2.13164845      -0.76359104      -1.27670101
16
Frame=2 idx=006478 GeodesicLength=0.15391845012994343 rxn_smarts="[C:1]([C@@:2]([C:3]([O:4][H:14])([H:12])[H:13])([N:5]([C:6](=[O:7])[H:16])[H:15])[H:11])([H:8])([H:9])[H:10]>>[C:1]([C@@:2]([C:3](=[O:4])[H:12])([N:5]([C:6]([O:7][H:14])([H:13])[H:16])[H:15])[H:11])([H:8])([H:9])[H:10]"
C       -1.21401077       1.49788830      -0.25939285
C       -0.29477147       0.52323851       0.44825097
C       -0.71374223      -0.96771895       0.24792726
O       -0.42549291      -1.79344316       1.18764958
N        1.08127372       0.60733909      -0.05500222
C        1.54658744      -0.69005987      -0.36548549
O        1.86946862      -1.50381561       0.59184804
H       -0.86046291       2.52428819      -0.14579988
H       -2.22046951       1.44260898       0.15833978
H       -1.27776650       1.27103466      -1.32792791
H       -0.30313735       0.70361774       1.52613575
H       -1.65539050      -1.14299313      -0.29535150
H        0.23916093      -1.18621532      -0.72625931
H        0.90329025      -1.75007020       1.12954258
H        1.15785261       1.22183810      -0.85264736
H        2.16761055      -0.75753732      -1.26182743
16
Frame=3 idx=006478 GeodesicLength=0.23080577312641098 rxn_smarts="[C:1]([C@@:2]([C:3]([O:4][H:14])([H:12])[H:13])([N:5]([C:6](=[O:7])[H:16])[H:15])[H:11])([H:8])([H:9])[H:10]>>[C:1]([C@@:2]([C:3](=[O:4])[H:12])([N:5]([C:6]([O:7][H:14])([H:13])[H:16])[H:15])[H:11])([H:8])([H:9])[H:10]"
C       -1.21733302       1.50016005      -0.25311331
C       -0.29622062       0.51806404       0.44139727
C       -0.72508786      -0.96812460       0.24061322
O       -0.43932785      -1.79429132       1.18302916
N        1.07634137       0.60423508      -0.07171729
C        1.55986796      -0.69027912      -0.36543959
O        1.87796412      -1.48796935       0.60847031
H       -0.85657620       2.52393630      -0.13888417
H       -2.21981878       1.44816415       0.17429393
H       -1.29247372       1.27782114      -1.32183676
H       -0.28855441       0.69571392       1.51978399
H       -1.67147168      -1.13404000      -0.29672811
H        0.24391941      -1.20225803      -0.73414739
H        0.89765486      -1.75269333       1.13561037
H        1.14753584       1.21182554      -0.87506960
H        2.20358058      -0.75026447      -1.24626204
16
Frame=4 idx=006478 GeodesicLength=0.30765121997802014 rxn_smarts="[C:1]([C@@:2]([C:3]([O:4][H:14])([H:12])[H:13])([N:5]([C:6](=[O:7])[H:16])[H:15])[H:11])([H:8])([H:9])[H:10]>>[C:1]([C@@:2]([C:3](=[O:4])[H:12])([N:5]([C:6]([O:7][H:14])([H:13])[H:16])[H:15])[H:11])([H:8])([H:9])[H:10]"
C       -1.22042151       1.50239154      -0.24688009
C       -0.29773755       0.51277074       0.43447502
C       -0.73666718      -0.96856504       0.23339110
O       -0.45308637      -1.79515238       1.17843236
N        1.07127828       0.60077118      -0.08853430
C        1.57326087      -0.69032951      -0.36542811
O        1.88619949      -1.47181852       0.62476218
H       -0.85227426       2.52343973      -0.13218777
H       -2.21881767       1.45379968       0.19020686
H       -1.30699911       1.28457681      -1.31564918
H       -0.27412541       0.68763973       1.51313129
H       -1.68788356      -1.12497223      -0.29761522
H        0.24862176      -1.21862343      -0.74184737
H        0.89212848      -1.75551970       1.14133435
H        1.13703241       1.20129806      -0.89757869
H        2.23949133      -0.74170665      -1.23001241
16
Frame=5 idx=006478 GeodesicLength=0.3844532275621889 rxn_smarts="[C:1]([C@@:2]([C:3]([O:4][H:14])([H:12])[H:13])([N:5]([C:6](=[O:7])[H:16])[H:15])[H:11])([H:8])([H:9])[H:10]>>[C:1]([C@@:2]([C:3](=[O:4])[H:12])([N:5]([C:6]([O:7][H:14])([H:13])[H:16])[H:15])[H:11])([H:8])([H:9])[H:10]"
C       -1.22326419       1.50457891      -0.24070371
C       -0.29932506       0.50735026       0.42748560
C       -0.74849030      -0.96904174       0.22626697
O       -0.46676970      -1.79603661       1.17385838
N        1.06608689       0.59693253      -0.10543765
C        1.58677310      -0.69020108      -0.36545621
O        1.89417810      -1.45539357       0.64069053
H       -0.84754424       2.52279041      -0.12572304
H       -2.21745511       1.45951951       0.20605913
H       -1.32132043       1.29129842      -1.30937525
H       -0.25986532       0.67938811       1.50618188
H       -1.70463489      -1.11578082      -0.29798768
H        0.25326440      -1.23531521      -0.74935897
H        0.88672221      -1.75853253       1.14672770
H        1.12635395       1.19024937      -0.92014891
H        2.27529059      -0.73180596      -1.21307877
16
Frame=6 idx=006478 GeodesicLength=0.46120908914268266 rxn_smarts="[C:1]([C@@:2]([C:3]([O:4][H:14])([H:12])[H:13])([N:5]([C:6](=[O:7])[H:16])[H:15])[H:11])([H:8])([H:9])[H:10]>>[C:1]([C@@:2]([C:3](=[O:4])[H:12])([N:5]([C:6]([O:7][H:14])([H:13])[H:16])[H:15])[H:11])([H:8])([H:9])[H:10]"
C       -1.22584764       1.50671818      -0.23459640
C       -0.30098544       0.50179374       0.42043046
C       -0.76056643      -0.96955719       0.21924553
O       -0.48038059      -1.79695578       1.16930464
N        1.06077118       0.59270392      -0.12240957
C        1.60041297      -0.68988465      -0.36552842
O        1.90190662      -1.43872672       0.65622444
H       -0.84237256       2.52197949      -0.11950334
H       -2.21571924       1.46532759       0.22183041
H       -1.33541263       1.29798337      -1.30302686
H       -0.24578918       0.67095143       1.49894198
H       -1.72173198      -1.10645733      -0.29781985
H        0.25784319      -1.25233769      -0.75668184
H        0.88144503      -1.76171400       1.15180800
H        1.11551395       1.17867242      -0.94275240
H        2.31091274      -0.72049677      -1.19546677
16
Frame=7 idx=006478 GeodesicLength=0.5379291544212331 rxn_smarts="[C:1]([C@@:2]([C:3]([O:4][H:14])([H:12])[H:13])([N:5]([C:6](=[O:7])[H:16])[H:15])[H:11])([H:8])([H:9])[H:10]>>[C:1]([C@@:2]([C:3](=[O:4])[H:12])([N:5]([C:6]([O:7][H:14])([H:13])[H:16])[H:15])[H:11])([H:8])([H:9])[H:10]"
C       -1.22815844       1.50880476      -0.22856960
C       -0.30272005       0.49609263       0.41331213
C       -0.77290392      -0.97011138       0.21233240
O       -0.49392405      -1.79792149       1.16476836
N        1.05533612       0.58807225      -0.13943188
C        1.61419121      -0.68936842      -0.36564855
O        1.90940123      -1.42184631       0.67133675
H       -0.83674778       2.52099781      -0.11353869
H       -2.21359920       1.47122528       0.23749766
H       -1.34924888       1.30462975      -1.29661588
H       -0.23191174       0.66232098       1.49141859
H       -1.73917529      -1.09699160      -0.29709443
H        0.26235806      -1.26969628      -0.76381333
H        0.87630053      -1.76504803       1.15659543
H        1.10452831       1.16656377      -0.96535881
H        2.34627390      -0.70772372      -1.17719016
16
Frame=8 idx=006478 GeodesicLength=0.6146225115487876 rxn_smarts="[C:1]([C@@:2]([C:3]([O:4][H:14])([H:12])[H:13])([N:5]([C:6](=[O:7])[H:16])[H:15])[H:11])([H:8])([H:9])[H:10]>>[C:1]([C@@:2]([C:3](=[O:4])[H:12])([N:5]([C:6]([O:7][H:14])([H:13])[H:16])[H:15])[H:11])([H:8])([H:9])[H:10]"
C       -1.23018452       1.51083322      -0.22263380
C       -0.30453158       0.49023842       0.40613275
C       -0.78551258      -0.97070221       0.20553010
O       -0.50740687      -1.79894565       1.16024514
N        1.04978595       0.58302588      -0.15648659
C        1.62812170      -0.68863856      -0.36581781
O        1.91667715      -1.40478183       0.68600608
H       -0.83065830       2.51983415      -0.10784002
H       -2.21108248       1.47721503       0.25304104
H       -1.36280666       1.31123427      -1.29015282
H       -0.21824837       0.65348717       1.48362049
H       -1.75696595      -1.08736731      -0.29579373
H        0.26681110      -1.28739586      -0.77075019
H        0.87129155      -1.76852303       1.16110960
H        1.09341202       1.15391850      -0.98794314
H        2.38129784      -0.69343220      -1.15826711
16
Frame=9 idx=006478 GeodesicLength=0.6912581943886937 rxn_smarts="[C:1]([C@@:2]([C:3]([O:4][H:14])([H:12])[H:13])([N:5]([C:6](=[O:7])[H:16])[H:15])[H:11])([H:8])([H:9])[H:10]>>[C:1]([C@@:2]([C:3](=[O:4])[H:12])([N:5]([C:6]([O:7][H:14])([H:13])[H:16])[H:15])[H:11])([H:8])([H:9])[H:10]"
C       -1.23192225       1.51280195      -0.21679349
C       -0.30641721       0.48422909       0.39889012
C       -0.79838668      -0.97133306       0.19882972
O       -0.52083193      -1.80003883       1.15570232
N        1.04412727       0.57757185      -0.17356043
C        1.64223101      -0.68765264      -0.36601971
O        1.92375437      -1.38755254       0.70022166
H       -0.82411078       2.51848558      -0.10240814
H       -2.20817015       1.48328643       0.26845436
H       -1.37606984       1.31780637      -1.28364795
H       -0.20480631       0.64444840       1.47555532
H       -1.77508047      -1.07758649      -0.29391047
H        0.27123324      -1.30542424      -0.77750154
H        0.86641858      -1.77210436       1.16536369
H        1.08217575       1.14076899      -1.01046600
H        2.41585540      -0.67770651      -1.13870945
16
Frame=10 idx=006478 GeodesicLength=0.7678700198296494 rxn_smarts="[C:1]([C@@:2]([C:3]([O:4][H:14])([H:12])[H:13])([N:5]([C:6](=[O:7])[H:16])[H:15])[H:11])([H:8])([H:9])[H:10]>>[C:1]([C@@:2]([C:3](=[O:4])[H:12])([N:5]([C:6]([O:7][H:14])([H:13])[H:16])[H:15])[H:11])([H:8])([H:9])[H:10]"
C       -1.23335200       1.51470552      -0.21106372
C       -0.30838275       0.47805120       0.39159115
C       -0.81154726      -0.97199869       0.19224485
O       -0.53421022      -1.80121483       1.15115561
N        1.03836430       0.57168368      -0.19063073
C        1.65651894      -0.68641439      -0.36626177
O        1.93065115      -1.37018316       0.71396701
H       -0.81707925       2.51693738      -0.09725730
H       -2.20484283       1.48945303       0.28370670
H       -1.38900631       1.32433760      -1.27711484
H       -0.19160668       0.63518746       1.46723300
H       -1.79353337      -1.06762507      -0.29142225
H        0.27560457      -1.32380101      -0.78405549
H        0.86168186      -1.77580770       1.16937599
H        1.07084043       1.12708272      -1.03291397
H        2.44989943      -0.66039374      -1.11855423
16
Frame=11 idx=006478 GeodesicLength=0.844444546397102 rxn_smarts="[C:1]([C@@:2]([C:3]([O:4][H:14])([H:12])[H:13])([N:5]([C:6](=[O:7])[H:16])[H:15])[H:11])([H:8])([H:9])[H:10]>>[C:1]([C@@:2]([C:3](=[O:4])[H:12])([N:5]([C:6]([O:7][H:14])([H:13])[H:16])[H:15])[H:11])([H:8])([H:9])[H:10]"
C       -1.23446317       1.51654159      -0.20545250
C       -0.31042890       0.47169762       0.38423716
C       -0.82500161      -0.97269966       0.18577568
O       -0.54754837      -1.80248599       1.14659249
N        1.03250240       0.56535250      -0.20768248
C        1.67099477      -0.68490274      -0.36653809
O        1.93738626      -1.35268852       0.72723465
H       -0.80955477       2.51518226      -0.09239269
H       -2.20109187       1.49571856       0.29878478
H       -1.40159296       1.33083067      -1.27056517
H       -0.17866063       0.62569511       1.45866281
H       -1.81231850      -1.05747651      -0.28831673
H        0.27993682      -1.34252876      -0.79041249
H        0.85708067      -1.77962387       1.17315821
H        1.05941982       1.11286129      -1.05526319
H        2.48334004      -0.64147356      -1.09782245
16
Frame=12 idx=006478 GeodesicLength=0.9209921866655857 rxn_smarts="[C:1]([C@@:2]([C:3]([O:4][H:14])([H:12])[H:13])([N:5]([C:6](=[O:7])[H:16])[H:15])[H:11])([H:8])([H:9])[H:10]>>[C:1]([C@@:2]([C:3](=[O:4])[H:12])([N:5]([C:6]([O:7][H:14])([H:13])[H:16])[H:15])[H:11])([H:8])([H:9])[H:10]"
C       -1.23524526       1.51830659      -0.19996839
C       -0.31255606       0.46516280       0.37683270
C       -0.83875216      -0.97343244       0.17942303
O       -0.56085385      -1.80386387       1.14200163
N        1.02654880       0.55857797      -0.22469352
C        1.68567923      -0.68308487      -0.36683487
O        1.94399093      -1.33507603       0.74002632
H       -0.80153392       2.51321282      -0.08781456
H       -2.19691448       1.50207797       0.31366441
H       -1.41379975       1.33728912      -1.26401186
H       -0.16598371       0.61596189       1.44985790
H       -1.83141643      -1.04713123      -0.28459285
H        0.28424396      -1.36160778      -0.79656721
H        0.85261052      -1.78355123       1.17672355
H        1.04793344       1.09811883      -1.07747923
H        2.51604873      -0.62096052      -1.07656705
16
Frame=13 idx=006478 GeodesicLength=0.9975035446688961 rxn_smarts="[C:1]([C@@:2]([C:3]([O:4][H:14])([H:12])[H:13])([N:5]([C:6](=[O:7])[H:16])[H:15])[H:11])([H:8])([H:9])[H:10]>>[C:1]([C@@:2]([C:3](=[O:4])[H:12])([N:5]([C:6]([O:7][H:14])([H:13])[H:16])[H:15])[H:11])([H:8])([H:9])[H:10]"
C       -1.23568950       1.51999835      -0.19461742
C       -0.31476593       0.45843992       0.36937846
C       -0.85280855      -0.97419371       0.17318531
O       -0.57413627      -1.80536008       1.13736912
N        1.02050733       0.55135094      -0.24165330
C        1.70058314      -0.68093539      -0.36714159
O        1.95047968      -1.31735778       0.75234366
H       -0.79300698       2.51101958      -0.08352820
H       -2.19230038       1.50853632       0.32833927
H       -1.42561317       1.34371517      -1.25746385
H       -0.15358595       0.60597761       1.44082746
H       -1.85082183      -1.03657487      -0.28023704
H        0.28853739      -1.38104161      -0.80251967
H        0.84826865      -1.78759166       1.18007775
H        1.03639177       1.08285136      -1.09954968
H        2.54796061      -0.59883415      -1.05481030
16
Frame=14 idx=006478 GeodesicLength=1.0739848947414252 rxn_smarts="[C:1]([C@@:2]([C:3]([O:4][H:14])([H:12])[H:13])([N:5]([C:6](=[O:7])[H:16])[H:15])[H:11])([H:8])([H:9])[H:10]>>[C:1]([C@@:2]([C:3](=[O:4])[H:12])([N:5]([C:6]([O:7][H:14])([H:13])[H:16])[H:15])[H:11])([H:8])([H:9])[H:10]"
C       -1.23578653       1.52161364      -0.18940586
C       -0.31705983       0.45152280       0.36187773
C       -0.86717743      -0.97497811       0.16706290
O       -0.58740643      -1.80698647       1.13268090
N        1.01438375       0.54366556      -0.25854627
C        1.71572139      -0.67842070      -0.36744332
O        1.95687651      -1.29953742       0.76419531
H       -0.78396644       2.50859292      -0.07953663
H       -2.18724154       1.51509399       0.34279584
H       -1.43701249       1.35011227      -1.25093139
H       -0.14147900       0.59573224       1.43158325
H       -1.87051972      -1.02579298      -0.27524334
H        0.29283202      -1.40083353      -0.80826564
H        0.84404866      -1.79175312       1.18322507
H        1.02480928       1.06706030      -1.12145488
H        2.57897781      -0.57509139      -1.03259367
16
Frame=15 idx=006478 GeodesicLength=1.1504396610701422 rxn_smarts="[C:1]([C@@:2]([C:3]([O:4][H:14])([H:12])[H:13])([N:5]([C:6](=[O:7])[H:16])[H:15])[H:11])([H:8])([H:9])[H:10]>>[C:1]([C@@:2]([C:3](=[O:4])[H:12])([N:5]([C:6]([O:7][H:14])([H:13])[H:16])[H:15])[H:11])([H:8])([H:9])[H:10]"
C       -1.23552671       1.52314971      -0.18433848
C       -0.31943836       0.44440545       0.35433267
C       -0.88186680      -0.97577976       0.16105530
O       -0.60067606      -1.80875395       1.12792259
N        1.00818353       0.53551502      -0.27536098
C        1.73110771      -0.67550785      -0.36772494
O        1.96320180      -1.28161747       0.77559218
H       -0.77440406       2.50592326      -0.07584215
H       -2.18172910       1.52175262       0.35702495
H       -1.44797984       1.35648371      -1.24442295
H       -0.12967200       0.58521496       1.42213698
H       -1.89049636      -1.01477118      -0.26960677
H        0.29714183      -1.42098824      -0.81380118
H        0.83994275      -1.79604463       1.18616765
H        1.01319820       1.05074312      -1.14318077
H        2.60901346      -0.54972477      -1.00995411
16
Frame=16 idx=006478 GeodesicLength=1.2268702245759495 rxn_smarts="[C:1]([C@@:2]([C:3]([O:4][H:14])([H:12])[H:13])([N:5]([C:6](=[O:7])[H:16])[H:15])[H:11])([H:8])([H:9])[H:10]>>[C:1]([C@@:2]([C:3](=[O:4])[H:12])([N:5]([C:6]([O:7][H:14])([H:13])[H:16])[H:15])[H:11])([H:8])([H:9])[H:10]"
C       -1.23490062       1.52460332      -0.17942096
C       -0.32190241       0.43708296       0.34674731
C       -0.89688301      -0.97659115       0.15516361
O       -0.61395585      -1.81067398       1.12307865
N        1.00191384       0.52689492      -0.29208095
C        1.74675637      -0.67215733      -0.36796640
O        1.96947732      -1.26359662       0.78655030
H       -0.76431347       2.50300097      -0.07244484
H       -2.17575672       1.52851069       0.37101268
H       -1.45849255       1.36283232      -1.23794900
H       -0.11817662       0.57441589       1.41250267
H       -1.91073221      -1.00349548      -0.26332550
H        0.30148370      -1.44150830      -0.81912090
H        0.83594423      -1.80047793       1.18890648
H        1.00157567       1.03390265      -1.16470675
H        2.63796233      -0.52274295      -0.98694641
