13
Frame=0 idx=001150 GeodesicLength=0.0 rxn_smarts="[C:1]([C:2]([C:3]([H:10])([H:11])[H:12])([C:4](=[O:5])[H:13])[H:9])([H:6])([H:7])[H:8]>>[C:1]([C:2]([C:3]([O+:5]=[C-:4][H:13])([H:10])[H:12])([H:9])[H:11])([H:6])([H:7])[H:8]"
C       -1.49176978       0.12254840       0.27264239
C       -0.28034609      -0.24953745      -0.55051975
C        0.81989723      -0.99388539      -0.02968115
C        1.14571298       1.50179092       0.07488468
O        1.90919012       0.65593854       0.51254400
H       -2.33516594      -0.55069307       0.09584024
H       -1.25772639       0.10744258       1.33760977
H       -1.80406980       1.13198283       0.01777214
H       -0.24204034       0.04765148      -1.58923349
H        1.57959067      -1.36881071      -0.69985541
H       -0.32558124      -1.52575293      -0.66076839
H        0.75558535      -1.41709399       0.96335882
H        1.52672320       2.53841884       0.25540617
13
Frame=1 idx=001150 GeodesicLength=0.04767035013862686 rxn_smarts="[C:1]([C:2]([C:3]([H:10])([H:11])[H:12])([C:4](=[O:5])[H:13])[H:9])([H:6])([H:7])[H:8]>>[C:1]([C:2]([C:3]([O+:5]=[C-:4][H:13])([H:10])[H:12])([H:9])[H:11])([H:6])([H:7])[H:8]"
C       -1.48658166       0.12835092       0.27533464
C       -0.27621877      -0.24443508      -0.54971932
C        0.82315186      -0.99565364      -0.02699363
C        1.15958111       1.49092057       0.03083487
O        1.89512191       0.65164940       0.52822593
H       -2.33411951      -0.53607693       0.08644879
H       -1.25919913       0.09794656       1.34152874
H       -1.79074296       1.14369564       0.03330663
H       -0.24828323       0.04411231      -1.59175444
H        1.58728649      -1.36065499      -0.69821300
H       -0.32207954      -1.53100953      -0.65991756
H        0.75620002      -1.42042130       0.96558260
H        1.49588342       2.53157606       0.26533574
13
Frame=2 idx=001150 GeodesicLength=0.09534151852100464 rxn_smarts="[C:1]([C:2]([C:3]([H:10])([H:11])[H:12])([C:4](=[O:5])[H:13])[H:9])([H:6])([H:7])[H:8]>>[C:1]([C:2]([C:3]([O+:5]=[C-:4][H:13])([H:10])[H:12])([H:9])[H:11])([H:6])([H:7])[H:8]"
C       -1.48160596       0.13379344       0.27827397
C       -0.27183633      -0.23861419      -0.54845464
C        0.82636412      -0.99731378      -0.02414217
C        1.17319879       1.47908845      -0.00688672
O        1.88045548       0.64753601       0.54451355
H       -2.33310248      -0.52122167       0.07588268
H       -1.26176843       0.08658566       1.34553843
H       -1.77716001       1.15521874       0.05049919
H       -0.25315811       0.04331494      -1.59304871
H        1.59518004      -1.35189937      -0.69621309
H       -0.31818133      -1.53553153      -0.66016452
H        0.75652205      -1.42403145       0.96775984
H        1.46509217       2.52307475       0.26644220
13
Frame=3 idx=001150 GeodesicLength=0.14317803592725414 rxn_smarts="[C:1]([C:2]([C:3]([H:10])([H:11])[H:12])([C:4](=[O:5])[H:13])[H:9])([H:6])([H:7])[H:8]>>[C:1]([C:2]([C:3]([O+:5]=[C-:4][H:13])([H:10])[H:12])([H:9])[H:11])([H:6])([H:7])[H:8]"
C       -1.47663462       0.13915878       0.28134686
C       -0.26726742      -0.23240259      -0.54698629
C        0.82957197      -0.99900229      -0.02126799
C        1.18685222       1.46636549      -0.04029614
O        1.86553242       0.64358612       0.56067748
H       -2.33196481      -0.50598153       0.06487983
H       -1.26478516       0.07450577       1.34941832
H       -1.76328028       1.16660790       0.06857334
H       -0.25708588       0.04426903      -1.59363690
H        1.60313733      -1.34303863      -0.69398974
H       -0.31408515      -1.53972757      -0.66108004
H        0.75673029      -1.42774200       0.96990615
H        1.43327909       2.51340154       0.26245512
13
Frame=4 idx=001150 GeodesicLength=0.19109449037870874 rxn_smarts="[C:1]([C:2]([C:3]([H:10])([H:11])[H:12])([C:4](=[O:5])[H:13])[H:9])([H:6])([H:7])[H:8]>>[C:1]([C:2]([C:3]([O+:5]=[C-:4][H:13])([H:10])[H:12])([H:9])[H:11])([H:6])([H:7])[H:8]"
C       -1.47189889       0.14420178       0.28455111
C       -0.26264897      -0.22584973      -0.54526434
C        0.83273902      -1.00059411      -0.01830653
C        1.20011284       1.45318373      -0.06977836
O        1.85026499       0.63995601       0.57658596
H       -2.33089322      -0.49048610       0.05314676
H       -1.26867795       0.06112749       1.35313249
H       -1.74929731       1.17763391       0.08780828
H       -0.26029534       0.04677682      -1.59355320
H        1.61113641      -1.33393655      -0.69146223
H       -0.30974684      -1.54366575      -0.66255123
H        0.75687508      -1.43135731       0.97212075
H        1.40233018       2.50300981       0.25357054
13
Frame=5 idx=001150 GeodesicLength=0.23904305325679076 rxn_smarts="[C:1]([C:2]([C:3]([H:10])([H:11])[H:12])([C:4](=[O:5])[H:13])[H:9])([H:6])([H:7])[H:8]>>[C:1]([C:2]([C:3]([O+:5]=[C-:4][H:13])([H:10])[H:12])([H:9])[H:11])([H:6])([H:7])[H:8]"
C       -1.46742160       0.14894219       0.28782870
C       -0.25802863      -0.21904786      -0.54333410
C        0.83586617      -1.00207278      -0.01526352
C        1.21287536       1.43970206      -0.09597453
O        1.83497695       0.63662840       0.59178887
H       -2.32988274      -0.47474699       0.04081974
H       -1.27339884       0.04668849       1.35656659
H       -1.73530528       1.18821772       0.10799354
H       -0.26294076       0.05050033      -1.59293510
H        1.61908189      -1.32475141      -0.68865675
H       -0.30520763      -1.54745841      -0.66438952
H        0.75703095      -1.43468047       0.97448278
H        1.37235416       2.49207871       0.24107330
13
Frame=6 idx=001150 GeodesicLength=0.28705346169247337 rxn_smarts="[C:1]([C:2]([C:3]([H:10])([H:11])[H:12])([C:4](=[O:5])[H:13])[H:9])([H:6])([H:7])[H:8]>>[C:1]([C:2]([C:3]([O+:5]=[C-:4][H:13])([H:10])[H:12])([H:9])[H:11])([H:6])([H:7])[H:8]"
C       -1.46323049       0.15333793       0.29118897
C       -0.25345759      -0.21206494      -0.54120353
C        0.83896047      -1.00339674      -0.01211314
C        1.22509406       1.42609382      -0.11953324
O        1.81956367       0.63370385       0.60631645
H       -2.32901622      -0.45857075       0.02772461
H       -1.27911398       0.03085318       1.35966267
H       -1.72118729       1.19834069       0.12938554
H       -0.26519122       0.05516733      -1.59186360
H        1.62699120      -1.31544465      -0.68553597
H       -0.30045565      -1.55119192      -0.66645622
H        0.75725015      -1.43764632       0.97703380
H        1.34379290       2.48081852       0.22539367
13
Frame=7 idx=001150 GeodesicLength=0.3351276587706877 rxn_smarts="[C:1]([C:2]([C:3]([H:10])([H:11])[H:12])([C:4](=[O:5])[H:13])[H:9])([H:6])([H:7])[H:8]>>[C:1]([C:2]([C:3]([O+:5]=[C-:4][H:13])([H:10])[H:12])([H:9])[H:11])([H:6])([H:7])[H:8]"
C       -1.45928509       0.15744885       0.29460121
C       -0.24895096      -0.20495625      -0.53893151
C        0.84202303      -1.00458133      -0.00888834
C        1.23678342       1.41240889      -0.14088709
O        1.80411442       0.63114120       0.62010139
H       -2.32821463      -0.44197708       0.01412572
H       -1.28563800       0.01399446       1.36232947
H       -1.70700107       1.20794445       0.15174360
H       -0.26712713       0.06059007      -1.59044344
H        1.63483539      -1.30608772      -0.68214494
H       -0.29551943      -1.55493196      -0.66868522
H        0.75753665      -1.44024105       0.97975659
H        1.31644339       2.46924748       0.20732256
13
Frame=8 idx=001150 GeodesicLength=0.3833068524611857 rxn_smarts="[C:1]([C:2]([C:3]([H:10])([H:11])[H:12])([C:4](=[O:5])[H:13])[H:9])([H:6])([H:7])[H:8]>>[C:1]([C:2]([C:3]([O+:5]=[C-:4][H:13])([H:10])[H:12])([H:9])[H:11])([H:6])([H:7])[H:8]"
C       -1.45557488       0.16128094       0.29806946
C       -0.24452416      -0.19776428      -0.53652517
C        0.84506948      -1.00560838      -0.00556473
C        1.24796659       1.39872842      -0.16047900
O        1.78863388       0.62899252       0.63311034
H       -2.32751419      -0.42473356      -0.00010997
H       -1.29308521      -0.00411298       1.36449364
H       -1.69260023       1.21703508       0.17527772
H       -0.26883929       0.06658655      -1.58872723
H        1.64262032      -1.29669835      -0.67846018
H       -0.29039399      -1.55873864      -0.67096297
H        0.75793830      -1.44240206       0.98270152
H        1.29030338       2.45743474       0.18717657
13
Frame=9 idx=001150 GeodesicLength=0.43151559630237457 rxn_smarts="[C:1]([C:2]([C:3]([H:10])([H:11])[H:12])([C:4](=[O:5])[H:13])[H:9])([H:6])([H:7])[H:8]>>[C:1]([C:2]([C:3]([O+:5]=[C-:4][H:13])([H:10])[H:12])([H:9])[H:11])([H:6])([H:7])[H:8]"
C       -1.45213962       0.16482232       0.30155852
C       -0.24020234      -0.19050994      -0.53399323
C        0.84809552      -1.00645644      -0.00213223
C        1.25853265       1.38516007      -0.17850343
O        1.77332284       0.62723145       0.64515699
H       -2.32690494      -0.40685618      -0.01491250
H       -1.30147168      -0.02337438       1.36605113
H       -1.67806680       1.22551215       0.19990590
H       -0.27038421       0.07303259      -1.58675567
H        1.65029276      -1.28733492      -0.67450375
H       -0.28509204      -1.56264652      -0.67320787
H        0.75848189      -1.44402807       0.98591849
H        1.26553595       2.44544787       0.16541766
13
Frame=10 idx=001150 GeodesicLength=0.4798492542416109 rxn_smarts="[C:1]([C:2]([C:3]([H:10])([H:11])[H:12])([C:4](=[O:5])[H:13])[H:9])([H:6])([H:7])[H:8]>>[C:1]([C:2]([C:3]([O+:5]=[C-:4][H:13])([H:10])[H:12])([H:9])[H:11])([H:6])([H:7])[H:8]"
C       -1.44888984       0.16815021       0.30508338
C       -0.23596907      -0.18322456      -0.53137415
C        0.85111672      -1.00714856       0.00139335
C        1.26862764       1.37167539      -0.19530427
O        1.75808631       0.62585969       0.65638910
H       -2.32631684      -0.38815923      -0.03018980
H       -1.31070788      -0.04369687       1.36693904
H       -1.66327150       1.23339018       0.22564710
H       -0.27179686       0.07982325      -1.58458921
H        1.65788372      -1.27800820      -0.67028724
H       -0.27961906      -1.56669514      -0.67538571
H        0.75916324      -1.44518420       0.98937436
H        1.24169341       2.43321805       0.14230406
13
Frame=11 idx=001150 GeodesicLength=0.5282346782864571 rxn_smarts="[C:1]([C:2]([C:3]([H:10])([H:11])[H:12])([C:4](=[O:5])[H:13])[H:9])([H:6])([H:7])[H:8]>>[C:1]([C:2]([C:3]([O+:5]=[C-:4][H:13])([H:10])[H:12])([H:9])[H:11])([H:6])([H:7])[H:8]"
C       -1.44586157       0.17125104       0.30861153
C       -0.23184779      -0.17592031      -0.52868408
C        0.85412328      -1.00767445       0.00500980
C        1.27814904       1.35835360      -0.21097229
O        1.74305236       0.62484040       0.66672645
H       -2.32572711      -0.36872316      -0.04580367
H       -1.32075251      -0.06490559       1.36707332
H       -1.64832442       1.24055982       0.25236757
H       -0.27311359       0.08689073      -1.58226229
H        1.66535777      -1.26874337      -0.66584139
H       -0.27398570      -1.57090835      -0.67746288
H        0.75998042      -1.44582348       0.99308619
H        1.21894982       2.42080312       0.11815173
13
Frame=12 idx=001150 GeodesicLength=0.5766307222035114 rxn_smarts="[C:1]([C:2]([C:3]([H:10])([H:11])[H:12])([C:4](=[O:5])[H:13])[H:9])([H:6])([H:7])[H:8]>>[C:1]([C:2]([C:3]([O+:5]=[C-:4][H:13])([H:10])[H:12])([H:9])[H:11])([H:6])([H:7])[H:8]"
C       -1.44305416       0.17414460       0.31211541
C       -0.22784385      -0.16860963      -0.52594306
C        0.85711212      -1.00803561       0.00871116
C        1.28706419       1.34524373      -0.22563891
O        1.72834172       0.62412662       0.67611432
H       -2.32509693      -0.34857667      -0.06162676
H       -1.33153453      -0.08681437       1.36638504
H       -1.63328267       1.24695665       0.27993218
H       -0.27435684       0.09415884      -1.57981308
H        1.67268442      -1.25957516      -0.66120399
H       -0.26821073      -1.57531076      -0.67939266
H        0.76093208      -1.44591809       0.99706215
H        1.19724520       2.40820986       0.09329819
13
Frame=13 idx=001150 GeodesicLength=0.6251258876533485 rxn_smarts="[C:1]([C:2]([C:3]([H:10])([H:11])[H:12])([C:4](=[O:5])[H:13])[H:9])([H:6])([H:7])[H:8]>>[C:1]([C:2]([C:3]([O+:5]=[C-:4][H:13])([H:10])[H:12])([H:9])[H:11])([H:6])([H:7])[H:8]"
C       -1.44040454       0.17687052       0.31562362
C       -0.22394779      -0.16131036      -0.52317187
C        0.86009366      -1.00824369       0.01249399
C        1.29548576       1.33230913      -0.23950795
O        1.71379292       0.62374778       0.68474276
H       -2.32438177      -0.32753907      -0.07762896
H       -1.34304023      -0.10945708       1.36482256
H       -1.61801507       1.25256899       0.30844880
H       -0.27554877       0.10158743      -1.57726889
H        1.67990930      -1.25047446      -0.65636193
H       -0.26228017      -1.57992459      -0.68117386
H        0.76200356      -1.44553964       1.00127089
H        1.17633313       2.39540504       0.06771083
13
Frame=14 idx=001150 GeodesicLength=0.6736634987194263 rxn_smarts="[C:1]([C:2]([C:3]([H:10])([H:11])[H:12])([C:4](=[O:5])[H:13])[H:9])([H:6])([H:7])[H:8]>>[C:1]([C:2]([C:3]([O+:5]=[C-:4][H:13])([H:10])[H:12])([H:9])[H:11])([H:6])([H:7])[H:8]"
C       -1.43792779       0.17943455       0.31910439
C       -0.22017113      -0.15403259      -0.52039175
C        0.86306061      -1.00830069       0.01634933
C        1.30335139       1.31959763      -0.25263361
O        1.69950802       0.62365478       0.69257006
H       -2.32355469      -0.30569561      -0.09365875
H       -1.35518286      -0.13261767       1.36233279
H       -1.60260935       1.25731998       0.33775067
H       -0.27670747       0.10912553      -1.57466363
H        1.68700585      -1.24146189      -0.65135296
H       -0.25620681      -1.58477166      -0.68278361
H        0.76318281      -1.44466878       1.00571311
H        1.15625144       2.38241644       0.04166396
13
Frame=15 idx=001150 GeodesicLength=0.7222340463216963 rxn_smarts="[C:1]([C:2]([C:3]([H:10])([H:11])[H:12])([C:4](=[O:5])[H:13])[H:9])([H:6])([H:7])[H:8]>>[C:1]([C:2]([C:3]([O+:5]=[C-:4][H:13])([H:10])[H:12])([H:9])[H:11])([H:6])([H:7])[H:8]"
C       -1.43560672       0.18186028       0.32254893
C       -0.21651349      -0.14678305      -0.51762204
C        0.86601078      -1.00821502       0.02026537
C        1.31067218       1.30712116      -0.26509549
O        1.68550174       0.62381530       0.69963701
H       -2.32257301      -0.28307602      -0.10959336
H       -1.36788522      -0.15613356       1.35888635
H       -1.58709920       1.26116545       0.36771978
H       -0.27784411       0.11673986      -1.57202436
H        1.69396763      -1.23254230      -0.64620610
H       -0.25000028      -1.58986724      -0.68420964
H        0.76445370      -1.44332571       1.01037010
H        1.13691601       2.36924084       0.01532346
13
Frame=16 idx=001150 GeodesicLength=0.7708150404690078 rxn_smarts="[C:1]([C:2]([C:3]([H:10])([H:11])[H:12])([C:4](=[O:5])[H:13])[H:9])([H:6])([H:7])[H:8]>>[C:1]([C:2]([C:3]([O+:5]=[C-:4][H:13])([H:10])[H:12])([H:9])[H:11])([H:6])([H:7])[H:8]"
C       -1.43342968       0.18416920       0.32594260
C       -0.21297671      -0.13956787      -0.51488549
C        0.86893877      -1.00799847       0.02422344
C        1.31744663       1.29489268      -0.27694179
O        1.67178932       0.62418539       0.70598770
H       -2.32139979      -0.25977182      -0.12528176
H       -1.38103257      -0.17978450       1.35448116
H       -1.57155037       1.26407013       0.39817684
H       -0.27896709       0.12440648      -1.56937960
H        1.70078649      -1.22371750      -0.64095767
H       -0.24367256      -1.59522556      -0.68545129
H        0.76579358      -1.44154100       1.01521252
H        1.11827397       2.35588285      -0.01112666
