12
Frame=0 idx=004355 GeodesicLength=0.0 rxn_smarts="[O:1]=[C:2]([C@@:3]1([H:8])[C:4]([H:9])([H:10])[C:5]([H:11])([H:12])[O:6]1)[H:7]>>[O:1]=[C:2]([O:6][C:3]1([H:8])[C:4]([H:9])([H:10])[C:5]1([H:11])[H:12])[H:7]"
O        1.57558006      -1.18754690       0.82181206
C        1.36186459       0.02433611       0.77058625
C        0.30219445       0.66737591      -0.17084289
C       -0.40734145      -0.40744760      -1.03064610
C       -1.32458661      -0.31136931       0.05057596
O        0.07265863       0.61827917       1.30319684
H        2.10658390       0.80586719       0.98275410
H        0.28560833       1.68230367      -0.55261455
H        0.19044893      -1.31530352      -1.08443888
H       -0.71062314       0.04071190      -1.97068788
H       -1.34632836      -1.05441557       0.83182234
H       -2.10605937       0.43720890       0.04848274
12
Frame=1 idx=004355 GeodesicLength=0.08530479526074917 rxn_smarts="[O:1]=[C:2]([C@@:3]1([H:8])[C:4]([H:9])([H:10])[C:5]([H:11])([H:12])[O:6]1)[H:7]>>[O:1]=[C:2]([O:6][C:3]1([H:8])[C:4]([H:9])([H:10])[C:5]1([H:11])[H:12])[H:7]"
O        1.61808527      -1.18340922       0.82531353
C        1.37845032       0.02125835       0.77386646
C        0.29473967       0.66360397      -0.16681496
C       -0.40939157      -0.40716094      -1.02998215
C       -1.32931005      -0.29702345       0.05476718
O        0.06557921       0.60022658       1.30042779
H        2.11141291       0.81597749       0.97939586
H        0.28786032       1.68039060      -0.54421214
H        0.17883151      -1.32103195      -1.08115694
H       -0.70931952       0.03541255      -1.97369056
H       -1.37001395      -1.05334861       0.82300688
H       -2.11692412       0.44510463       0.03907904
12
Frame=2 idx=004355 GeodesicLength=0.17058523955692856 rxn_smarts="[O:1]=[C:2]([C@@:3]1([H:8])[C:4]([H:9])([H:10])[C:5]([H:11])([H:12])[O:6]1)[H:7]>>[O:1]=[C:2]([O:6][C:3]1([H:8])[C:4]([H:9])([H:10])[C:5]1([H:11])[H:12])[H:7]"
O        1.66180982      -1.17843261       0.82856646
C        1.39541510       0.01825717       0.77709360
C        0.28723376       0.65959391      -0.16264415
C       -0.41152400      -0.40708063      -1.02918787
C       -1.33433045      -0.28259187       0.05879259
O        0.05875759       0.58115026       1.29772923
H        2.11613216       0.82621914       0.97589757
H        0.28985460       1.67828125      -0.53525644
H        0.16690279      -1.32698782      -1.07749101
H       -0.70785105       0.02986480      -1.97660160
H       -1.39484972      -1.05161185       0.81364673
H       -2.12755060       0.45333827       0.02945489
12
Frame=3 idx=004355 GeodesicLength=0.25584871487711386 rxn_smarts="[O:1]=[C:2]([C@@:3]1([H:8])[C:4]([H:9])([H:10])[C:5]([H:11])([H:12])[O:6]1)[H:7]>>[O:1]=[C:2]([O:6][C:3]1([H:8])[C:4]([H:9])([H:10])[C:5]1([H:11])[H:12])[H:7]"
O        1.70677731      -1.17254335       0.83157594
C        1.41277329       0.01532671       0.78025920
C        0.27968130       0.65532221      -0.15833418
C       -0.41375188      -0.40722229      -1.02826398
C       -1.33964248      -0.26807180       0.06265799
O        0.05219774       0.56098143       1.29506751
H        2.12070198       0.83659085       0.97230028
H        0.29160029       1.67595626      -0.52573838
H        0.15464199      -1.33317931      -1.07345441
H       -0.70623359       0.02405824      -1.97941467
H       -1.42083274      -1.04917004       0.80372313
H       -2.13791321       0.46195108       0.01962156
12
Frame=4 idx=004355 GeodesicLength=0.3410959545393785 rxn_smarts="[O:1]=[C:2]([C@@:3]1([H:8])[C:4]([H:9])([H:10])[C:5]([H:11])([H:12])[O:6]1)[H:7]>>[O:1]=[C:2]([O:6][C:3]1([H:8])[C:4]([H:9])([H:10])[C:5]1([H:11])[H:12])[H:7]"
O        1.75300297      -1.16567155       0.83434654
C        1.43053917       0.01246607       0.78335782
C        0.27208955       0.65076412      -0.15389178
C       -0.41609026      -0.40760199      -1.02721249
C       -1.34523598      -0.25346042       0.06637249
O        0.04590471       0.53964879       1.29240199
H        2.12507674       0.84709407       0.96865306
H        0.29310905       1.67339199      -0.51565180
H        0.14202797      -1.33961422      -1.06906531
H       -0.70448803       0.01798260      -1.98212346
H       -1.44795217      -1.04598307       0.79321916
H       -2.14798371       0.47098362       0.00959378
12
Frame=5 idx=004355 GeodesicLength=0.4263317950017416 rxn_smarts="[O:1]=[C:2]([C@@:3]1([H:8])[C:4]([H:9])([H:10])[C:5]([H:11])([H:12])[O:6]1)[H:7]>>[O:1]=[C:2]([O:6][C:3]1([H:8])[C:4]([H:9])([H:10])[C:5]1([H:11])[H:12])[H:7]"
O        1.80048901      -1.15773723       0.83690707
C        1.44871953       0.00966817       0.78638581
C        0.26446516       0.64589535      -0.14932844
C       -0.41855752      -0.40823286      -1.02604057
C       -1.35109706      -0.23875862       0.06994693
O        0.03988348       0.51708998       1.28968457
H        2.12921626       0.85771722       0.96500446
H        0.29439712       1.67056650      -0.50499569
H        0.12904005      -1.34629644      -1.06435325
H       -0.70264614       0.01163352      -1.98472316
H       -1.47617887      -1.04201426       0.78211900
H       -2.15773102       0.48046867      -0.00060671
12
Frame=6 idx=004355 GeodesicLength=0.5115631193227543 rxn_smarts="[O:1]=[C:2]([C@@:3]1([H:8])[C:4]([H:9])([H:10])[C:5]([H:11])([H:12])[O:6]1)[H:7]>>[O:1]=[C:2]([O:6][C:3]1([H:8])[C:4]([H:9])([H:10])[C:5]1([H:11])[H:12])[H:7]"
O        1.84922866      -1.14865290       0.83929258
C        1.46732265       0.00692674       0.78934194
C        0.25682088       0.64068783      -0.14466001
C       -0.42117504      -0.40912845      -1.02475868
C       -1.35720342      -0.22396811       0.07339755
O        0.03414007       0.49323885       1.28685438
H        2.13307006       0.86845080       0.96141738
H        0.29548899       1.66744973      -0.49377561
H        0.11565110      -1.35322918      -1.05936032
H       -0.70074883       0.00500956      -1.98721009
H       -1.50547234      -1.03722227       0.77041167
H       -2.16712280       0.49043740      -0.01095080
12
Frame=7 idx=004355 GeodesicLength=0.5967915526365193 rxn_smarts="[O:1]=[C:2]([C@@:3]1([H:8])[C:4]([H:9])([H:10])[C:5]([H:11])([H:12])[O:6]1)[H:7]>>[O:1]=[C:2]([O:6][C:3]1([H:8])[C:4]([H:9])([H:10])[C:5]1([H:11])[H:12])[H:7]"
O        1.89918618      -1.13832400       0.84156962
C        1.48634764       0.00422962       0.79222750
C        0.24916816       0.63511506      -0.13990632
C       -0.42396626      -0.41029667      -1.02338365
C       -1.36352697      -0.20909796       0.07674358
O        0.02868065       0.46804920       1.28384678
H        2.13659777       0.87926666       0.95794430
H        0.29641292       1.66401262      -0.48200483
H        0.10183821      -1.36040746      -1.05414330
H       -0.69884900      -0.00187977      -1.98958216
H       -1.53576598      -1.03157401       0.75809131
H       -2.17612333       0.50090673      -0.02140283
12
Frame=8 idx=004355 GeodesicLength=0.6820204785223464 rxn_smarts="[O:1]=[C:2]([C@@:3]1([H:8])[C:4]([H:9])([H:10])[C:5]([H:11])([H:12])[O:6]1)[H:7]>>[O:1]=[C:2]([O:6][C:3]1([H:8])[C:4]([H:9])([H:10])[C:5]1([H:11])[H:12])[H:7]"
O        1.95032554      -1.12666759       0.84382069
C        1.50578757       0.00156834       0.79504989
C        0.24152238       0.62915007      -0.13509634
C       -0.42695990      -0.41174308      -1.02193851
C       -1.37003168      -0.19415862       0.08000950
O        0.02351029       0.44147730       1.28057981
H        2.13975304       0.89014144       0.95465156
H        0.29720515       1.66022198      -0.46970644
H        0.08757316      -1.36782492      -1.04877357
H       -0.69701302      -0.00901984      -1.99184086
H       -1.56697839      -1.02503157       0.74515953
H       -2.18469415       0.51188649      -0.03191526
12
Frame=9 idx=004355 GeodesicLength=0.7672023518842388 rxn_smarts="[O:1]=[C:2]([C@@:3]1([H:8])[C:4]([H:9])([H:10])[C:5]([H:11])([H:12])[O:6]1)[H:7]>>[O:1]=[C:2]([O:6][C:3]1([H:8])[C:4]([H:9])([H:10])[C:5]1([H:11])[H:12])[H:7]"
O        2.00255285      -1.11359772       0.84610723
C        1.52562233      -0.00104973       0.79785716
C        0.23392006       0.62274398      -0.13026922
C       -0.43019581      -0.41346999      -1.02045661
C       -1.37667846      -0.17914591       0.08322196
O        0.01864018       0.41348341       1.27694236
H        2.14247761       0.90108714       0.95164945
H        0.29792785       1.65601302      -0.45692557
H        0.07279629      -1.37549015      -1.04335519
H       -0.69531969      -0.01638129      -1.99399412
H       -1.59895851      -1.01758144       0.73165270
H       -2.19278470       0.52338866      -0.04243014
12
Frame=10 idx=004355 GeodesicLength=0.8523866763916841 rxn_smarts="[O:1]=[C:2]([C@@:3]1([H:8])[C:4]([H:9])([H:10])[C:5]([H:11])([H:12])[O:6]1)[H:7]>>[O:1]=[C:2]([O:6][C:3]1([H:8])[C:4]([H:9])([H:10])[C:5]1([H:11])[H:12])[H:7]"
O        2.05578829      -1.09904303       0.84863199
C        1.54584976      -0.00365664       0.80062212
C        0.22636403       0.61589952      -0.12546783
C       -0.43369496      -0.41546961      -1.01897578
C       -1.38340582      -0.16410344       0.08641698
O        0.01407487       0.38408321       1.27285509
H        2.14474131       0.91201252       0.94895037
H        0.29860475       1.65138501      -0.44369967
H        0.05751678      -1.38336226      -1.03798853
H       -0.69386424      -0.02393293      -1.99605071
H       -1.63161142      -1.00919416       0.71757318
H       -2.20036337       0.53538182      -0.05286722
12
Frame=11 idx=004355 GeodesicLength=0.9375709572594348 rxn_smarts="[O:1]=[C:2]([C@@:3]1([H:8])[C:4]([H:9])([H:10])[C:5]([H:11])([H:12])[O:6]1)[H:7]>>[O:1]=[C:2]([O:6][C:3]1([H:8])[C:4]([H:9])([H:10])[C:5]1([H:11])[H:12])[H:7]"
O        2.10989319      -1.08293497       0.85158469
C        1.56645505      -0.00627297       0.80335342
C        0.21887635       0.60859903      -0.12074372
C       -0.43748913      -0.41772940      -1.01754518
C       -1.39015042      -0.14906114       0.08963108
O        0.00982289       0.35330280       1.26821800
H        2.14651112       0.92286267       0.94659822
H        0.29928440       1.64631007      -0.43008773
H        0.04171702      -1.39141528      -1.03280412
H       -0.69275295      -0.03162634      -1.99802883
H       -1.66477327      -0.99987112       0.70296046
H       -2.20739425       0.54783665      -0.06313630
12
Frame=12 idx=004355 GeodesicLength=1.0227445282973808 rxn_smarts="[O:1]=[C:2]([C@@:3]1([H:8])[C:4]([H:9])([H:10])[C:5]([H:11])([H:12])[O:6]1)[H:7]>>[O:1]=[C:2]([O:6][C:3]1([H:8])[C:4]([H:9])([H:10])[C:5]1([H:11])[H:12])[H:7]"
O        2.16472314      -1.06525303       0.85519255
C        1.58741647      -0.00890478       0.80606704
C        0.21148007       0.60083226      -0.11616178
C       -0.44161276      -0.42022818      -1.01622340
C       -1.39684423      -0.13405275       0.09290591
O        0.00589295       0.32118825       1.26291533
H        2.14775990       0.93359507       0.94463731
H        0.30001915       1.64075909      -0.41616562
H        0.02537254      -1.39961531      -1.02795218
H       -0.69210739      -0.03940178      -1.99995350
H       -1.69825745      -0.98962535       0.68787118
H       -2.21384239       0.56070652      -0.07313284
12
Frame=13 idx=004355 GeodesicLength=1.10790171521685 rxn_smarts="[O:1]=[C:2]([C@@:3]1([H:8])[C:4]([H:9])([H:10])[C:5]([H:11])([H:12])[O:6]1)[H:7]>>[O:1]=[C:2]([O:6][C:3]1([H:8])[C:4]([H:9])([H:10])[C:5]1([H:11])[H:12])[H:7]"
O        2.22009812      -1.04596174       0.85974367
C        1.60871366      -0.01157224       0.80876738
C        0.20419873       0.59259022      -0.11179153
C       -0.44610217      -0.42293647      -1.01507918
C       -1.40341219      -0.11912344       0.09628746
O        0.00229729       0.28781293       1.25683397
H        2.14847356       0.94414209       0.94308183
H        0.30086188       1.63470797      -0.40202010
H        0.00846500      -1.40792136      -1.02360357
H       -0.69206187      -0.04718100      -2.00185671
H       -1.73185413      -0.97848984       0.67237333
H       -2.21967787       0.57393288      -0.08273654
12
Frame=14 idx=004355 GeodesicLength=1.1930406819673314 rxn_smarts="[O:1]=[C:2]([C@@:3]1([H:8])[C:4]([H:9])([H:10])[C:5]([H:11])([H:12])[O:6]1)[H:7]>>[O:1]=[C:2]([O:6][C:3]1([H:8])[C:4]([H:9])([H:10])[C:5]1([H:11])[H:12])[H:7]"
O        2.27584122      -1.02504986       0.86554636
C        1.63032696      -0.01429116       0.81146399
C        0.19705616       0.58386834      -0.10770936
C       -0.45099348      -0.42581913      -1.01418748
C       -1.40977799      -0.10432250       0.09982401
O       -0.00095334       0.25327151       1.24985845
H        2.14864229       0.95444236       0.94193789
H        0.30187006       1.62812940      -0.38775045
H       -0.00903149      -1.41628869      -1.01993880
H       -0.69275692      -0.05487689      -2.00377680
H       -1.76534964      -0.96650631       0.65654889
H       -2.22487385       0.58744295      -0.09181670
12
Frame=15 idx=004355 GeodesicLength=1.2781652648444655 rxn_smarts="[O:1]=[C:2]([C@@:3]1([H:8])[C:4]([H:9])([H:10])[C:5]([H:11])([H:12])[O:6]1)[H:7]>>[O:1]=[C:2]([O:6][C:3]1([H:8])[C:4]([H:9])([H:10])[C:5]1([H:11])[H:12])[H:7]"
O        2.33174382      -1.00249944       0.87296946
C        1.65224203      -0.01708758       0.81415042
C        0.19007498       0.57466510      -0.10399714
C       -0.45632407      -0.42883296      -1.01363136
C       -1.41586250      -0.08970986       0.10356635
O       -0.00384205       0.21767682       1.24187384
H        2.14827866       0.96442184       0.94117832
H        0.30309902       1.62100097      -0.37346284
H       -0.02713838      -1.42466649      -1.01715150
H       -0.69434256      -0.06238726      -2.00575842
H       -1.79851719      -0.95373974       0.64049067
H       -2.22941178       0.60115861      -0.10022779
12
Frame=16 idx=004355 GeodesicLength=1.363270199097307 rxn_smarts="[O:1]=[C:2]([C@@:3]1([H:8])[C:4]([H:9])([H:10])[C:5]([H:11])([H:12])[O:6]1)[H:7]>>[O:1]=[C:2]([O:6][C:3]1([H:8])[C:4]([H:9])([H:10])[C:5]1([H:11])[H:12])[H:7]"
O        2.38762519      -0.97832177       0.88237290
C        1.67444602      -0.01997861       0.81682261
C        0.18327625       0.56498318      -0.10073818
C       -0.46212924      -0.43193395      -1.01349323
C       -1.42159089      -0.07534443       0.10756437
O       -0.00635321       0.18114801       1.23277240
H        2.14739405       0.97401978       0.94076889
H        0.30460004       1.61330133      -0.35927096
H       -0.04588164      -1.43300586      -1.01542573
H       -0.69696161      -0.06961188      -2.00785029
H       -1.83114754      -0.94025869       0.62430234
H       -2.23327741       0.61500288      -0.10782512
