14
Frame=0 idx=004173 GeodesicLength=0.0 rxn_smarts="[C:1]1([H:7])([H:8])[C:2]([H:9])([H:10])[O:3][C:4]([H:11])([H:12])[C:5]([H:13])([H:14])[O:6]1>>[C:1]1([H:7])=[C:2]([H:10])[O:3][C:4]([H:11])([H:12])[C:5]([H:13])([H:14])[O:6]1.[H:8][H:9]"
C       -0.88547288      -0.89523445       0.17767787
C       -1.33422700       0.44196231       0.04101365
O       -0.37610742       1.37499960      -0.34748974
C        0.85968775       1.13835317       0.29377578
C        1.33416676      -0.27242234       0.00790422
O        0.37670746      -1.23993197       0.44899615
H       -1.61339449      -1.61974037       0.52077581
H       -0.85109678      -1.44827968      -1.39895176
H       -1.37340933      -0.50272048      -1.05016628
H       -2.20261391       0.79718146       0.57901283
H        0.75709761       1.29060916       1.37517335
H        1.57952643       1.85613133      -0.10244665
H        2.26281269      -0.50643624       0.52547930
H        1.46632314      -0.41447151      -1.07075451
14
Frame=1 idx=004173 GeodesicLength=0.09905999986684433 rxn_smarts="[C:1]1([H:7])([H:8])[C:2]([H:9])([H:10])[O:3][C:4]([H:11])([H:12])[C:5]([H:13])([H:14])[O:6]1>>[C:1]1([H:7])=[C:2]([H:10])[O:3][C:4]([H:11])([H:12])[C:5]([H:13])([H:14])[O:6]1.[H:8][H:9]"
C       -0.88521793      -0.90105495       0.17377722
C       -1.33351183       0.43718409       0.04186262
O       -0.37795183       1.37121262      -0.34852632
C        0.85918876       1.13820461       0.29141913
C        1.33414813      -0.27420468       0.01485079
O        0.37816156      -1.23753226       0.46441720
H       -1.60955291      -1.62377429       0.52903797
H       -0.85219559      -1.43719204      -1.41224387
H       -1.38953102      -0.49129112      -1.08480654
H       -2.18995893       0.79211992       0.59946671
H        0.75776529       1.29716080       1.37200138
H        1.57668146       1.85426258      -0.11209743
H        2.26378115      -0.50226775       0.53361272
H        1.46819368      -0.42282753      -1.06277159
14
Frame=2 idx=004173 GeodesicLength=0.1977508839770047 rxn_smarts="[C:1]1([H:7])([H:8])[C:2]([H:9])([H:10])[O:3][C:4]([H:11])([H:12])[C:5]([H:13])([H:14])[O:6]1>>[C:1]1([H:7])=[C:2]([H:10])[O:3][C:4]([H:11])([H:12])[C:5]([H:13])([H:14])[O:6]1.[H:8][H:9]"
C       -0.88463729      -0.90717782       0.17045818
C       -1.33273769       0.43198124       0.04261608
O       -0.37986129       1.36724524      -0.34938835
C        0.85869915       1.13795974       0.28908854
C        1.33419836      -0.27602018       0.02188818
O        0.37979452      -1.23504615       0.48025893
H       -1.60534087      -1.62799463       0.53779319
H       -0.85402385      -1.42533069      -1.42526876
H       -1.40581353      -0.47868981      -1.12030829
H       -2.17731868       0.78647512       0.61893953
H        0.75847463       1.30370960       1.36880060
H        1.57375995       1.85223303      -0.12183608
H        2.26492801      -0.49800130       0.54162597
H        1.46987858      -0.43134339      -1.05466775
14
Frame=3 idx=004173 GeodesicLength=0.2962745846617435 rxn_smarts="[C:1]1([H:7])([H:8])[C:2]([H:9])([H:10])[O:3][C:4]([H:11])([H:12])[C:5]([H:13])([H:14])[O:6]1>>[C:1]1([H:7])=[C:2]([H:10])[O:3][C:4]([H:11])([H:12])[C:5]([H:13])([H:14])[O:6]1.[H:8][H:9]"
C       -0.88369916      -0.91364359       0.16782299
C       -1.33190105       0.42630268       0.04320708
O       -0.38183137       1.36307592      -0.35007304
C        0.85821423       1.13760367       0.28679986
C        1.33433648      -0.27786993       0.02900632
O        0.38166177      -1.23248551       0.49654063
H       -1.60072230      -1.63243457       0.54716072
H       -0.85672556      -1.41267759      -1.43793268
H       -1.42217074      -0.46473900      -1.15682982
H       -2.16476463       0.78024206       0.63732218
H        0.75919949       1.31022602       1.36558504
H        1.57075107       1.85004156      -0.13162572
H        2.26629375      -0.49362321       0.54947390
H        1.47135802      -0.44001850      -1.04645746
14
Frame=4 idx=004173 GeodesicLength=0.3948008106600505 rxn_smarts="[C:1]1([H:7])([H:8])[C:2]([H:9])([H:10])[O:3][C:4]([H:11])([H:12])[C:5]([H:13])([H:14])[O:6]1>>[C:1]1([H:7])=[C:2]([H:10])[O:3][C:4]([H:11])([H:12])[C:5]([H:13])([H:14])[O:6]1.[H:8][H:9]"
C       -0.88236924      -0.92049698       0.16597215
C       -1.33099727       0.42008923       0.04356119
O       -0.38385921       1.35867984      -0.35057530
C        0.85772750       1.13712050       0.28457047
C        1.33458228      -0.27975527       0.03619344
O        0.38382343      -1.22986127       0.51328471
H       -1.59565554      -1.63712224       0.55728039
H       -0.86046890      -1.39922059      -1.45012911
H       -1.43848992      -0.44923910      -1.19455450
H       -2.15237432       0.77341221       0.65450311
H        0.75991012       1.31667724       1.36237090
H        1.56763968       1.84768798      -0.14142684
H        2.26792099      -0.48911859       0.55710646
H        1.47261041      -0.44885297      -1.03815708
14
Frame=5 idx=004173 GeodesicLength=0.4935109660839634 rxn_smarts="[C:1]1([H:7])([H:8])[C:2]([H:9])([H:10])[O:3][C:4]([H:11])([H:12])[C:5]([H:13])([H:14])[O:6]1>>[C:1]1([H:7])=[C:2]([H:10])[O:3][C:4]([H:11])([H:12])[C:5]([H:13])([H:14])[O:6]1.[H:8][H:9]"
C       -0.88060779      -0.92778651       0.16504644
C       -1.33002182       0.41326128       0.04358383
O       -0.38594872       1.35402530      -0.35088428
C        0.85722809       1.13649045       0.28242245
C        1.33495710      -0.28167907       0.04343202
O        0.38635035      -1.22719383       0.53050835
H       -1.59009267      -1.64208171       0.56834580
H       -0.86548352      -1.38491139      -1.46172565
H       -1.45458539      -0.43196214      -1.23370787
H       -2.14023253       0.76595667       0.67032322
H        0.76057111       1.32302038       1.35918045
H        1.56440457       1.84517617      -0.15119171
H        2.26985744      -0.48447150       0.56445772
H        1.47360378      -0.45784409      -1.02979077
14
Frame=6 idx=004173 GeodesicLength=0.5924584450662376 rxn_smarts="[C:1]1([H:7])([H:8])[C:2]([H:9])([H:10])[O:3][C:4]([H:11])([H:12])[C:5]([H:13])([H:14])[O:6]1>>[C:1]1([H:7])=[C:2]([H:10])[O:3][C:4]([H:11])([H:12])[C:5]([H:13])([H:14])[O:6]1.[H:8][H:9]"
C       -0.87837773      -0.93556878       0.16515073
C       -1.32896932       0.40574536       0.04318828
O       -0.38809842       1.34908119      -0.35099780
C        0.85670572       1.13569479       0.28037536
C        1.33548280      -0.28364344       0.05070533
O        0.38931460      -1.22449146       0.54824510
H       -1.58398006      -1.64733352       0.58053947
H       -0.87199028      -1.36972659      -1.47260550
H       -1.47028018      -0.41267626      -1.27448965
H       -2.12843630       0.75785557       0.68464757
H        0.76114207       1.32921593       1.35603341
H        1.56102671       1.84250809      -0.16087443
H        2.27215231      -0.47966558       0.57146269
H        1.47430808      -0.46699530      -1.02138058
14
Frame=7 idx=004173 GeodesicLength=0.6916433060358886 rxn_smarts="[C:1]1([H:7])([H:8])[C:2]([H:9])([H:10])[O:3][C:4]([H:11])([H:12])[C:5]([H:13])([H:14])[O:6]1>>[C:1]1([H:7])=[C:2]([H:10])[O:3][C:4]([H:11])([H:12])[C:5]([H:13])([H:14])[O:6]1.[H:8][H:9]"
C       -0.87564561      -0.94389670       0.16640376
C       -1.32782990       0.39744825       0.04227584
O       -0.39032180       1.34381182      -0.35090085
C        0.85614405       1.13471389       0.27844998
C        1.33617751      -0.28565227       0.05799320
O        0.39278758      -1.22176790       0.56652019
H       -1.57726596      -1.65286922       0.59408618
H       -0.88025992      -1.35361091      -1.48264349
H       -1.48531237      -0.39115136      -1.31711633
H       -2.11706969       0.74905663       0.69731521
H        0.76158307       1.33521963       1.35295243
H        1.55747698       1.83969110      -0.17043222
H        2.27485006      -0.47468532       0.57804874
H        1.47468601      -0.47630765      -1.01295262
14
Frame=8 idx=004173 GeodesicLength=0.7909947222318153 rxn_smarts="[C:1]1([H:7])([H:8])[C:2]([H:9])([H:10])[O:3][C:4]([H:11])([H:12])[C:5]([H:13])([H:14])[O:6]1>>[C:1]1([H:7])=[C:2]([H:10])[O:3][C:4]([H:11])([H:12])[C:5]([H:13])([H:14])[O:6]1.[H:8][H:9]"
C       -0.87237759      -0.95283353       0.16891168
C       -1.32659486       0.38827766       0.04075653
O       -0.39263160       1.33817557      -0.35058982
C        0.85552471       1.13352811       0.27666048
C        1.33705965      -0.28770966       0.06527541
O        0.39684147      -1.21903083       0.58536452
H       -1.56989548      -1.65869104       0.60920259
H       -0.89058539      -1.33649164      -1.49171623
H       -1.49937913      -0.36715709      -1.36178029
H       -2.10623094       0.73951349       0.70817761
H        0.76184905       1.34099186       1.34995319
H        1.55372262       1.83673001      -0.17983107
H        2.27799460      -0.46951372       0.58414685
H        1.47470289      -0.48578920      -1.00453146
14
Frame=9 idx=004173 GeodesicLength=0.8900254947814075 rxn_smarts="[C:1]1([H:7])([H:8])[C:2]([H:9])([H:10])[O:3][C:4]([H:11])([H:12])[C:5]([H:13])([H:14])[O:6]1>>[C:1]1([H:7])=[C:2]([H:10])[O:3][C:4]([H:11])([H:12])[C:5]([H:13])([H:14])[O:6]1.[H:8][H:9]"
C       -0.86849537      -0.96236967       0.17278352
C       -1.32521652       0.37806464       0.03829930
O       -0.39503590       1.33219239      -0.34996477
C        0.85482369       1.13210855       0.27510407
C        1.33813460      -0.28980403       0.07245399
O        0.40157656      -1.21629856       0.60468440
H       -1.56173729      -1.66454196       0.62635206
H       -0.90371067      -1.31821035      -1.49941160
H       -1.51175493      -0.34062942      -1.40867995
H       -2.09602914       0.72897025       0.71676427
H        0.76185409       1.34637495       1.34715290
H        1.54973388       1.83366907      -0.18886971
H        2.28160952      -0.46415398       0.58954612
H        1.47424747      -0.49537187      -0.99621460
14
Frame=10 idx=004173 GeodesicLength=0.9888630518467284 rxn_smarts="[C:1]1([H:7])([H:8])[C:2]([H:9])([H:10])[O:3][C:4]([H:11])([H:12])[C:5]([H:13])([H:14])[O:6]1>>[C:1]1([H:7])=[C:2]([H:10])[O:3][C:4]([H:11])([H:12])[C:5]([H:13])([H:14])[O:6]1.[H:8][H:9]"
C       -0.86402426      -0.97261776       0.17804414
C       -1.32371630       0.36679677       0.03510085
O       -0.39758288       1.32575523      -0.34911035
C        0.85401498       1.13045110       0.27369353
C        1.33941367      -0.29195736       0.07958408
O        0.40700574      -1.21355805       0.62460305
H       -1.55282610      -1.67058197       0.64544870
H       -0.91959160      -1.29865325      -1.50590773
H       -1.52229273      -0.31139804      -1.45790096
H       -2.08654000       0.71754572       0.72333207
H        0.76160450       1.35146432       1.34445027
H        1.54545458       1.83047708      -0.19772591
H        2.28571580      -0.45857533       0.59433243
H        1.47336459      -0.50514844      -0.98794417
14
Frame=11 idx=004173 GeodesicLength=1.0874451940841685 rxn_smarts="[C:1]1([H:7])([H:8])[C:2]([H:9])([H:10])[O:3][C:4]([H:11])([H:12])[C:5]([H:13])([H:14])[O:6]1>>[C:1]1([H:7])=[C:2]([H:10])[O:3][C:4]([H:11])([H:12])[C:5]([H:13])([H:14])[O:6]1.[H:8][H:9]"
C       -0.85894631      -0.98360949       0.18471311
C       -1.32208565       0.35440486       0.03115783
O       -0.40031278       1.31882039      -0.34802151
C        0.85306911       1.12854501       0.27241463
C        1.34088862      -0.29417474       0.08665161
O        0.41315455      -1.21079533       0.64512501
H       -1.54312394      -1.67674987       0.66660854
H       -0.93852660      -1.27770115      -1.51110906
H       -1.53053769      -0.27939868      -1.50956839
H       -2.07782430       0.70516318       0.72788031
H        0.76107548       1.35625371       1.34183178
H        1.54083394       1.82715111      -0.20642927
H        2.29030442      -0.45276772       0.59846914
H        1.47203114      -0.51514129      -0.97972372
14
Frame=12 idx=004173 GeodesicLength=1.1856490452552426 rxn_smarts="[C:1]1([H:7])([H:8])[C:2]([H:9])([H:10])[O:3][C:4]([H:11])([H:12])[C:5]([H:13])([H:14])[O:6]1>>[C:1]1([H:7])=[C:2]([H:10])[O:3][C:4]([H:11])([H:12])[C:5]([H:13])([H:14])[O:6]1.[H:8][H:9]"
C       -0.85326634      -0.99536649       0.19272335
C       -1.32032096       0.34086573       0.02652622
O       -0.40326440       1.31135429      -0.34671439
C        0.85195799       1.12638979       0.27123316
C        1.34254490      -0.29645874       0.09365422
O        0.42000874      -1.20797768       0.66624748
H       -1.53262375      -1.68299460       0.68981122
H       -0.96070329      -1.25525805      -1.51498372
H       -1.53610009      -0.24468709      -1.56366354
H       -2.06990413       0.69178739       0.73053071
H        0.76025374       1.36076569       1.33926028
H        1.53582695       1.82368249      -0.21504441
H        2.29534111      -0.44672619       0.60196024
H        1.47024952      -0.52537654      -0.97154084
14
Frame=13 idx=004173 GeodesicLength=1.2834286299415945 rxn_smarts="[C:1]1([H:7])([H:8])[C:2]([H:9])([H:10])[O:3][C:4]([H:11])([H:12])[C:5]([H:13])([H:14])[O:6]1>>[C:1]1([H:7])=[C:2]([H:10])[O:3][C:4]([H:11])([H:12])[C:5]([H:13])([H:14])[O:6]1.[H:8][H:9]"
C       -0.84701578      -1.00787998       0.20197511
C       -1.31843076       0.32618028       0.02132635
O       -0.40649931       1.30333038      -0.34520508
C        0.85064686       1.12399119       0.27009449
C        1.34434794      -0.29881235       0.10059105
O        0.42751864      -1.20507472       0.68793688
H       -1.52135016      -1.68925195       0.71496267
H       -0.98628512      -1.23114340      -1.51753321
H       -1.53848568      -0.20748804      -1.62012084
H       -2.06275636       0.67738200       0.73151600
H        0.75914058       1.36504258       1.33667714
H        1.53037814       1.82005733      -0.22367804
H        2.30076117      -0.44045333       0.60483404
H        1.46802985      -0.53588001      -0.96337656
14
Frame=14 idx=004173 GeodesicLength=1.3808405301502151 rxn_smarts="[C:1]1([H:7])([H:8])[C:2]([H:9])([H:10])[O:3][C:4]([H:11])([H:12])[C:5]([H:13])([H:14])[O:6]1>>[C:1]1([H:7])=[C:2]([H:10])[O:3][C:4]([H:11])([H:12])[C:5]([H:13])([H:14])[O:6]1.[H:8][H:9]"
C       -0.84024520      -1.02113468       0.21227835
C       -1.31643920       0.31042073       0.01576238
O       -0.41006790       1.29473112      -0.34353919
C        0.84910339       1.12136534       0.26892073
C        1.34625303      -0.30123522       0.10748021
O        0.43558985      -1.20203243       0.71015732
H       -1.50935641      -1.69550025       0.74179280
H       -1.01523280      -1.20525879      -1.51883488
H       -1.53738614      -0.16810284      -1.67875073
H       -2.05630104       0.66197595       0.73122871
H        0.75775313       1.36916362       1.33399386
H        1.52444415       1.81624766      -0.23247672
H        2.30646860      -0.43395419       0.60717219
H        1.46541655      -0.54668603      -0.95518504
14
Frame=15 idx=004173 GeodesicLength=1.4780131632698126 rxn_smarts="[C:1]1([H:7])([H:8])[C:2]([H:9])([H:10])[O:3][C:4]([H:11])([H:12])[C:5]([H:13])([H:14])[O:6]1>>[C:1]1([H:7])=[C:2]([H:10])[O:3][C:4]([H:11])([H:12])[C:5]([H:13])([H:14])[O:6]1.[H:8][H:9]"
C       -0.83302743      -1.03507585       0.22340696
C       -1.31438160       0.29369756       0.01009002
O       -0.41402762       1.28555823      -0.34176147
C        0.84729673       1.11853564       0.26762349
C        1.34820122      -0.30372352       0.11434112
O        0.44408973      -1.19879961       0.73283377
H       -1.49672763      -1.70172383       0.76993361
H       -1.04741635      -1.17747650      -1.51899826
H       -1.53252005      -0.12699689      -1.73929435
H       -2.05040670       0.64562076       0.73015761
H        0.75612539       1.37322106       1.33110970
H        1.51798522       1.81222134      -0.24160628
H        2.31234182      -0.42724222       0.60908075
H        1.46246726      -0.55781619      -0.94691668
14
Frame=16 idx=004173 GeodesicLength=1.5751424457132983 rxn_smarts="[C:1]1([H:7])([H:8])[C:2]([H:9])([H:10])[O:3][C:4]([H:11])([H:12])[C:5]([H:13])([H:14])[O:6]1>>[C:1]1([H:7])=[C:2]([H:10])[O:3][C:4]([H:11])([H:12])[C:5]([H:13])([H:14])[O:6]1.[H:8][H:9]"
C       -0.82545890      -1.04962672       0.23509796
C       -1.31231929       0.27617245       0.00463353
O       -0.41843982       1.27583225      -0.33992176
C        0.84519329       1.11553244       0.26610471
C        1.35012109      -0.30626972       0.12119190
O        0.45285572      -1.19532787       0.75586492
H       -1.48357251      -1.70793900       0.79892447
H       -1.08262294      -1.14764805      -1.51815901
H       -1.52361107      -0.08478092      -1.80146934
H       -2.04490167       0.62841401       0.72891096
H        0.75430185       1.37731906       1.32791285
H        1.51096250       1.80794215      -0.25124856
H        2.31824060      -0.42033893       0.61068083
H        1.45925114      -0.56928115      -0.93852348
