18
Frame=0 idx=006567 GeodesicLength=0.0 rxn_smarts="[C:1]([C:2]([C:3]([C:4]([C:5]([H:16])([H:17])[H:18])([H:14])[H:15])([C:6]#[N:7])[H:13])([H:11])[H:12])([H:8])([H:9])[H:10]>>[C:1]([C:2]([C:3](=[C:6]=[N:7][H:17])[H:13])([H:11])[H:12])([H:8])([H:9])[H:10].[C:4](=[C:5]([H:16])[H:18])([H:14])[H:15]"
C       -2.77189947       0.15252856      -0.27005743
C       -1.36102415      -0.42888931      -0.30831560
C       -0.36133975       0.37439244       0.48752297
C        1.57356905      -0.88692589       0.48850755
C        2.65494979      -0.20238761      -0.03287097
C        0.32350953       1.39974617      -0.05726055
N        1.25875301       1.98845395      -0.50232242
H       -3.46608967      -0.47360455      -0.83376064
H       -2.78968457       1.15467838      -0.70160962
H       -3.14064004       0.22382981       0.75557887
H       -1.37727931      -1.44592798       0.09476239
H       -1.01715121      -0.50701203      -1.34274571
H       -0.54625300       0.45718370       1.55537778
H        1.46667052      -1.01147518       1.55829421
H        1.04325174      -1.61087111      -0.11670093
H        2.99412843      -0.44919140      -1.03392324
H        2.09791478       1.10010894      -0.38518199
H        3.41861437       0.16536304       0.64470541
18
Frame=1 idx=006567 GeodesicLength=0.08955791618469874 rxn_smarts="[C:1]([C:2]([C:3]([C:4]([C:5]([H:16])([H:17])[H:18])([H:14])[H:15])([C:6]#[N:7])[H:13])([H:11])[H:12])([H:8])([H:9])[H:10]>>[C:1]([C:2]([C:3](=[C:6]=[N:7][H:17])[H:13])([H:11])[H:12])([H:8])([H:9])[H:10].[C:4](=[C:5]([H:16])[H:18])([H:14])[H:15]"
C       -2.78074965       0.15807296      -0.25538041
C       -1.37312072      -0.42940834      -0.30992803
C       -0.35975767       0.36605153       0.47777131
C        1.57520923      -0.88705896       0.47509720
C        2.67151548      -0.19565968      -0.01084873
C        0.31238727       1.39847622      -0.07630776
N        1.24430029       1.98830109      -0.52668716
H       -3.48319622      -0.46237276      -0.81510204
H       -2.79869130       1.16232116      -0.68200939
H       -3.13923560       0.22594241       0.77414071
H       -1.38964166      -1.44779770       0.08974747
H       -1.04055450      -0.50622565      -1.34818032
H       -0.54330603       0.45800478       1.54538535
H        1.45971476      -1.05208338       1.53872104
H        1.06139407      -1.60071094      -0.15685427
H        3.07403008      -0.47606776      -0.97932983
H        2.11230094       1.09293543      -0.42851865
H        3.39740123       0.20727958       0.68828353
18
Frame=2 idx=006567 GeodesicLength=0.17836515034467393 rxn_smarts="[C:1]([C:2]([C:3]([C:4]([C:5]([H:16])([H:17])[H:18])([H:14])[H:15])([C:6]#[N:7])[H:13])([H:11])[H:12])([H:8])([H:9])[H:10]>>[C:1]([C:2]([C:3](=[C:6]=[N:7][H:17])[H:13])([H:11])[H:12])([H:8])([H:9])[H:10].[C:4](=[C:5]([H:16])[H:18])([H:14])[H:15]"
C       -2.78900735       0.16353013      -0.24064591
C       -1.38480430      -0.42993688      -0.31135912
C       -0.35786221       0.35792999       0.46773393
C        1.57690097      -0.88747752       0.46119165
C        2.68650975      -0.18856429       0.01083628
C        0.30124489       1.39743634      -0.09562075
N        1.23050092       1.98752160      -0.55105985
H       -3.49966701      -0.45138205      -0.79606292
H       -2.80706702       1.16972884      -0.66264263
H       -3.13715637       0.22822814       0.79264568
H       -1.40164086      -1.44954819       0.08521277
H       -1.06361036      -0.50569279      -1.35329952
H       -0.53970893       0.45886816       1.53511300
H        1.45322791      -1.09299015       1.51705030
H        1.08000290      -1.58961259      -0.19747290
H        3.15110470      -0.50144055      -0.91949291
H        2.12763355       1.08468128      -0.47100385
H        3.37339884       0.24872052       0.72887674
18
Frame=3 idx=006567 GeodesicLength=0.2664565855074654 rxn_smarts="[C:1]([C:2]([C:3]([C:4]([C:5]([H:16])([H:17])[H:18])([H:14])[H:15])([C:6]#[N:7])[H:13])([H:11])[H:12])([H:8])([H:9])[H:10]>>[C:1]([C:2]([C:3](=[C:6]=[N:7][H:17])[H:13])([H:11])[H:12])([H:8])([H:9])[H:10].[C:4](=[C:5]([H:16])[H:18])([H:14])[H:15]"
C       -2.79670587       0.16884861      -0.22588481
C       -1.39610770      -0.43054009      -0.31259924
C       -0.35568028       0.35004258       0.45732346
C        1.57863184      -0.88813274       0.44677489
C        2.70005222      -0.18127974       0.03206909
C        0.29006762       1.39655280      -0.11540063
N        1.21723006       1.98615403      -0.57573021
H       -3.51554019      -0.44073747      -0.77660385
H       -2.81485807       1.17681031      -0.64364029
H       -3.13441892       0.23073856       0.81106071
H       -1.41329505      -1.45120352       0.08127687
H       -1.08636943      -0.50559095      -1.35808816
H       -0.53548240       0.45990327       1.52446485
H        1.44726331      -1.13394045       1.49328961
H        1.09905263      -1.57756906      -0.23841728
H        3.22444619      -0.52501565      -0.85497943
H        2.14444392       1.07602374      -0.51132363
H        3.34727011       0.28893576       0.76640804
18
Frame=4 idx=006567 GeodesicLength=0.35384671559342373 rxn_smarts="[C:1]([C:2]([C:3]([C:4]([C:5]([H:16])([H:17])[H:18])([H:14])[H:15])([C:6]#[N:7])[H:13])([H:11])[H:12])([H:8])([H:9])[H:10]>>[C:1]([C:2]([C:3](=[C:6]=[N:7][H:17])[H:13])([H:11])[H:12])([H:8])([H:9])[H:10].[C:4](=[C:5]([H:16])[H:18])([H:14])[H:15]"
C       -2.80386021       0.17400556      -0.21117918
C       -1.40704058      -0.43125438      -0.31364460
C       -0.35326597       0.34236283       0.44658739
C        1.58041102      -0.88894765       0.43190826
C        2.71225951      -0.17400922       0.05267387
C        0.27882008       1.39578772      -0.13556469
N        1.20434538       1.98436125      -0.60056903
H       -3.53080146      -0.43046931      -0.75683516
H       -2.82206448       1.18353998      -0.62510752
H       -3.13108844       0.23347532       0.82928898
H       -1.42463060      -1.45279650       0.07796584
H       -1.10878309      -0.50598060      -1.36252413
H       -0.53073492       0.46108558       1.51347881
H        1.44195371      -1.17457090       1.46757653
H        1.11849978      -1.56465169      -0.27937140
H        3.29339089      -0.54678699      -0.78632465
H        2.16296268       1.06737259      -0.54905526
H        3.31962670       0.32747641       0.80069594
18
Frame=5 idx=006567 GeodesicLength=0.4408172746294948 rxn_smarts="[C:1]([C:2]([C:3]([C:4]([C:5]([H:16])([H:17])[H:18])([H:14])[H:15])([C:6]#[N:7])[H:13])([H:11])[H:12])([H:8])([H:9])[H:10]>>[C:1]([C:2]([C:3](=[C:6]=[N:7][H:17])[H:13])([H:11])[H:12])([H:8])([H:9])[H:10].[C:4](=[C:5]([H:16])[H:18])([H:14])[H:15]"
C       -2.81052350       0.17899568      -0.19657724
C       -1.41763993      -0.43207213      -0.31448916
C       -0.35071055       0.33487388       0.43562879
C        1.58220343      -0.88981932       0.41668007
C        2.72326340      -0.16689580       0.07248150
C        0.26742813       1.39515537      -0.15591613
N        1.19170183       1.98230945      -0.62533230
H       -3.54546484      -0.42056686      -0.73687593
H       -2.82873696       1.18993572      -0.60704708
H       -3.12727226       0.23637914       0.84726909
H       -1.43568656      -1.45433723       0.07524131
H       -1.13083127      -0.50680452      -1.36658751
H       -0.52562860       0.46235050       1.50225167
H        1.43732661      -1.21460846       1.44012574
H        1.13828722      -1.55090170      -0.32010548
H        3.35815711      -0.56681646      -0.71390722
H        2.18318480       1.05875394      -0.58452192
H        3.29094192       0.36406878       0.83168180
18
Frame=6 idx=006567 GeodesicLength=0.5272919176418028 rxn_smarts="[C:1]([C:2]([C:3]([C:4]([C:5]([H:16])([H:17])[H:18])([H:14])[H:15])([C:6]#[N:7])[H:13])([H:11])[H:12])([H:8])([H:9])[H:10]>>[C:1]([C:2]([C:3](=[C:6]=[N:7][H:17])[H:13])([H:11])[H:12])([H:8])([H:9])[H:10].[C:4](=[C:5]([H:16])[H:18])([H:14])[H:15]"
C       -2.81668880       0.18382010      -0.18217096
C       -1.42788845      -0.43300849      -0.31514503
C       -0.34803875       0.32751344       0.42454765
C        1.58407095      -0.89068500       0.40115898
C        2.73327433      -0.16004070       0.09140857
C        0.25588381       1.39463855      -0.17623472
N        1.17918435       1.98013989      -0.64979546
H       -3.55948845      -0.41100063      -0.71690019
H       -2.83483465       1.19601800      -0.58951520
H       -3.12303597       0.23942154       0.86489139
H       -1.44648230      -1.45585768       0.07305160
H       -1.15241320      -0.50804277      -1.37027303
H       -0.52026145       0.46356183       1.49088210
H        1.43358177      -1.25379599       1.41108659
H        1.15839285      -1.53642416      -0.36029848
H        3.41788777      -0.58543744      -0.63821388
H        2.20515068       1.05039680      -0.61778305
H        3.26170549       0.39878271       0.85930310
18
Frame=7 idx=006567 GeodesicLength=0.6133715235676286 rxn_smarts="[C:1]([C:2]([C:3]([C:4]([C:5]([H:16])([H:17])[H:18])([H:14])[H:15])([C:6]#[N:7])[H:13])([H:11])[H:12])([H:8])([H:9])[H:10]>>[C:1]([C:2]([C:3](=[C:6]=[N:7][H:17])[H:13])([H:11])[H:12])([H:8])([H:9])[H:10].[C:4](=[C:5]([H:16])[H:18])([H:14])[H:15]"
C       -2.82240121       0.18846946      -0.16777750
C       -1.43783459      -0.43405896      -0.31560659
C       -0.34522172       0.32031850       0.41320115
C        1.58600472      -0.89156983       0.38511533
C        2.74236381      -0.15345192       0.10970487
C        0.24419874       1.39419790      -0.19679340
N        1.16676007       1.97778287      -0.67436449
H       -3.57297882      -0.40179958      -0.69661662
H       -2.84048454       1.20177440      -0.57234660
H       -3.11828562       0.24260497       0.88238757
H       -1.45697629      -1.45735250       0.07142414
H       -1.17372405      -0.50970225      -1.37361762
H       -0.51450015       0.46484650       1.47923522
H        1.43047701      -1.29242204       1.38016229
H        1.17888899      -1.52101629      -0.40045484
H        3.47290561      -0.60281995      -0.55894767
H        2.22905990       1.04237351      -0.64892047
H        3.23174812       0.43182521       0.88421524
18
Frame=8 idx=006567 GeodesicLength=0.6990657879014852 rxn_smarts="[C:1]([C:2]([C:3]([C:4]([C:5]([H:16])([H:17])[H:18])([H:14])[H:15])([C:6]#[N:7])[H:13])([H:11])[H:12])([H:8])([H:9])[H:10]>>[C:1]([C:2]([C:3](=[C:6]=[N:7][H:17])[H:13])([H:11])[H:12])([H:8])([H:9])[H:10].[C:4](=[C:5]([H:16])[H:18])([H:14])[H:15]"
C       -2.82766537       0.19294926      -0.15350252
C       -1.44746429      -0.43522278      -0.31588536
C       -0.34230725       0.31323394       0.40172703
C        1.58804055      -0.89239639       0.36868899
C        2.75067555      -0.14723759       0.12720242
C        0.23233545       1.39385295      -0.21728948
N        1.15434860       1.97536956      -0.69867901
H       -3.58589079      -0.39292377      -0.67624129
H       -2.84565713       1.20723746      -0.55559063
H       -3.11311874       0.24587888       0.89963174
H       -1.46719266      -1.45884521       0.07028589
H       -1.19464406      -0.51171718      -1.37661663
H       -0.50848830       0.46605504       1.46744377
H        1.42818326      -1.33016210       1.34761951
H        1.19972681      -1.50481827      -0.44019148
H        3.52278066      -0.61910060      -0.47656072
H        2.25481704       1.03465647      -0.67823118
H        3.20152066       0.46319032       0.90618895
18
Frame=9 idx=006567 GeodesicLength=0.784827633346853 rxn_smarts="[C:1]([C:2]([C:3]([C:4]([C:5]([H:16])([H:17])[H:18])([H:14])[H:15])([C:6]#[N:7])[H:13])([H:11])[H:12])([H:8])([H:9])[H:10]>>[C:1]([C:2]([C:3](=[C:6]=[N:7][H:17])[H:13])([H:11])[H:12])([H:8])([H:9])[H:10].[C:4](=[C:5]([H:16])[H:18])([H:14])[H:15]"
C       -2.83253081       0.19725425      -0.13927467
C       -1.45681354      -0.43647187      -0.31597840
C       -0.33932831       0.30628863       0.39012614
C        1.59012732      -0.89313520       0.35184483
C        2.75831220      -0.14143182       0.14393613
C        0.22027706       1.39363606      -0.23772910
N        1.14192152       1.97292938      -0.72281226
H       -3.59828088      -0.38438370      -0.65569465
H       -2.85044687       1.21241683      -0.53913738
H       -3.10754733       0.24919082       0.91670206
H       -1.47712094      -1.46031887       0.06960364
H       -1.21525360      -0.51402390      -1.37927266
H       -0.50226176       0.46721688       1.45552067
H        1.42651160      -1.36715223       1.31344259
H        1.22089874      -1.48772878      -0.47965538
H        3.56793592      -0.63413240      -0.39095586
H        2.28252451       1.02690771      -0.70610098
H        3.17107517       0.49293820       0.92543528
18
Frame=10 idx=006567 GeodesicLength=0.870277866596044 rxn_smarts="[C:1]([C:2]([C:3]([C:4]([C:5]([H:16])([H:17])[H:18])([H:14])[H:15])([C:6]#[N:7])[H:13])([H:11])[H:12])([H:8])([H:9])[H:10]>>[C:1]([C:2]([C:3](=[C:6]=[N:7][H:17])[H:13])([H:11])[H:12])([H:8])([H:9])[H:10].[C:4](=[C:5]([H:16])[H:18])([H:14])[H:15]"
C       -2.83698167       0.20140111      -0.12525571
C       -1.46585673      -0.43782561      -0.31591336
C       -0.33631053       0.29936992       0.37855670
C        1.59237781      -0.89371726       0.33478072
C        2.76548307      -0.13609751       0.15978491
C        0.20800422       1.39352911      -0.25773999
N        1.12937935       1.97058272      -0.74633044
H       -3.61008226      -0.37610233      -0.63528134
H       -2.85475862       1.21735761      -0.52309265
H       -3.10168397       0.25251019       0.93341610
H       -1.48681713      -1.46182308       0.06927674
H       -1.23537921      -0.51656870      -1.38159913
H       -0.49595979       0.46810380       1.44361839
H        1.42579353      -1.40295675       1.27799427
H        1.24235951      -1.47001029      -0.51830382
H        3.60743660      -0.64823475      -0.30288341
H        2.31198952       1.01928722      -0.73268260
H        3.14100627       0.52119459       0.94165461
18
Frame=11 idx=006567 GeodesicLength=0.9554533396492954 rxn_smarts="[C:1]([C:2]([C:3]([C:4]([C:5]([H:16])([H:17])[H:18])([H:14])[H:15])([C:6]#[N:7])[H:13])([H:11])[H:12])([H:8])([H:9])[H:10]>>[C:1]([C:2]([C:3](=[C:6]=[N:7][H:17])[H:13])([H:11])[H:12])([H:8])([H:9])[H:10].[C:4](=[C:5]([H:16])[H:18])([H:14])[H:15]"
C       -2.84103738       0.20539536      -0.11142971
C       -1.47460902      -0.43928441      -0.31569448
C       -0.33325493       0.29245617       0.36702231
C        1.59480851      -0.89413063       0.31751317
C        2.77229419      -0.13126391       0.17484205
C        0.19552166       1.39351248      -0.27729432
N        1.11669736       1.96833496      -0.76922734
H       -3.62132379      -0.36806352      -0.61498857
H       -2.85861631       1.22206908      -0.50742914
H       -3.09553579       0.25583278       0.94979668
H       -1.49629025      -1.46336310       0.06928263
H       -1.25504609      -0.51933434      -1.38360635
H       -0.48959128       0.46869498       1.43174075
H        1.42598132      -1.43758487       1.24134329
H        1.26411396      -1.45167829      -0.55614376
H        3.64116414      -0.66134231      -0.21263815
H        2.34327120       1.01166390      -0.75811910
H        3.11145249       0.54808566       0.95503004
18
Frame=12 idx=006567 GeodesicLength=1.0403589265790534 rxn_smarts="[C:1]([C:2]([C:3]([C:4]([C:5]([H:16])([H:17])[H:18])([H:14])[H:15])([C:6]#[N:7])[H:13])([H:11])[H:12])([H:8])([H:9])[H:10]>>[C:1]([C:2]([C:3](=[C:6]=[N:7][H:17])[H:13])([H:11])[H:12])([H:8])([H:9])[H:10].[C:4](=[C:5]([H:16])[H:18])([H:14])[H:15]"
C       -2.84471786       0.20923649      -0.09777935
C       -1.48308453      -0.44084340      -0.31533192
C       -0.33016429       0.28553153       0.35552714
C        1.59742480      -0.89437011       0.30006888
C        2.77884784      -0.12696113       0.18918846
C        0.18283895       1.39357008      -0.29636209
N        1.10385546       1.96618686      -0.79149063
H       -3.63202967      -0.36025422      -0.59481065
H       -2.86204810       1.22656124      -0.49210431
H       -3.08911487       0.25913142       0.96586778
H       -1.50554577      -1.46494517       0.06958665
H       -1.27427767      -0.52228577      -1.38531325
H       -0.48316341       0.46897137       1.41989689
H        1.42703155      -1.47103055       1.20355406
H        1.28616353      -1.43275258      -0.59316810
H        3.66898592      -0.67338348      -0.12045329
H        2.37643368       1.00391684      -0.78255702
H        3.08256442       0.57372057       0.96568076
18
Frame=13 idx=006567 GeodesicLength=1.125325156266528 rxn_smarts="[C:1]([C:2]([C:3]([C:4]([C:5]([H:16])([H:17])[H:18])([H:14])[H:15])([C:6]#[N:7])[H:13])([H:11])[H:12])([H:8])([H:9])[H:10]>>[C:1]([C:2]([C:3](=[C:6]=[N:7][H:17])[H:13])([H:11])[H:12])([H:8])([H:9])[H:10].[C:4](=[C:5]([H:16])[H:18])([H:14])[H:15]"
C       -2.84806570       0.21290739      -0.08424311
C       -1.49129943      -0.44247967      -0.31482872
C       -0.32706331       0.27863659       0.34407219
C        1.60019196      -0.89440472       0.28243236
C        2.78522812      -0.12319023       0.20290396
C        0.16996265       1.39375404      -0.31495621
N        1.09087454       1.96422890      -0.81315553
H       -3.64223969      -0.35271006      -0.57469094
H       -2.86514247       1.23083551      -0.47701529
H       -3.08243985       0.26234031       0.98170199
H       -1.51455460      -1.46655636       0.07015066
H       -1.29311890      -0.52537341      -1.38673785
H       -0.47672540       0.46897025       1.40810580
H        1.42878865      -1.50344291       1.16458543
H        1.30849210      -1.41313641      -0.62948589
H        3.69110587      -0.68418765      -0.02627830
H        2.41162980       0.99561859      -0.80627204
H        3.05437568       0.59818985       0.97371149
18
Frame=14 idx=006567 GeodesicLength=1.2101557496684558 rxn_smarts="[C:1]([C:2]([C:3]([C:4]([C:5]([H:16])([H:17])[H:18])([H:14])[H:15])([C:6]#[N:7])[H:13])([H:11])[H:12])([H:8])([H:9])[H:10]>>[C:1]([C:2]([C:3](=[C:6]=[N:7][H:17])[H:13])([H:11])[H:12])([H:8])([H:9])[H:10].[C:4](=[C:5]([H:16])[H:18])([H:14])[H:15]"
C       -2.85103558       0.21640872      -0.07068347
C       -1.49924235      -0.44421953      -0.31415331
C       -0.32385653       0.27177459       0.33250954
C        1.60313357      -0.89433809       0.26439421
C        2.79139272      -0.11996719       0.21631135
C        0.15693258       1.39397716      -0.33335995
N        1.07773860       1.96230164      -0.83462086
H       -3.65197249      -0.34544449      -0.55435916
H       -2.86789345       1.23486106      -0.46210109
H       -3.07534216       0.26554319       0.99746298
H       -1.52325868      -1.46820089       0.07108094
H       -1.31168415      -0.52868438      -1.38786905
H       -0.47003881       0.46879713       1.39621614
H        1.43113395      -1.53503594       1.12408677
H        1.33120925      -1.39268253      -0.66546843
H        3.70703710      -0.69368565       0.06994629
H        2.44915182       0.98691297      -0.82897538
H        3.02659461       0.62168221       0.97958248
18
Frame=15 idx=006567 GeodesicLength=1.2947810596904432 rxn_smarts="[C:1]([C:2]([C:3]([C:4]([C:5]([H:16])([H:17])[H:18])([H:14])[H:15])([C:6]#[N:7])[H:13])([H:11])[H:12])([H:8])([H:9])[H:10]>>[C:1]([C:2]([C:3](=[C:6]=[N:7][H:17])[H:13])([H:11])[H:12])([H:8])([H:9])[H:10].[C:4](=[C:5]([H:16])[H:18])([H:14])[H:15]"
C       -2.85364863       0.21975443      -0.05720197
C       -1.50691950      -0.44606553      -0.31331675
C       -0.32058663       0.26488571       0.32096242
C        1.60626363      -0.89412599       0.24616405
C        2.79743526      -0.11732458       0.22944926
C        0.14374690       1.39424055      -0.35131344
N        1.06441771       1.96048455      -0.85558702
H       -3.66121575      -0.33840661      -0.53402389
H       -2.87026818       1.23867024      -0.44741426
H       -3.06793408       0.26871170       1.01303074
H       -1.53171836      -1.46989619       0.07231256
H       -1.32988454      -0.53217535      -1.38870614
H       -0.46324616       0.46832282       1.38435110
H        1.43415975      -1.56563065       1.08238350
H        1.35425915      -1.37153746      -0.70077397
H        3.71656095      -0.70167228       0.16735002
H        2.48898761       0.97750945      -0.85083910
H        2.99959087       0.64425519       0.98317287
18
Frame=16 idx=006567 GeodesicLength=1.3792628671687162 rxn_smarts="[C:1]([C:2]([C:3]([C:4]([C:5]([H:16])([H:17])[H:18])([H:14])[H:15])([C:6]#[N:7])[H:13])([H:11])[H:12])([H:8])([H:9])[H:10]>>[C:1]([C:2]([C:3](=[C:6]=[N:7][H:17])[H:13])([H:11])[H:12])([H:8])([H:9])[H:10].[C:4](=[C:5]([H:16])[H:18])([H:14])[H:15]"
C       -2.85591075       0.22293499      -0.04374669
C       -1.51433587      -0.44801236      -0.31231890
C       -0.31724847       0.25798019       0.30940816
C        1.60956348      -0.89378343       0.22770959
C        2.80333909      -0.11527277       0.24245537
C        0.13040862       1.39454724      -0.36885706
N        1.05089357       1.95880005      -0.87612244
H       -3.66998399      -0.33160691      -0.51361890
H       -2.87229769       1.24226013      -0.43288676
H       -3.06018992       0.27181765       1.02846639
H       -1.53991082      -1.47164205       0.07383391
H       -1.34776017      -0.53582862      -1.38925893
H       -0.45632407       0.46756870       1.37250033
H        1.43779617      -1.59529191       1.03941277
H        1.37765836      -1.34964776      -0.73547622
H        3.71957898      -0.70797563       0.26579280
H        2.53135315       0.96715944      -0.87188241
H        2.97337032       0.66599306       0.98458900
