15
Frame=0 idx=006494 GeodesicLength=0.0 rxn_smarts="[O:1]=[C:2]1[N:3]([H:8])[C:4]([H:9])([H:10])[C:5]([H:11])([H:12])[C:6]([H:13])([H:14])[N:7]1[H:15]>>[N:3]1([H:8])[C:4]([H:9])([H:10])[C@@:5]1([C:6]([H:12])([H:13])[H:14])[H:11].[O:1]=[C:2]=[N:7][H:15]"
O        2.77794866      -0.56745217       0.35523606
C        1.70446777      -0.23235161      -0.14393547
N        0.65554204      -1.21659927      -0.02700175
C       -0.69552494      -1.06619469      -0.47681200
C       -1.04833255      -0.05741152       0.56206275
C       -0.89097421       1.30113970       0.27242028
N        1.30422726       0.86740987      -0.75814693
H        0.89124666      -1.99253757       0.56860042
H       -0.74543733      -0.65841515      -1.48611200
H       -1.24379736      -2.00265658      -0.40561823
H       -1.13398347      -0.37773954       1.59393030
H       -2.08781440       0.85325430       0.41848868
H       -0.73771883       2.02420866       1.06423394
H       -0.84398722       1.62231705      -0.75406408
H        2.09413790       1.50302857      -0.78328194
15
Frame=1 idx=006494 GeodesicLength=0.09635216897472185 rxn_smarts="[O:1]=[C:2]1[N:3]([H:8])[C:4]([H:9])([H:10])[C:5]([H:11])([H:12])[C:6]([H:13])([H:14])[N:7]1[H:15]>>[N:3]1([H:8])[C:4]([H:9])([H:10])[C@@:5]1([C:6]([H:12])([H:13])[H:14])[H:11].[O:1]=[C:2]=[N:7][H:15]"
O        2.79326146      -0.56793135       0.33415984
C        1.71861271      -0.22579239      -0.15086249
N        0.64224289      -1.21118955      -0.00819931
C       -0.70392580      -1.07355451      -0.47852937
C       -1.05014215      -0.06314763       0.56039053
C       -0.87582987       1.29905036       0.26929690
N        1.30758179       0.88092721      -0.74121067
H        0.87842273      -1.99554121       0.57609068
H       -0.74657109      -0.67034222      -1.48989950
H       -1.25264612      -2.00934809      -0.40289834
H       -1.14642812      -0.38198078       1.59189195
H       -2.08563787       0.85649372       0.41277854
H       -0.72707187       2.01881639       1.06537216
H       -0.84232740       1.62010808      -0.75856375
H        2.09045871       1.52343197      -0.77981717
15
Frame=2 idx=006494 GeodesicLength=0.1926986867011043 rxn_smarts="[O:1]=[C:2]1[N:3]([H:8])[C:4]([H:9])([H:10])[C:5]([H:11])([H:12])[C:6]([H:13])([H:14])[N:7]1[H:15]>>[N:3]1([H:8])[C:4]([H:9])([H:10])[C@@:5]1([C:6]([H:12])([H:13])[H:14])[H:11].[O:1]=[C:2]=[N:7][H:15]"
O        2.80896677      -0.56942532       0.31086416
C        1.73276134      -0.21893415      -0.15760632
N        0.62897066      -1.20579095       0.01067377
C       -0.71208969      -1.08092442      -0.47985714
C       -1.05209695      -0.06872005       0.55879035
C       -0.86098432       1.29696190       0.26606756
N        1.31135391       0.89464244      -0.72330888
H        0.86546476      -1.99851701       0.58348349
H       -0.74740407      -0.68255758      -1.49334224
H       -1.26140415      -2.01595389      -0.39983208
H       -1.15899770      -0.38571959       1.58992023
H       -2.08379838       0.85950476       0.40652375
H       -0.71747629       2.01365767       1.06628329
H       -0.84014562       1.61780328      -0.76301482
H        2.08687972       1.54397293      -0.77564514
15
Frame=3 idx=006494 GeodesicLength=0.2890220871105886 rxn_smarts="[O:1]=[C:2]1[N:3]([H:8])[C:4]([H:9])([H:10])[C:5]([H:11])([H:12])[C:6]([H:13])([H:14])[N:7]1[H:15]>>[N:3]1([H:8])[C:4]([H:9])([H:10])[C@@:5]1([C:6]([H:12])([H:13])[H:14])[H:11].[O:1]=[C:2]=[N:7][H:15]"
O        2.82458241      -0.57128542       0.28648751
C        1.74693513      -0.21184325      -0.16445081
N        0.61570904      -1.20053000       0.02937056
C       -0.72008606      -1.08831509      -0.48088312
C       -1.05408699      -0.07417788       0.55727171
C       -0.84629339       1.29483905       0.26280215
N        1.31552037       0.90846918      -0.70464770
H        0.85236528      -2.00151946       0.59062045
H       -0.74809508      -0.69502016      -1.49649901
H       -1.27018352      -2.02245840      -0.39649416
H       -1.17148786      -0.38906436       1.58801597
H       -2.08216145       0.86229764       0.39989558
H       -0.70865595       2.00865853       1.06703821
H       -0.83741406       1.61539813      -0.76736890
H        2.08335213       1.56455147      -0.77115843
15
Frame=4 idx=006494 GeodesicLength=0.38531247110569894 rxn_smarts="[O:1]=[C:2]1[N:3]([H:8])[C:4]([H:9])([H:10])[C:5]([H:11])([H:12])[C:6]([H:13])([H:14])[N:7]1[H:15]>>[N:3]1([H:8])[C:4]([H:9])([H:10])[C@@:5]1([C:6]([H:12])([H:13])[H:14])[H:11].[O:1]=[C:2]=[N:7][H:15]"
O        2.83985360      -0.57308412       0.26178594
C        1.76115629      -0.20454829      -0.17156515
N        0.60244171      -1.19550271       0.04772743
C       -0.72797204      -1.09572885      -0.48167664
C       -1.05604476      -0.07955795       0.55583774
C       -0.83165682       1.29265543       0.25955503
N        1.32006837       0.92234222      -0.68534565
H        0.83911132      -2.00457360       0.59743716
H       -0.74875130      -0.70769004      -1.49941826
H       -1.27907235      -2.02884519      -0.39295474
H       -1.18377839      -0.39210083       1.58617561
H       -2.08063789       0.86488270       0.39300719
H       -0.70042110       2.00376231       1.06769326
H       -0.83411015       1.61289174      -0.77158770
H        2.07981352       1.58509717      -0.76667120
15
Frame=5 idx=006494 GeodesicLength=0.4815672163744263 rxn_smarts="[O:1]=[C:2]1[N:3]([H:8])[C:4]([H:9])([H:10])[C:5]([H:11])([H:12])[C:6]([H:13])([H:14])[N:7]1[H:15]>>[N:3]1([H:8])[C:4]([H:9])([H:10])[C@@:5]1([C:6]([H:12])([H:13])[H:14])[H:11].[O:1]=[C:2]=[N:7][H:15]"
O        2.85468842      -0.57457441       0.23719726
C        1.77544929      -0.19704863      -0.17903260
N        0.58915206      -1.19077806       0.06565316
C       -0.73579152      -1.10316273      -0.48228999
C       -1.05793599      -0.08488616       0.55448696
C       -0.81700854       1.29039258       0.25636838
N        1.32499629       0.93621758      -0.66544619
H        0.82568927      -2.00768582       0.60394016
H       -0.74943372      -0.72053134      -1.50213797
H       -1.28813606      -2.03509876      -0.38927650
H       -1.19581763      -0.39489373       1.58439187
H       -2.07917409       0.86727060       0.38592163
H       -0.69265337       1.99892859       1.06829235
H       -0.83021206       1.61028463      -0.77564323
H        2.07618763       1.60556565      -0.76242530
15
Frame=6 idx=006494 GeodesicLength=0.577785459345228 rxn_smarts="[O:1]=[C:2]1[N:3]([H:8])[C:4]([H:9])([H:10])[C:5]([H:11])([H:12])[C:6]([H:13])([H:14])[N:7]1[H:15]>>[N:3]1([H:8])[C:4]([H:9])([H:10])[C@@:5]1([C:6]([H:12])([H:13])[H:14])[H:11].[O:1]=[C:2]=[N:7][H:15]"
O        2.86907259      -0.57559452       0.21301812
C        1.78984205      -0.18932846      -0.18689361
N        0.57582260      -1.18640767       0.08309866
C       -0.74357939      -1.11060901      -0.48276678
C       -1.05974419      -0.09018242       0.55321606
C       -0.80229913       1.28803626       0.25328241
N        1.33030948       0.95006341      -0.64494627
H        0.81208641      -2.01086369       0.61015870
H       -0.75017514      -0.73350679      -1.50468960
H       -1.29742539      -2.04120252      -0.38552114
H       -1.20759228      -0.39749775       1.58265438
H       -2.07773364       0.86947392       0.37867744
H       -0.68527223       1.99412406       1.06887807
H       -0.82569590       1.60758034      -0.77950690
H        2.07238415       1.62591483      -0.75865956
15
Frame=7 idx=006494 GeodesicLength=0.673969712362119 rxn_smarts="[O:1]=[C:2]1[N:3]([H:8])[C:4]([H:9])([H:10])[C:5]([H:11])([H:12])[C:6]([H:13])([H:14])[N:7]1[H:15]>>[N:3]1([H:8])[C:4]([H:9])([H:10])[C@@:5]1([C:6]([H:12])([H:13])[H:14])[H:11].[O:1]=[C:2]=[N:7][H:15]"
O        2.88305292      -0.57607375       0.18937771
C        1.80436632      -0.18135779      -0.19514748
N        0.56243581      -1.18242566       0.10005993
C       -0.75135884      -1.11805729      -0.48313926
C       -1.06146927      -0.09545954       0.55202011
C       -0.78749426       1.28557707       0.25033289
N        1.33602437       0.96386144      -0.62379395
H        0.79829223      -2.01411498       0.61614580
H       -0.75097685      -0.74658261      -1.50709651
H       -1.30697484      -2.04714049      -0.38174432
H       -1.21912637      -0.39995369       1.58095034
H       -2.07629615       0.87150698       0.37128389
H       -0.67823480       1.98932571       1.06948720
H       -0.82053144       1.60478225      -0.78315520
H        2.06829118       1.64611238      -0.75558115
15
Frame=8 idx=006494 GeodesicLength=0.77012295978425 rxn_smarts="[O:1]=[C:2]1[N:3]([H:8])[C:4]([H:9])([H:10])[C:5]([H:11])([H:12])[C:6]([H:13])([H:14])[N:7]1[H:15]>>[N:3]1([H:8])[C:4]([H:9])([H:10])[C@@:5]1([C:6]([H:12])([H:13])[H:14])[H:11].[O:1]=[C:2]=[N:7][H:15]"
O        2.89669949      -0.57598220       0.16633447
C        1.81905773      -0.17309781      -0.20376838
N        0.54897468      -1.17885491       0.11656173
C       -0.75914228      -1.12549349      -0.48343480
C       -1.06312063      -0.10072641       0.55089378
C       -0.77256632       1.28300900       0.24756029
N        1.34216800       0.97760385      -0.60189491
H        0.78429700      -2.01745548       0.62195662
H       -0.75181499      -0.75972214      -1.50937706
H       -1.31680634      -2.05289522      -0.37800492
H       -1.23046840      -0.40229698       1.57926354
H       -2.07484876       0.87338672       0.36373449
H       -0.67152114       1.98451565       1.07016173
H       -0.81467943       1.60189705      -0.78655931
H        2.06377137       1.66611236      -0.75342728
15
Frame=9 idx=006494 GeodesicLength=0.8662451570091669 rxn_smarts="[O:1]=[C:2]1[N:3]([H:8])[C:4]([H:9])([H:10])[C:5]([H:11])([H:12])[C:6]([H:13])([H:14])[N:7]1[H:15]>>[N:3]1([H:8])[C:4]([H:9])([H:10])[C@@:5]1([C:6]([H:12])([H:13])[H:14])[H:11].[O:1]=[C:2]=[N:7][H:15]"
O        2.91009750      -0.57535793       0.14377557
C        1.83394904      -0.16451308      -0.21275025
N        0.53541993      -1.17571023       0.13264952
C       -0.76694262      -1.13291420      -0.48365989
C       -1.06470672      -0.10598148       0.54983015
C       -0.75748836       1.28032662       0.24497127
N        1.34876954       0.99126961      -0.57918733
H        0.77009455      -2.02089795       0.62765735
H       -0.75266990      -0.77292293      -1.51153754
H       -1.32694043      -2.05845743      -0.37431737
H       -1.24166141      -0.40452801       1.57758368
H       -2.07337611       0.87513391       0.35600064
H       -0.66510620       1.97969260       1.07089177
H       -0.80809812       1.59890789      -0.78973215
H        2.05865931       1.68595261      -0.75217541
15
Frame=10 idx=006494 GeodesicLength=0.9623419618203067 rxn_smarts="[O:1]=[C:2]1[N:3]([H:8])[C:4]([H:9])([H:10])[C:5]([H:11])([H:12])[C:6]([H:13])([H:14])[N:7]1[H:15]>>[N:3]1([H:8])[C:4]([H:9])([H:10])[C@@:5]1([C:6]([H:12])([H:13])[H:14])[H:11].[O:1]=[C:2]=[N:7][H:15]"
O        2.92333055      -0.57421548       0.12168095
C        1.84908229      -0.15554840      -0.22202054
N        0.52175705      -1.17299803       0.14839396
C       -0.77474763      -1.14029497      -0.48383885
C       -1.06624985      -0.11122841       0.54882345
C       -0.74223566       1.27752904       0.24262690
N        1.35588556       1.00487205      -0.55548129
H        0.75567280      -2.02447299       0.63330078
H       -0.75346465      -0.78613327      -1.51358990
H       -1.33737484      -2.06380231      -0.37076015
H       -1.25279745      -0.40668070       1.57588489
H       -2.07187076       0.87677156       0.34804915
H       -0.65900451       1.97484235       1.07174375
H       -0.80071807       1.59583176      -0.79262353
H        2.05273518       1.70552780      -0.75218956
15
Frame=11 idx=006494 GeodesicLength=1.058412292097003 rxn_smarts="[O:1]=[C:2]1[N:3]([H:8])[C:4]([H:9])([H:10])[C:5]([H:11])([H:12])[C:6]([H:13])([H:14])[N:7]1[H:15]>>[N:3]1([H:8])[C:4]([H:9])([H:10])[C@@:5]1([C:6]([H:12])([H:13])[H:14])[H:11].[O:1]=[C:2]=[N:7][H:15]"
O        2.93647770      -0.57260494       0.09992215
C        1.86449489      -0.14615475      -0.23153652
N        0.50797000      -1.17072304       0.16387160
C       -0.78254597      -1.14762061      -0.48398061
C       -1.06776389      -0.11646114       0.54786536
C       -0.72677394       1.27461418       0.24055807
N        1.36357850       1.01840372      -0.53063232
H        0.74102080      -2.02820790       0.63894254
H       -0.75413105      -0.79933186      -1.51553709
H       -1.34810924      -2.06890940      -0.36737364
H       -1.26395154      -0.40875703       1.57414446
H       -2.07031190       0.87833025       0.33983344
H       -0.65320513       1.96996270       1.07273545
H       -0.79246224       1.59266238      -0.79522034
H        2.04571299       1.72479746      -0.75359256
15
Frame=12 idx=006494 GeodesicLength=1.154459354633409 rxn_smarts="[O:1]=[C:2]1[N:3]([H:8])[C:4]([H:9])([H:10])[C:5]([H:11])([H:12])[C:6]([H:13])([H:14])[N:7]1[H:15]>>[N:3]1([H:8])[C:4]([H:9])([H:10])[C@@:5]1([C:6]([H:12])([H:13])[H:14])[H:11].[O:1]=[C:2]=[N:7][H:15]"
O        2.94960580      -0.57057018       0.07835829
C        1.88022170      -0.13627906      -0.24126584
N        0.49404357      -1.16889133       0.17915598
C       -0.79032617      -1.15488025      -0.48409085
C       -1.06925597      -0.12166909       0.54694601
C       -0.71105732       1.27158009       0.23878463
N        1.37192059       1.03184880      -0.50453084
H        0.72612711      -2.03213408       0.64462914
H       -0.75460520      -0.81251039      -1.51738118
H       -1.35914639      -2.07376066      -0.36418682
H       -1.27518606      -0.41074530       1.57234033
H       -2.06866691       0.87984822       0.33130638
H       -0.64766861       1.96505774       1.07386664
H       -0.78324723       1.58938588      -0.79752315
H        2.03724110       1.74371961      -0.75640872
15
Frame=13 idx=006494 GeodesicLength=1.2504659441666364 rxn_smarts="[O:1]=[C:2]1[N:3]([H:8])[C:4]([H:9])([H:10])[C:5]([H:11])([H:12])[C:6]([H:13])([H:14])[N:7]1[H:15]>>[N:3]1([H:8])[C:4]([H:9])([H:10])[C@@:5]1([C:6]([H:12])([H:13])[H:14])[H:11].[O:1]=[C:2]=[N:7][H:15]"
O        2.96275578      -0.56817090       0.05673638
C        1.89627860      -0.12588097      -0.25126482
N        0.47996315      -1.16751125       0.19430222
C       -0.79809150      -1.16208694      -0.48414879
C       -1.07071676      -0.12682866       0.54604988
C       -0.69503060       1.26841876       0.23726379
N        1.38096228       1.04514682      -0.47722969
H        0.71099051      -2.03626864       0.65040722
H       -0.75487149      -0.82572543      -1.51910599
H       -1.37049893      -2.07835272      -0.36115273
H       -1.28651542      -0.41258132       1.57045560
H       -2.06688623       0.88137475       0.32241854
H       -0.64229720       1.96015063       1.07504513
H       -0.77301406       1.58594682      -0.79959805
H        2.02697188       1.76236906      -0.76017869
15
Frame=14 idx=006494 GeodesicLength=1.3464591017172451 rxn_smarts="[O:1]=[C:2]1[N:3]([H:8])[C:4]([H:9])([H:10])[C:5]([H:11])([H:12])[C:6]([H:13])([H:14])[N:7]1[H:15]>>[N:3]1([H:8])[C:4]([H:9])([H:10])[C@@:5]1([C:6]([H:12])([H:13])[H:14])[H:11].[O:1]=[C:2]=[N:7][H:15]"
O        2.97594707      -0.56540275       0.03488874
C        1.91267994      -0.11490036      -0.26160708
N        0.46571314      -1.16659470       0.20934116
C       -0.80586531      -1.16926595      -0.48413606
C       -1.07213224      -0.13192081       0.54516427
C       -0.67862829       1.26511749       0.23593498
N        1.39074220       1.05823572      -0.44891324
H        0.69560844      -2.04063552       0.65629946
H       -0.75495460      -0.83905383      -1.52070820
H       -1.38220509      -2.08269643      -0.35821080
H       -1.29792584      -0.41419947       1.56848997
H       -2.06491603       0.88295614       0.31314535
H       -0.63693662       1.95526303       1.07616624
H       -0.76173364       1.58228652      -0.80153252
H        2.01460688       1.78081094      -0.76432226
15
Frame=15 idx=006494 GeodesicLength=1.4424501648698305 rxn_smarts="[O:1]=[C:2]1[N:3]([H:8])[C:4]([H:9])([H:10])[C:5]([H:11])([H:12])[C:6]([H:13])([H:14])[N:7]1[H:15]>>[N:3]1([H:8])[C:4]([H:9])([H:10])[C@@:5]1([C:6]([H:12])([H:13])[H:14])[H:11].[O:1]=[C:2]=[N:7][H:15]"
O        2.98914814      -0.56227155       0.01245648
C        1.92939800      -0.10330332      -0.27259215
N        0.45127593      -1.16615392       0.22425712
C       -0.81372675      -1.17650622      -0.48397432
C       -1.07347407      -0.13691617       0.54427305
C       -0.66180344       1.26164582       0.23460158
N        1.40119719       1.07098327      -0.42014212
H        0.68000599      -2.04522126       0.66233772
H       -0.75502230      -0.85271770      -1.52214841
H       -1.39433851      -2.08685615      -0.35512731
H       -1.30930904      -0.41544848       1.56647317
H       -2.06270923       0.88462932       0.30346949
H       -0.63136216       1.95045146       1.07694175
H       -0.74948597       1.57826492      -0.80355484
H        2.00020623       1.79942000      -0.76727121
15
Frame=16 idx=006494 GeodesicLength=1.5384603684823714 rxn_smarts="[O:1]=[C:2]1[N:3]([H:8])[C:4]([H:9])([H:10])[C:5]([H:11])([H:12])[C:6]([H:13])([H:14])[N:7]1[H:15]>>[N:3]1([H:8])[C:4]([H:9])([H:10])[C@@:5]1([C:6]([H:12])([H:13])[H:14])[H:11].[O:1]=[C:2]=[N:7][H:15]"
O        3.00229137      -0.55875061      -0.01091759
C        1.94638480      -0.09104500      -0.28460198
N        0.43663221      -1.16619087       0.23902193
C       -0.82177943      -1.18391803      -0.48356727
C       -1.07472977      -0.14179807       0.54336633
C       -0.64454786       1.25796084       0.23304206
N        1.41219279       1.08326819      -0.39156703
H        0.66421660      -2.04999583       0.66855521
H       -0.75529658      -0.86697369      -1.52337497
H       -1.40698232      -2.09092160      -0.35162652
H       -1.32054464      -0.41617960       1.56445256
H       -2.06025502       0.88639786       0.29338096
H       -0.62538869       1.94577107       1.07705991
H       -0.73641818       1.57372736      -0.80591377
H        1.98422471       1.81864798      -0.76730983
