14
Frame=0 idx=005658 GeodesicLength=0.0 rxn_smarts="[C:1]([O:2][C:3]1([H:10])[C:4]([H:11])([H:12])[O:5][C:6]1([H:13])[H:14])([H:7])([H:8])[H:9]>>[C:1]([O:2][C:3](=[C:6]([H:13])[H:14])[H:10])([H:7])([H:8])[H:9].[C:4](=[O:5])([H:11])[H:12]"
C        1.99890374      -0.13150070       0.36553855
O        0.84042250       0.57098748       0.77061060
C       -0.10752185       0.68499718      -0.21493749
C       -1.07021796      -0.92251325      -0.32981510
O       -2.38371605      -0.76571237      -0.35300129
C       -1.43060359       0.91585282       0.14114010
H        1.77876118      -1.17778904       0.13239821
H        2.45563400       0.34110742      -0.51147485
H        2.69901850      -0.09120649       1.19722505
H        0.25345199       0.97416583      -1.19854729
H       -0.61607017      -1.32416993       0.59316305
H       -0.59405447      -1.36845919      -1.22328323
H       -1.71495423       0.91141974       1.18466257
H       -2.10905354       1.38282046      -0.55367890
14
Frame=1 idx=005658 GeodesicLength=0.06998731737120563 rxn_smarts="[C:1]([O:2][C:3]1([H:10])[C:4]([H:11])([H:12])[O:5][C:6]1([H:13])[H:14])([H:7])([H:8])[H:9]>>[C:1]([O:2][C:3](=[C:6]([H:13])[H:14])[H:10])([H:7])([H:8])[H:9].[C:4](=[O:5])([H:11])[H:12]"
C        2.00442305      -0.12421222       0.36393775
O        0.83637918       0.55987563       0.77162874
C       -0.10920398       0.67570943      -0.21594605
C       -1.07878005      -0.94427836      -0.32671842
O       -2.38904256      -0.76895412      -0.34953807
C       -1.43178389       0.92338454       0.13852959
H        1.79685229      -1.16706232       0.10492306
H        2.46680579       0.37184859      -0.49700161
H        2.69526249      -0.09741007       1.20393897
H        0.25644289       0.96588146      -1.19791105
H       -0.62904135      -1.34558357       0.59822101
H       -0.60575985      -1.38866145      -1.22196902
H       -1.71247582       0.93251905       1.18343186
H       -2.10007820       1.40694342      -0.55552677
14
Frame=2 idx=005658 GeodesicLength=0.13989737266558724 rxn_smarts="[C:1]([O:2][C:3]1([H:10])[C:4]([H:11])([H:12])[O:5][C:6]1([H:13])[H:14])([H:7])([H:8])[H:9]>>[C:1]([O:2][C:3](=[C:6]([H:13])[H:14])[H:10])([H:7])([H:8])[H:9].[C:4](=[O:5])([H:11])[H:12]"
C        2.00974454      -0.11678029       0.36231269
O        0.83224197       0.54852164       0.77252632
C       -0.11104087       0.66630833      -0.21699836
C       -1.08736417      -0.96651775      -0.32351787
O       -2.39409312      -0.77238008      -0.34617154
C       -1.43291713       0.93100400       0.13579844
H        1.81496218      -1.15538483       0.07724730
H        2.47718926       0.40277476      -0.48185728
H        2.69145392      -0.10400917       1.21012021
H        0.25932730       0.95755395      -1.19726338
H       -0.64229162      -1.36737138       0.60352408
H       -0.61724285      -1.40922616      -1.22045805
H       -1.70962847       0.95374759       1.18198481
H       -2.09034094       1.43175939      -0.55724736
14
Frame=3 idx=005658 GeodesicLength=0.20973291025102567 rxn_smarts="[C:1]([O:2][C:3]1([H:10])[C:4]([H:11])([H:12])[O:5][C:6]1([H:13])[H:14])([H:7])([H:8])[H:9]>>[C:1]([O:2][C:3](=[C:6]([H:13])[H:14])[H:10])([H:7])([H:8])[H:9].[C:4](=[O:5])([H:11])[H:12]"
C        2.01484734      -0.10920293       0.36066644
O        0.82800116       0.53692632       0.77329391
C       -0.11304620       0.65679807      -0.21809661
C       -1.09596516      -0.98924897      -0.32021903
O       -2.39884501      -0.77600620      -0.34291848
C       -1.43400918       0.93871760       0.13294140
H        1.83306297      -1.14274281       0.04943325
H        2.48673792       0.43383004      -0.46606462
H        2.68760129      -0.11096039       1.21573789
H        0.26209251       0.94919041      -1.19660429
H       -0.65582537      -1.38954726       0.60906798
H       -0.62847830      -1.43015684      -1.21875500
H       -1.70639871       0.97509041       1.18031580
H       -2.07977525       1.45731254      -0.55879865
14
Frame=4 idx=005658 GeodesicLength=0.27950209190703046 rxn_smarts="[C:1]([O:2][C:3]1([H:10])[C:4]([H:11])([H:12])[O:5][C:6]1([H:13])[H:14])([H:7])([H:8])[H:9]>>[C:1]([O:2][C:3](=[C:6]([H:13])[H:14])[H:10])([H:7])([H:8])[H:9].[C:4](=[O:5])([H:11])[H:12]"
C        2.01970935      -0.10147699       0.35900190
O        0.82364564       0.52508950       0.77391558
C       -0.11523493       0.64718155      -0.21925095
C       -1.10458188      -1.01249345      -0.31682566
O       -2.40327556      -0.77985252      -0.33978666
C       -1.43506614       0.94653310       0.12994737
H        1.85112790      -1.12910987       0.02152677
H        2.49540463       0.46497888      -0.44963155
H        2.68370852      -0.11823730       1.22077183
H        0.26472363       0.94078860      -1.19594435
H       -0.66964588      -1.41212531       0.61484918
H       -0.63944557      -1.45146533      -1.21685979
H       -1.70276971       0.99653807       1.17841635
H       -2.06830001       1.48365106      -0.56013004
14
Frame=5 idx=005658 GeodesicLength=0.34920693615747844 rxn_smarts="[C:1]([O:2][C:3]1([H:10])[C:4]([H:11])([H:12])[O:5][C:6]1([H:13])[H:14])([H:7])([H:8])[H:9]>>[C:1]([O:2][C:3](=[C:6]([H:13])[H:14])[H:10])([H:7])([H:8])[H:9].[C:4](=[O:5])([H:11])[H:12]"
C        2.02431163      -0.09359682       0.35732139
O        0.81916478       0.51301149       0.77438295
C       -0.11762128       0.63746301      -0.22046564
C       -1.11321264      -1.03626832      -0.31334222
O       -2.40736683      -0.78393592      -0.33678323
C       -1.43609409       0.95445845       0.12681019
H        1.86912778      -1.11447752      -0.00641848
H        2.50315865       0.49616786      -0.43257560
H        2.67978435      -0.12579103       1.22519716
H        0.26720810       0.93235206      -1.19528604
H       -0.68375592      -1.43511988       0.62086042
H       -0.65012864      -1.47315440      -1.21477833
H       -1.69872880       1.01807551       1.17628084
H       -2.05584710       1.51081551      -0.56120340
14
Frame=6 idx=005658 GeodesicLength=0.4188540564443801 rxn_smarts="[C:1]([O:2][C:3]1([H:10])[C:4]([H:11])([H:12])[O:5][C:6]1([H:13])[H:14])([H:7])([H:8])[H:9]>>[C:1]([O:2][C:3](=[C:6]([H:13])[H:14])[H:10])([H:7])([H:8])[H:9].[C:4](=[O:5])([H:11])[H:12]"
C        2.02862922      -0.08555904       0.35562802
O        0.81454440       0.50069325       0.77467311
C       -0.12022087       0.62764529      -0.22175919
C       -1.12185952      -1.06059579      -0.30977248
O       -2.41109895      -0.78827942      -0.33390095
C       -1.43709927       0.96250790       0.12350990
H        1.88703470      -1.09881058      -0.03435923
H        2.50995193       0.52736940      -0.41489970
H        2.67582228      -0.13359575       1.22900497
H        0.26953214       0.92387087      -1.19465076
H       -0.69815419      -1.45854805       0.62709323
H       -0.66051619      -1.49523656      -1.21251300
H       -1.69425547       1.03969308       1.17389699
H       -2.04231021       1.53884541      -0.56195091
14
Frame=7 idx=005658 GeodesicLength=0.4884462107644542 rxn_smarts="[C:1]([O:2][C:3]1([H:10])[C:4]([H:11])([H:12])[O:5][C:6]1([H:13])[H:14])([H:7])([H:8])[H:9]>>[C:1]([O:2][C:3](=[C:6]([H:13])[H:14])[H:10])([H:7])([H:8])[H:9].[C:4](=[O:5])([H:11])[H:12]"
C        2.03264020      -0.07735774       0.35392515
O        0.80977027       0.48813506       0.77477750
C       -0.12304947       0.61773154      -0.22314030
C       -1.13052279      -1.08549443      -0.30611922
O       -2.41445814      -0.79290059      -0.33112972
C       -1.43808735       0.97069628       0.12003206
H        1.90481788      -1.08209611      -0.06224705
H        2.51575269       0.55854305      -0.39661648
H        2.67183044      -0.14160401       1.23217633
H        0.27168457       0.91534101      -1.19404569
H       -0.71283848      -1.48242869       0.63353719
H       -0.67060283      -1.51771460      -1.21007346
H       -1.68933804       1.06137397       1.17125388
H       -2.02759895       1.56777528      -0.56233018
14
Frame=8 idx=005658 GeodesicLength=0.5579896869531347 rxn_smarts="[C:1]([O:2][C:3]1([H:10])[C:4]([H:11])([H:12])[O:5][C:6]1([H:13])[H:14])([H:7])([H:8])[H:9]>>[C:1]([O:2][C:3](=[C:6]([H:13])[H:14])[H:10])([H:7])([H:8])[H:9].[C:4](=[O:5])([H:11])[H:12]"
C        2.03632048      -0.06898387       0.35221465
O        0.80482650       0.47533641       0.77467041
C       -0.12612329       0.60772560      -0.22463182
C       -1.13920656      -1.11098529      -0.30238977
O       -2.41742868      -0.79782171      -0.32844935
C       -1.43906474       0.97904208       0.11635295
H        1.92243987      -1.06430238      -0.09002613
H        2.52052408       0.58964891      -0.37772742
H        2.66780258      -0.14977020       1.23470491
H        0.27365314       0.90674997      -1.19349729
H       -0.72780127      -1.50678343       0.64017414
H       -0.68038753      -1.54059562      -1.20746918
H       -1.68395517       1.08310477       1.16833710
H       -2.01159941       1.59763477      -0.56226320
14
Frame=9 idx=005658 GeodesicLength=0.62748178969921 rxn_smarts="[C:1]([O:2][C:3]1([H:10])[C:4]([H:11])([H:12])[O:5][C:6]1([H:13])[H:14])([H:7])([H:8])[H:9]>>[C:1]([O:2][C:3](=[C:6]([H:13])[H:14])[H:10])([H:7])([H:8])[H:9].[C:4](=[O:5])([H:11])[H:12]"
C        2.03965994      -0.06041575       0.35049812
O        0.79968883       0.46231241       0.77435464
C       -0.12946114       0.59763964      -0.22625503
C       -1.14791154      -1.13707901      -0.29859299
O       -2.42000240      -0.80305333      -0.32584954
C       -1.44004022       0.98757863       0.11244623
H        1.93981855      -1.04550079      -0.11760998
H        2.52433241       0.62062370      -0.35826551
H        2.66376559      -0.15797722       1.23655774
H        0.27543432       0.89810726      -1.19301907
H       -0.74304830      -1.53163095       0.64698495
H       -0.68987000      -1.56386289      -1.20471781
H       -1.67813047       1.10482982       1.16512825
H       -1.99423556       1.62842847      -0.56165997
14
Frame=10 idx=005658 GeodesicLength=0.6969273300553879 rxn_smarts="[C:1]([O:2][C:3]1([H:10])[C:4]([H:11])([H:12])[O:5][C:6]1([H:13])[H:14])([H:7])([H:8])[H:9]>>[C:1]([O:2][C:3](=[C:6]([H:13])[H:14])[H:10])([H:7])([H:8])[H:9].[C:4](=[O:5])([H:11])[H:12]"
C        2.04262281      -0.05165646       0.34878213
O        0.79434987       0.44905246       0.77378982
C       -0.13307468       0.58747286      -0.22802486
C       -1.15664910      -1.16379850      -0.29472511
O       -2.42215913      -0.80861488      -0.32329900
C       -1.44100952       0.99632174       0.10828833
H        1.95697072      -1.02559444      -0.14499922
H        2.52705190       0.65147558      -0.33821836
H        2.65968154      -0.16625130       1.23775998
H        0.27700877       0.88938130      -1.19263850
H       -0.75856461      -1.55698909       0.65396139
H       -0.69905399      -1.58754055      -1.20181445
H       -1.67181575       1.12657035       1.16161290
H       -1.97535881       1.66017091      -0.56047504
14
Frame=11 idx=005658 GeodesicLength=0.7663259830262561 rxn_smarts="[C:1]([O:2][C:3]1([H:10])[C:4]([H:11])([H:12])[O:5][C:6]1([H:13])[H:14])([H:7])([H:8])[H:9]>>[C:1]([O:2][C:3](=[C:6]([H:13])[H:14])[H:10])([H:7])([H:8])[H:9].[C:4](=[O:5])([H:11])[H:12]"
C        2.04518672      -0.04269561       0.34707479
O        0.78879324       0.43555835       0.77296386
C       -0.13697786       0.57723138      -0.22995624
C       -1.16542768      -1.19115604      -0.29078439
O       -2.42388794      -0.81451704      -0.32076267
C       -1.44197231       1.00530036       0.10385376
H        1.97386393      -1.00458740      -0.17216370
H        2.52866050       0.68219347      -0.31759325
H        2.65554435      -0.17454549       1.23830877
H        0.27836769       0.88055962      -1.19237133
H       -0.77433975      -1.58287868       0.66108685
H       -0.70795216      -1.61162506      -1.19876771
H       -1.66499872       1.14830540       1.15777144
H       -1.95486000       1.69285673      -0.55866016
14
Frame=12 idx=005658 GeodesicLength=0.835685684849361 rxn_smarts="[C:1]([O:2][C:3]1([H:10])[C:4]([H:11])([H:12])[O:5][C:6]1([H:13])[H:14])([H:7])([H:8])[H:9]>>[C:1]([O:2][C:3](=[C:6]([H:13])[H:14])[H:10])([H:7])([H:8])[H:9].[C:4](=[O:5])([H:11])[H:12]"
C        2.04732683      -0.03352309       0.34538045
O        0.78300231       0.42183271       0.77185031
C       -0.14118545       0.56692474      -0.23207457
C       -1.17425672      -1.21916623      -0.28677219
O       -2.42517409      -0.82076977      -0.31819671
C       -1.44292249       1.01455239       0.09910991
H        1.99045921      -0.98245421      -0.19906152
H        2.52912168       0.71276172      -0.29639022
H        2.65134066      -0.18282370       1.23820851
H        0.27950058       0.87162489      -1.19224953
H       -0.79036043      -1.60932223       0.66834181
H       -0.71657769      -1.63611539      -1.19558564
H       -1.65766440       1.17001432       1.15358358
H       -1.93261001       1.72646384      -0.55614420
14
Frame=13 idx=005658 GeodesicLength=0.9050062857961352 rxn_smarts="[C:1]([O:2][C:3]1([H:10])[C:4]([H:11])([H:12])[O:5][C:6]1([H:13])[H:14])([H:7])([H:8])[H:9]>>[C:1]([O:2][C:3](=[C:6]([H:13])[H:14])[H:10])([H:7])([H:8])[H:9].[C:4](=[O:5])([H:11])[H:12]"
C        2.04902202      -0.02412962       0.34370459
O        0.77695980       0.40787931       0.77043687
C       -0.14570927       0.55656264      -0.23439635
C       -1.18314667      -1.24783559      -0.28268775
O       -2.42600821      -0.82737603      -0.31556176
C       -1.44385562       1.02411657       0.09402381
H        2.00672521      -0.95920255      -0.22565471
H        2.52842054       0.74316089      -0.27463137
H        2.64705815      -0.19102554       1.23746278
H        0.28040383       0.86256477      -1.19229035
H       -0.80661472      -1.63633977       0.67570658
H       -0.72494742      -1.66100089      -1.19227715
H       -1.64981417       1.19166606       1.14902778
H       -1.90849346       1.76095975      -0.55286296
14
Frame=14 idx=005658 GeodesicLength=0.9742995945106615 rxn_smarts="[C:1]([O:2][C:3]1([H:10])[C:4]([H:11])([H:12])[O:5][C:6]1([H:13])[H:14])([H:7])([H:8])[H:9]>>[C:1]([O:2][C:3](=[C:6]([H:13])[H:14])[H:10])([H:7])([H:8])[H:9].[C:4](=[O:5])([H:11])[H:12]"
C        2.05024715      -0.01450122       0.34205395
O        0.77065012       0.39369799       0.76869803
C       -0.15056192       0.54615983      -0.23694808
C       -1.19211099      -1.27717150      -0.27853286
O       -2.42637760      -0.83433428      -0.31278711
C       -1.44475579       1.03404575       0.08855952
H        2.02262258      -0.93480824      -0.25190376
H        2.52652288       0.77337670      -0.25230134
H        2.64268833      -0.19911465       1.23607670
H        0.28107229       0.85336201      -1.19252749
H       -0.82308008      -1.66395887       0.68315296
H       -0.73309314      -1.68626717      -1.18885984
H       -1.64143106       1.21324112       1.14408216
H       -1.88239276       1.79627252      -0.54876285
14
Frame=15 idx=005658 GeodesicLength=1.0435738308067226 rxn_smarts="[C:1]([O:2][C:3]1([H:10])[C:4]([H:11])([H:12])[O:5][C:6]1([H:13])[H:14])([H:7])([H:8])[H:9]>>[C:1]([O:2][C:3](=[C:6]([H:13])[H:14])[H:10])([H:7])([H:8])[H:9].[C:4](=[O:5])([H:11])[H:12]"
C        2.05098191      -0.00462562       0.34043728
O        0.76405944       0.37929015       0.76661614
C       -0.15575073       0.53573204      -0.23975144
C       -1.20116333      -1.30717414      -0.27430654
O       -2.42627147      -0.84163333      -0.30980333
C       -1.44560260       1.04439454       0.08268245
H        2.03812009      -0.90926806      -0.27777692
H        2.52341664       0.80339706      -0.22940243
H        2.63821696      -0.20705084       1.23405979
H        0.28150832       0.84400249      -1.19298552
H       -0.83973261      -1.69220355       0.69065500
H       -0.74104839      -1.71189069      -1.18535033
H       -1.63251442       1.23471407       1.13872833
H       -1.85421981       1.83231588      -0.54380249
14
Frame=16 idx=005658 GeodesicLength=1.1128467576160754 rxn_smarts="[C:1]([O:2][C:3]1([H:10])[C:4]([H:11])([H:12])[O:5][C:6]1([H:13])[H:14])([H:7])([H:8])[H:9]>>[C:1]([O:2][C:3](=[C:6]([H:13])[H:14])[H:10])([H:7])([H:8])[H:9].[C:4](=[O:5])([H:11])[H:12]"
C        2.05120614       0.00551204       0.33886239
O        0.75717332       0.36465592       0.76416532
C       -0.16128340       0.52529891      -0.24283586
C       -1.21032367      -1.33784231      -0.27000972
O       -2.42568071      -0.84925820      -0.30652962
C       -1.44636902       1.05522638       0.07635192
H        2.05318806      -0.88255741      -0.30324184
H        2.51909005       0.83320519      -0.20591515
H        2.63363234      -0.21479783       1.23142007
H        0.28171404       0.83447090      -1.19370090
H       -0.85654946      -1.72109924       0.69818505
H       -0.74885631      -1.73784820      -1.18176544
H       -1.62305986       1.25606216       1.13294737
H       -1.82388153       1.86897166      -0.53793359
