13
Frame=0 idx=001008 GeodesicLength=0.0 rxn_smarts="[O:1]([C:2]([C:3]([O:4]/[C:5](=[N:6]/[H:13])[H:12])([H:10])[H:11])([H:8])[H:9])[H:7]>>[O:1]([C:2]([C:3]([O+:4]=[C-:5][N:6]([H:12])[H:13])([H:10])[H:11])([H:8])[H:9])[H:7]"
O       -1.83520676       0.29642204       0.12935396
C       -1.08497185      -0.85352483       0.41948100
C        0.13707669      -1.05135601      -0.46617511
O        1.38217308      -0.53135684       0.07996714
C        1.69911209       0.73654667       0.02326580
N        0.68348935       1.58901203      -0.26199157
H       -1.20600057       1.01010748      -0.04487780
H       -0.76596352      -0.88405776       1.47106890
H       -1.75165747      -1.70482484       0.26154558
H        0.35530596      -2.11211330      -0.57609515
H       -0.03658937      -0.61743403      -1.45303747
H        1.33239686       1.61756399       0.86256303
H        1.09083550       2.50501539      -0.44506826
13
Frame=1 idx=001008 GeodesicLength=0.04960902803042767 rxn_smarts="[O:1]([C:2]([C:3]([O:4]/[C:5](=[N:6]/[H:13])[H:12])([H:10])[H:11])([H:8])[H:9])[H:7]>>[O:1]([C:2]([C:3]([O+:4]=[C-:5][N:6]([H:12])[H:13])([H:10])[H:11])([H:8])[H:9])[H:7]"
O       -1.83919848       0.29145513       0.12686199
C       -1.09149615      -0.86145126       0.41245164
C        0.13716464      -1.05065660      -0.46520840
O        1.37587031      -0.53359359       0.09508668
C        1.69523784       0.73412129       0.03828121
N        0.68695075       1.58860696      -0.24435463
H       -1.21035513       1.01445272      -0.00289680
H       -0.78244208      -0.90318627       1.46649037
H       -1.75767597      -1.71049761       0.24043193
H        0.35691689      -2.11068136      -0.58085198
H       -0.02956645      -0.61094083      -1.45080244
H        1.37634211       1.65946810       0.85878711
H        1.08225174       2.49290333      -0.49427668
13
Frame=2 idx=001008 GeodesicLength=0.09886957033952795 rxn_smarts="[O:1]([C:2]([C:3]([O:4]/[C:5](=[N:6]/[H:13])[H:12])([H:10])[H:11])([H:8])[H:9])[H:7]>>[O:1]([C:2]([C:3]([O+:4]=[C-:5][N:6]([H:12])[H:13])([H:10])[H:11])([H:8])[H:9])[H:7]"
O       -1.84215626       0.28771040       0.12493243
C       -1.09806044      -0.86907360       0.40502324
C        0.13752475      -1.04962965      -0.46401881
O        1.36951053      -0.53574571       0.11092946
C        1.69110753       0.73190204       0.05544767
N        0.69062077       1.58856111      -0.22570419
H       -1.21444574       1.01799028       0.04045561
H       -0.79949102      -0.92334561       1.46137963
H       -1.76411394      -1.71503923       0.21765328
H        0.35881495      -2.10887252      -0.58546723
H       -0.02182762      -0.60389531      -1.44822784
H        1.42223932       1.70247676       0.85123709
H        1.07027716       2.47696105      -0.54364035
13
Frame=3 idx=001008 GeodesicLength=0.1477437362125527 rxn_smarts="[O:1]([C:2]([C:3]([O:4]/[C:5](=[N:6]/[H:13])[H:12])([H:10])[H:11])([H:8])[H:9])[H:7]>>[O:1]([C:2]([C:3]([O+:4]=[C-:5][N:6]([H:12])[H:13])([H:10])[H:11])([H:8])[H:9])[H:7]"
O       -1.84408638       0.28521781       0.12348599
C       -1.10457895      -0.87624682       0.39720019
C        0.13818957      -1.04825331      -0.46262541
O        1.36317896      -0.53784321       0.12735450
C        1.68670306       0.72989753       0.07489756
N        0.69452841       1.58888606      -0.20600570
H       -1.21833328       1.02068177       0.08473343
H       -0.81696706      -0.94418110       1.45567705
H       -1.77082905      -1.71832090       0.19342027
H        0.36097365      -2.10668199      -0.58990666
H       -0.01332723      -0.59630231      -1.44533169
H        1.46997900       1.74615357       0.83946850
H        1.05456929       2.45699290      -0.59236802
13
Frame=4 idx=001008 GeodesicLength=0.1962418376599275 rxn_smarts="[O:1]([C:2]([C:3]([O:4]/[C:5](=[N:6]/[H:13])[H:12])([H:10])[H:11])([H:8])[H:9])[H:7]>>[O:1]([C:2]([C:3]([O+:4]=[C-:5][N:6]([H:12])[H:13])([H:10])[H:11])([H:8])[H:9])[H:7]"
O       -1.84499697       0.28398926       0.12251718
C       -1.11098019      -0.88286899       0.38899378
C        0.13919049      -1.04649251      -0.46104235
O        1.35694202      -0.53989389       0.14426825
C        1.68195590       0.72814003       0.09686758
N        0.69872211       1.58961983      -0.18536379
H       -1.22205186       1.02251781       0.12960801
H       -0.83475225      -0.96545821       1.44933679
H       -1.77769409      -1.72024938       0.16788208
H        0.36339046      -2.10408461      -0.59417549
H       -0.00402919      -0.58813799      -1.44211876
H        1.51930056       1.79007429       0.82299699
H        1.03500301       2.43284436      -0.63977026
13
Frame=5 idx=001008 GeodesicLength=0.24450755991241638 rxn_smarts="[O:1]([C:2]([C:3]([O:4]/[C:5](=[N:6]/[H:13])[H:12])([H:10])[H:11])([H:8])[H:9])[H:7]>>[O:1]([C:2]([C:3]([O+:4]=[C-:5][N:6]([H:12])[H:13])([H:10])[H:11])([H:8])[H:9])[H:7]"
O       -1.84498918       0.28395877       0.12199362
C       -1.11725959      -0.88889010       0.38038286
C        0.14055477      -1.04427902      -0.45923004
O        1.35077757      -0.54184417       0.16175781
C        1.67676260       0.72667732       0.12146146
N        0.70317535       1.59089037      -0.16356253
H       -1.22570174       1.02344646       0.17465223
H       -0.85287920      -0.98703448       1.44229876
H       -1.78459322      -1.72080381       0.14107427
H        0.36612271      -2.10100324      -0.59821994
H        0.00614754      -0.57932762      -1.43853435
H        1.57054913       1.83383663       0.80104631
H        1.01133325       2.40437289      -0.68512047
13
Frame=6 idx=001008 GeodesicLength=0.2926379397466938 rxn_smarts="[O:1]([C:2]([C:3]([O:4]/[C:5](=[N:6]/[H:13])[H:12])([H:10])[H:11])([H:8])[H:9])[H:7]>>[O:1]([C:2]([C:3]([O+:4]=[C-:5][N:6]([H:12])[H:13])([H:10])[H:11])([H:8])[H:9])[H:7]"
O       -1.84406912       0.28512926       0.12184212
C       -1.12332368      -0.89419988       0.37137877
C        0.14234451      -1.04157283      -0.45720203
O        1.34479194      -0.54367674       0.17971902
C        1.67103796       0.72556883       0.14899125
N        0.70795524       1.59271042      -0.14086899
H       -1.22933506       1.02356801       0.21969748
H       -0.87121002      -1.00863580       1.43453706
H       -1.79137332      -1.71990127       0.11315356
H        0.36920114      -2.09741327      -0.60205632
H        0.01725613      -0.56986525      -1.43459566
H        1.62319323       1.87670773       0.77309215
H        0.98353106       2.37158077      -0.72768840
13
Frame=7 idx=001008 GeodesicLength=0.34076213042272185 rxn_smarts="[O:1]([C:2]([C:3]([O:4]/[C:5](=[N:6]/[H:13])[H:12])([H:10])[H:11])([H:8])[H:9])[H:7]>>[O:1]([C:2]([C:3]([O+:4]=[C-:5][N:6]([H:12])[H:13])([H:10])[H:11])([H:8])[H:9])[H:7]"
O       -1.84221514       0.28745575       0.12216982
C       -1.12909532      -0.89876126       0.36200116
C        0.14459748      -1.03826596      -0.45495752
O        1.33901109      -0.54526357       0.19808994
C        1.66449760       0.72497599       0.17993285
N        0.71309184       1.59518218      -0.11769852
H       -1.23294621       1.02291230       0.26472973
H       -0.88963096      -1.03021166       1.42599872
H       -1.79789037      -1.71749997       0.08417558
H        0.37268574      -2.09317879      -0.60574781
H        0.02930771      -0.55964993      -1.43026443
H        1.67653025       1.91793169       0.73864241
H        0.95205629       2.33437322      -0.76707193
13
Frame=8 idx=001008 GeodesicLength=0.38899928316009436 rxn_smarts="[O:1]([C:2]([C:3]([O:4]/[C:5](=[N:6]/[H:13])[H:12])([H:10])[H:11])([H:8])[H:9])[H:7]>>[O:1]([C:2]([C:3]([O+:4]=[C-:5][N:6]([H:12])[H:13])([H:10])[H:11])([H:8])[H:9])[H:7]"
O       -1.83953967       0.29089560       0.12256894
C       -1.13447372      -0.90241657       0.35227769
C        0.14740424      -1.03443731      -0.45247097
O        1.33357831      -0.54653132       0.21672998
C        1.65717237       0.72494688       0.21377641
N        0.71853133       1.59833566      -0.09420279
H       -1.23676052       1.02163148       0.30914289
H       -0.90799604      -1.05114520       1.41675622
H       -1.80393674      -1.71360152       0.05450627
H        0.37668748      -2.08844153      -0.60901671
H        0.04236639      -0.54896157      -1.42562810
H        1.73029143       1.95601497       0.69737598
H        0.91667514       2.29371041      -0.80181581
13
Frame=9 idx=001008 GeodesicLength=0.43755786111465467 rxn_smarts="[O:1]([C:2]([C:3]([O:4]/[C:5](=[N:6]/[H:13])[H:12])([H:10])[H:11])([H:8])[H:9])[H:7]>>[O:1]([C:2]([C:3]([O+:4]=[C-:5][N:6]([H:12])[H:13])([H:10])[H:11])([H:8])[H:9])[H:7]"
O       -1.83613908       0.29525220       0.12269274
C       -1.13951235      -0.90518078       0.34212265
C        0.15082841      -1.03005149      -0.44952952
O        1.32829766      -0.54721697       0.23599052
C        1.64901994       0.72559545       0.24978306
N        0.72423578       1.60236992      -0.07001937
H       -1.24086658       1.01961898       0.35239676
H       -0.92659859      -1.07129599       1.40670860
H       -1.80938349      -1.70830597       0.02409246
H        0.38141049      -2.08312941      -0.61133857
H        0.05667271      -0.53789958      -1.42049337
H        1.78517119       1.98951318       0.64802028
H        0.87686391       2.25073048      -0.83042625
13
Frame=10 idx=001008 GeodesicLength=0.48645285534603977 rxn_smarts="[O:1]([C:2]([C:3]([O:4]/[C:5](=[N:6]/[H:13])[H:12])([H:10])[H:11])([H:8])[H:9])[H:7]>>[O:1]([C:2]([C:3]([O+:4]=[C-:5][N:6]([H:12])[H:13])([H:10])[H:11])([H:8])[H:9])[H:7]"
O       -1.83193935       0.30056514       0.12275083
C       -1.14396313      -0.90697005       0.33174820
C        0.15490019      -1.02513791      -0.44629739
O        1.32343863      -0.54719908       0.25529746
C        1.63977681       0.72714447       0.28815963
N        0.73020776       1.60724266      -0.04654738
H       -1.24528854       1.01715259       0.39456492
H       -0.94482723      -1.09035962       1.39606041
H       -1.81402010      -1.70162334      -0.00655110
H        0.38685737      -2.07731994      -0.61294957
H        0.07193438      -0.52661926      -1.41508646
H        1.83862989       2.01694173       0.59209009
H        0.83429333       2.20618261      -0.85323965
13
Frame=11 idx=001008 GeodesicLength=0.5359344218593716 rxn_smarts="[O:1]([C:2]([C:3]([O:4]/[C:5](=[N:6]/[H:13])[H:12])([H:10])[H:11])([H:8])[H:9])[H:7]>>[O:1]([C:2]([C:3]([O+:4]=[C-:5][N:6]([H:12])[H:13])([H:10])[H:11])([H:8])[H:9])[H:7]"
O       -1.82698086       0.30673529       0.12257510
C       -1.14778449      -0.90778267       0.32116749
C        0.15968215      -1.01971709      -0.44268900
O        1.31896443      -0.54624794       0.27473328
C        1.62948807       0.72973589       0.32809371
N        0.73641681       1.61302305      -0.02395343
H       -1.25009602       1.01428388       0.43539042
H       -0.96269176      -1.10818941       1.38484518
H       -1.81772213      -1.69364004      -0.03732742
H        0.39318278      -2.07103901      -0.61355948
H        0.08819758      -0.51529594      -1.40938825
H        1.89031192       2.03689664       0.52992907
H        0.78903153       2.16123734      -0.86981667
13
Frame=12 idx=001008 GeodesicLength=0.5860807709154765 rxn_smarts="[O:1]([C:2]([C:3]([O:4]/[C:5](=[N:6]/[H:13])[H:12])([H:10])[H:11])([H:8])[H:9])[H:7]>>[O:1]([C:2]([C:3]([O+:4]=[C-:5][N:6]([H:12])[H:13])([H:10])[H:11])([H:8])[H:9])[H:7]"
O       -1.82126017       0.31372426       0.12208086
C       -1.15090815      -0.90763251       0.31045025
C        0.16520172      -1.01392851      -0.43868172
O        1.31490726      -0.54422221       0.29421480
C        1.61835391       0.73348028       0.36855889
N        0.74283627       1.61966735      -0.00276565
H       -1.25530917       1.01112550       0.47477069
H       -0.98007999      -1.12465670       1.37317202
H       -1.82042156      -1.68444347      -0.06806228
H        0.40045849      -2.06448113      -0.61292699
H        0.10537268      -0.50425809      -1.40348342
H        1.93927617       2.04831298       0.46275173
H        0.74157254       2.11731226      -0.88007919
13
Frame=13 idx=001008 GeodesicLength=0.6368883702261865 rxn_smarts="[O:1]([C:2]([C:3]([O:4]/[C:5](=[N:6]/[H:13])[H:12])([H:10])[H:11])([H:8])[H:9])[H:7]>>[O:1]([C:2]([C:3]([O+:4]=[C-:5][N:6]([H:12])[H:13])([H:10])[H:11])([H:8])[H:9])[H:7]"
O       -1.81477208       0.32131466       0.12116878
C       -1.15339679      -0.90666165       0.29956205
C        0.17145302      -1.00782376      -0.43411966
O        1.31094314      -0.54096306       0.31408950
C        1.60646805       0.73841339       0.40853786
N        0.74950686       1.62723664       0.01703030
H       -1.26079579       1.00744943       0.51245732
H       -0.99727313      -1.13994024       1.36098595
H       -1.82204967      -1.67417640      -0.09883584
H        0.40882999      -2.05764161      -0.61059301
H        0.12361002      -0.49359433      -1.39721066
H        1.98554440       2.05022661       0.39045855
H        0.69193199       2.07616033      -0.88353113
13
Frame=14 idx=001008 GeodesicLength=0.6882340993622635 rxn_smarts="[O:1]([C:2]([C:3]([O:4]/[C:5](=[N:6]/[H:13])[H:12])([H:10])[H:11])([H:8])[H:9])[H:7]>>[O:1]([C:2]([C:3]([O+:4]=[C-:5][N:6]([H:12])[H:13])([H:10])[H:11])([H:8])[H:9])[H:7]"
O       -1.80756328       0.32952104       0.12003797
C       -1.15511533      -0.90488187       0.28874306
C        0.17832694      -1.00163827      -0.42923723
O        1.30732569      -0.53658196       0.33373035
C        1.59429341       0.74453754       0.44699605
N        0.75644721       1.63545846       0.03443458
H       -1.26653980       1.00357309       0.54841625
H       -1.01371046      -1.15380108       1.34858128
H       -1.82264512      -1.66299877      -0.12906097
H        0.41804307      -2.05087116      -0.60683889
H        0.14239088      -0.48365227      -1.39089439
H        2.02725588       2.04303326       0.31659979
H        0.64149091       2.03830198      -0.88150786
13
Frame=15 idx=001008 GeodesicLength=0.7399692657074793 rxn_smarts="[O:1]([C:2]([C:3]([O:4]/[C:5](=[N:6]/[H:13])[H:12])([H:10])[H:11])([H:8])[H:9])[H:7]>>[O:1]([C:2]([C:3]([O+:4]=[C-:5][N:6]([H:12])[H:13])([H:10])[H:11])([H:8])[H:9])[H:7]"
O       -1.79954313       0.33827145       0.11882402
C       -1.15603935      -0.90234962       0.27813369
C        0.18566991      -0.99555549      -0.42417000
O        1.30402495      -0.53123547       0.35274868
C        1.58226527       0.75167813       0.48273477
N        0.76371344       1.64394034       0.04880864
H       -1.27233597       0.99949195       0.58270419
H       -1.02921965      -1.16622534       1.33610113
H       -1.82231036      -1.65095391      -0.15839171
H        0.42779896      -2.04435923      -0.60172127
H        0.16139558      -0.47469439      -1.38471057
H        2.06354370       2.02799013       0.24404456
H        0.59103666       2.00400145      -0.87510613
13
Frame=16 idx=001008 GeodesicLength=0.7921284814566527 rxn_smarts="[O:1]([C:2]([C:3]([O:4]/[C:5](=[N:6]/[H:13])[H:12])([H:10])[H:11])([H:8])[H:9])[H:7]>>[O:1]([C:2]([C:3]([O+:4]=[C-:5][N:6]([H:12])[H:13])([H:10])[H:11])([H:8])[H:9])[H:7]"
O       -1.79085815       0.34741436       0.11769914
C       -1.15629201      -0.89925455       0.26774056
C        0.19336744      -0.98964727      -0.41895968
O        1.30090793      -0.52503413       0.37122320
C        1.57040682       0.75977429       0.51570727
N        0.77133711       1.65264661       0.06016516
H       -1.27811976       0.99514561       0.61538954
H       -1.04390097      -1.17752426       1.32355482
H       -1.82117186      -1.63824081      -0.18690647
H        0.43800936      -2.03816861      -0.59537328
H        0.18049373      -0.46665253      -1.37864558
H        2.09493177       2.00619539       0.17333922
H        0.54088857       1.97334591      -0.86493389
