16
Frame=0 idx=011768 GeodesicLength=0.0 rxn_smarts="[C:1]([C:2]1([C:3]([H:11])([H:12])[H:13])[C:4]([H:14])([H:15])[N:5]([H:16])[C:6]1=[O:7])([H:8])([H:9])[H:10]>>[C:1]([C@@:2]12[C:3]([H:11])([H:13])[C@:4]1([H:14])[N:5]([H:16])[C:6]2=[O:7])([H:8])([H:9])[H:10].[H:12][H:15]"
C        1.54360861       0.28679667      -0.40677762
C        0.15880263      -0.24899303      -0.10353783
C        0.05234480      -1.08811649       1.06493271
C       -0.93497652       0.78395324       0.15889318
N       -1.41844548       0.66648007      -1.17671090
C       -0.65467474      -0.45265800      -1.41395026
O       -0.66168125      -1.26960357      -2.28713514
H        2.16630335      -0.52363730      -0.79046939
H        1.99752937       0.68157520       0.50290398
H        1.50788828       1.08163044      -1.15264430
H       -0.84945104      -1.66731292       1.21807670
H        0.10870189       0.38987697       1.92416429
H        0.94253827      -1.45433029       1.56115666
H       -1.68803172       0.66512461       0.93660961
H        0.00834645       1.19317495       1.57613841
H       -2.27880288       0.95603948      -1.61165011
16
Frame=1 idx=011768 GeodesicLength=0.130951038283514 rxn_smarts="[C:1]([C:2]1([C:3]([H:11])([H:12])[H:13])[C:4]([H:14])([H:15])[N:5]([H:16])[C:6]1=[O:7])([H:8])([H:9])[H:10]>>[C:1]([C@@:2]12[C:3]([H:11])([H:13])[C@:4]1([H:14])[N:5]([H:16])[C:6]2=[O:7])([H:8])([H:9])[H:10].[H:12][H:15]"
C        1.55091862       0.28763761      -0.41536919
C        0.16505732      -0.24348805      -0.11570892
C        0.03223526      -1.07978568       1.05387663
C       -0.93332802       0.77730222       0.16568975
N       -1.42980312       0.66009773      -1.16717476
C       -0.65169508      -0.44522542      -1.42227096
O       -0.65616608      -1.25670387      -2.30070761
H        2.17236150      -0.52532855      -0.79547099
H        2.00881976       0.68277614       0.49207372
H        1.51805228       1.08489324      -1.15891417
H       -0.82102323      -1.73969677       1.15652219
H        0.15671187       0.40201342       1.92924611
H        0.85845559      -1.44076664       1.65299409
H       -1.68510431       0.68141921       0.94693825
H        0.01606378       1.22069924       1.56776829
H       -2.30155612       0.93415618      -1.58949243
16
Frame=2 idx=011768 GeodesicLength=0.2615142681660651 rxn_smarts="[C:1]([C:2]1([C:3]([H:11])([H:12])[H:13])[C:4]([H:14])([H:15])[N:5]([H:16])[C:6]1=[O:7])([H:8])([H:9])[H:10]>>[C:1]([C@@:2]12[C:3]([H:11])([H:13])[C@:4]1([H:14])[N:5]([H:16])[C:6]2=[O:7])([H:8])([H:9])[H:10].[H:12][H:15]"
C        1.55820474       0.28850820      -0.42402873
C        0.17139279      -0.23806580      -0.12722739
C        0.01257381      -1.07166221       1.04361046
C       -0.93127963       0.77072111       0.17291193
N       -1.44089611       0.65323042      -1.15703924
C       -0.64880492      -0.43791008      -1.42989075
O       -0.65123476      -1.24445574      -2.31302047
H        2.17813529      -0.52680538      -0.80131940
H        2.02053035       0.68320380       0.48128074
H        1.52801880       1.08850257      -1.16485854
H       -0.78028245      -1.81042897       1.09329855
H        0.20581413       0.41327499       1.93354534
H        0.75973884      -1.42554774       1.74232178
H       -1.68177912       0.69866540       0.95713346
H        0.02361106       1.24769315       1.55982837
H       -2.32374281       0.91107627      -1.56654610
16
Frame=3 idx=011768 GeodesicLength=0.39152372532020474 rxn_smarts="[C:1]([C:2]1([C:3]([H:11])([H:12])[H:13])[C:4]([H:14])([H:15])[N:5]([H:16])[C:6]1=[O:7])([H:8])([H:9])[H:10]>>[C:1]([C@@:2]12[C:3]([H:11])([H:13])[C@:4]1([H:14])[N:5]([H:16])[C:6]2=[O:7])([H:8])([H:9])[H:10].[H:12][H:15]"
C        1.56550050       0.28942690      -0.43293587
C        0.17790109      -0.23283462      -0.13819131
C       -0.00635816      -1.06432145       1.03374275
C       -0.92870904       0.76408142       0.18064363
N       -1.45168005       0.64583647      -1.14620210
C       -0.64609772      -0.43085177      -1.43677428
O       -0.64682919      -1.23272546      -2.32430764
H        2.18374321      -0.52801473      -0.80814891
H        2.03265255       0.68300278       0.47030652
H        1.53771676       1.09241167      -1.17071816
H       -0.72629512      -1.87804557       1.03015777
H        0.25609575       0.42262464       1.93718195
H        0.64437998      -1.40754709       1.82802569
H       -1.67789091       0.71663604       0.96724086
H        0.03113172       1.27345694       1.55266897
H       -2.34526137       0.88686382      -1.54268988
16
Frame=4 idx=011768 GeodesicLength=0.5207407808479877 rxn_smarts="[C:1]([C:2]1([C:3]([H:11])([H:12])[H:13])[C:4]([H:14])([H:15])[N:5]([H:16])[C:6]1=[O:7])([H:8])([H:9])[H:10]>>[C:1]([C@@:2]12[C:3]([H:11])([H:13])[C@:4]1([H:14])[N:5]([H:16])[C:6]2=[O:7])([H:8])([H:9])[H:10].[H:12][H:15]"
C        1.57289410       0.29050332      -0.44242591
C        0.18477678      -0.22791280      -0.14881400
C       -0.02386201      -1.05832038       1.02380223
C       -0.92543542       0.75712163       0.18903194
N       -1.46208165       0.63785842      -1.13450637
C       -0.64374714      -0.42430323      -1.44284882
O       -0.64276295      -1.22113252      -2.33508087
H        2.18937378      -0.52876749      -0.81632875
H        2.04528181       0.68238657       0.45876717
H        1.54701392       1.09669278      -1.17686700
H       -0.65772595      -1.94148085       0.96984203
H        0.30799888       0.42881372       1.94031267
H        0.50854222      -1.38507924       1.90865943
H       -1.67316964       0.73486476       0.97741976
H        0.03889299       1.29711947       1.54675476
H       -2.36598973       0.86163584      -1.51771826
16
Frame=5 idx=011768 GeodesicLength=0.6489076376497098 rxn_smarts="[C:1]([C:2]1([C:3]([H:11])([H:12])[H:13])[C:4]([H:14])([H:15])[N:5]([H:16])[C:6]1=[O:7])([H:8])([H:9])[H:10]>>[C:1]([C@@:2]12[C:3]([H:11])([H:13])[C@:4]1([H:14])[N:5]([H:16])[C:6]2=[O:7])([H:8])([H:9])[H:10].[H:12][H:15]"
C        1.58047994       0.29202218      -0.45307848
C        0.19235719      -0.22350633      -0.15934485
C       -0.03849784      -1.05421017       1.01342894
C       -0.92116671       0.74935512       0.19837950
N       -1.47188887       0.62916046      -1.12164981
C       -0.64213398      -0.41892635      -1.44774886
O       -0.63891876      -1.20926605      -2.34589143
H        2.19522705      -0.52851646      -0.82684714
H        2.05865657       0.68163530       0.44600054
H        1.55550172       1.10169093      -1.18379894
H       -0.57188943      -2.00037029       0.91675429
H        0.36222747       0.43016745       1.94332359
H        0.34524215      -1.35538212       1.98132579
H       -1.66723844       0.75252580       0.98799749
H        0.04738458       1.31744122       1.54280390
H       -2.38534264       0.83617931      -1.49165453
16
Frame=6 idx=011768 GeodesicLength=0.7748069751446665 rxn_smarts="[C:1]([C:2]1([C:3]([H:11])([H:12])[H:13])[C:4]([H:14])([H:15])[N:5]([H:16])[C:6]1=[O:7])([H:8])([H:9])[H:10]>>[C:1]([C@@:2]12[C:3]([H:11])([H:13])[C@:4]1([H:14])[N:5]([H:16])[C:6]2=[O:7])([H:8])([H:9])[H:10].[H:12][H:15]"
C        1.58804131       0.29435813      -0.46512332
C        0.20068347      -0.21976660      -0.16967875
C       -0.04963318      -1.05174272       1.00306613
C       -0.91559074       0.74093234       0.20873930
N       -1.48057400       0.61979894      -1.10764435
C       -0.64188259      -0.41597619      -1.45055445
O       -0.63537573      -1.19759111      -2.35637211
H        2.20145862      -0.52672143      -0.83966118
H        2.07227642       0.68192084       0.43152911
H        1.56264498       1.10718723      -1.19233151
H       -0.46717191      -2.05336045       0.87932926
H        0.41820121       0.42403735       1.94783630
H        0.15244126      -1.31761871       2.03524510
H       -1.66009098       0.76990443       0.99870036
H        0.05669684       1.33250884       1.54238426
H       -2.40212499       0.81212912      -1.46546414
16
Frame=7 idx=011768 GeodesicLength=0.8991214085656263 rxn_smarts="[C:1]([C:2]1([C:3]([H:11])([H:12])[H:13])[C:4]([H:14])([H:15])[N:5]([H:16])[C:6]1=[O:7])([H:8])([H:9])[H:10]>>[C:1]([C@@:2]12[C:3]([H:11])([H:13])[C@:4]1([H:14])[N:5]([H:16])[C:6]2=[O:7])([H:8])([H:9])[H:10].[H:12][H:15]"
C        1.59533900       0.29769464      -0.47782283
C        0.20930169      -0.21629319      -0.17964510
C       -0.05916785      -1.04936169       0.99345284
C       -0.90838785       0.73370712       0.21908523
N       -1.48786813       0.61028144      -1.09352039
C       -0.64313786      -0.41594571      -1.45108778
O       -0.63257545      -1.18761231      -2.36544634
H        2.20805741      -0.52349468      -0.85308318
H        2.08507860       0.68445943       0.41615731
H        1.56879274       1.11241944      -1.20290688
H       -0.34855110      -2.09612242       0.86691396
H        0.47206891       0.40756703       1.95695256
H       -0.05698090      -1.27730660       2.05539467
H       -1.65183238       0.79012690       1.00802412
H        0.06665664       1.34120289       1.54700959
H       -2.41679346       0.78867770      -1.43947777
16
Frame=8 idx=011768 GeodesicLength=1.0249497409557717 rxn_smarts="[C:1]([C:2]1([C:3]([H:11])([H:12])[H:13])[C:4]([H:14])([H:15])[N:5]([H:16])[C:6]1=[O:7])([H:8])([H:9])[H:10]>>[C:1]([C@@:2]12[C:3]([H:11])([H:13])[C@:4]1([H:14])[N:5]([H:16])[C:6]2=[O:7])([H:8])([H:9])[H:10].[H:12][H:15]"
C        1.60177837       0.30113576      -0.49002064
C        0.21705831      -0.21327489      -0.18956753
C       -0.07051023      -1.04631945       0.98422650
C       -0.90034279       0.72863021       0.22808185
N       -1.49403682       0.60145251      -1.08078965
C       -0.64599238      -0.41832139      -1.45034621
O       -0.62984522      -1.17774464      -2.37492453
H        2.21418264      -0.51977236      -0.86632736
H        2.09605962       0.68757643       0.40159274
H        1.57432066       1.11709166      -1.21376077
H       -0.22645354      -2.12458626       0.88680224
H        0.51960671       0.38033362       1.97151341
H       -0.25815152      -1.24112527       2.03765398
H       -1.64333919       0.81474756       1.01434197
H        0.07592346       1.34467593       1.55573988
H       -2.43025807       0.76550058      -1.41421586
16
Frame=9 idx=011768 GeodesicLength=1.1526475601110182 rxn_smarts="[C:1]([C:2]1([C:3]([H:11])([H:12])[H:13])[C:4]([H:14])([H:15])[N:5]([H:16])[C:6]1=[O:7])([H:8])([H:9])[H:10]>>[C:1]([C@@:2]12[C:3]([H:11])([H:13])[C@:4]1([H:14])[N:5]([H:16])[C:6]2=[O:7])([H:8])([H:9])[H:10].[H:12][H:15]"
C        1.60733448       0.30403093      -0.50104964
C        0.22329531      -0.21001490      -0.19978756
C       -0.08573332      -1.04201418       0.97439328
C       -0.89250566       0.72593137       0.23518914
N       -1.49974105       0.59410228      -1.07014354
C       -0.64991693      -0.42106745      -1.44979571
O       -0.62805575      -1.16776629      -2.38460092
H        2.21939399      -0.51682613      -0.87782340
H        2.10494075       0.69037690       0.38873899
H        1.58032214       1.12026980      -1.22448426
H       -0.10757998      -2.13483559       0.93493463
H        0.55983968       0.34422274       1.99018596
H       -0.43641610      -1.21710052       1.99036032
H       -1.63523886       0.84298179       1.01731060
H        0.08358135       1.34548522       1.56640697
H       -2.44352006       0.74222403      -1.38983488
16
Frame=10 idx=011768 GeodesicLength=1.2808192688843516 rxn_smarts="[C:1]([C:2]1([C:3]([H:11])([H:12])[H:13])[C:4]([H:14])([H:15])[N:5]([H:16])[C:6]1=[O:7])([H:8])([H:9])[H:10]>>[C:1]([C@@:2]12[C:3]([H:11])([H:13])[C@:4]1([H:14])[N:5]([H:16])[C:6]2=[O:7])([H:8])([H:9])[H:10].[H:12][H:15]"
C        1.61225710       0.30684072      -0.51148743
C        0.22872396      -0.20735581      -0.21075203
C       -0.10241231      -1.03836631       0.96324010
C       -0.88528115       0.72318024       0.24116899
N       -1.50521392       0.58710359      -1.06100270
C       -0.65381242      -0.42373741      -1.45049827
O       -0.62530925      -1.15587819      -2.39667131
H        2.22452458      -0.51333233      -0.88931580
H        2.11242428       0.69285342       0.37701455
H        1.58613744       1.12390652      -1.23409638
H       -0.00612583      -2.12672179       1.00752351
H        0.59744034       0.30093725       2.00990142
H       -0.58844368      -1.20271146       1.92527171
H       -1.62760743       0.87005458       1.01836458
H        0.08898897       1.34465865       1.57784739
H       -2.45629066       0.71856834      -1.36650833
16
Frame=11 idx=011768 GeodesicLength=1.4084918990757929 rxn_smarts="[C:1]([C:2]1([C:3]([H:11])([H:12])[H:13])[C:4]([H:14])([H:15])[N:5]([H:16])[C:6]1=[O:7])([H:8])([H:9])[H:10]>>[C:1]([C@@:2]12[C:3]([H:11])([H:13])[C@:4]1([H:14])[N:5]([H:16])[C:6]2=[O:7])([H:8])([H:9])[H:10].[H:12][H:15]"
C        1.61714645       0.30992703      -0.52153261
C        0.23396728      -0.20465038      -0.22215092
C       -0.11866107      -1.03503190       0.95125271
C       -0.87856034       0.71988239       0.24678099
N       -1.51059771       0.57999654      -1.05243893
C       -0.65697613      -0.42561475      -1.45231893
O       -0.62249909      -1.14378124      -2.40902341
H        2.23008667      -0.50918787      -0.90038933
H        2.11931678       0.69591085       0.36585192
H        1.59225266       1.12786708      -1.24323997
H        0.07556583      -2.10110936       1.09545075
H        0.63482286       0.25210761       2.02963860
H       -0.71978539      -1.19831402       1.84755070
H       -1.62010732       0.89459370       1.01872178
H        0.09274977       1.34384811       1.58914538
H       -2.46872127       0.69355619      -1.34329874
16
Frame=12 idx=011768 GeodesicLength=1.5364210500578135 rxn_smarts="[C:1]([C:2]1([C:3]([H:11])([H:12])[H:13])[C:4]([H:14])([H:15])[N:5]([H:16])[C:6]1=[O:7])([H:8])([H:9])[H:10]>>[C:1]([C@@:2]12[C:3]([H:11])([H:13])[C@:4]1([H:14])[N:5]([H:16])[C:6]2=[O:7])([H:8])([H:9])[H:10].[H:12][H:15]"
C        1.62230052       0.31376578      -0.53146276
C        0.23970770      -0.20212418      -0.23369433
C       -0.13258040      -1.03227325       0.93928119
C       -0.87193031       0.71542715       0.25257686
N       -1.51584086       0.57201684      -1.04376669
C       -0.65891532      -0.42695669      -1.45492636
O       -0.61903636      -1.13162579      -2.42151140
H        2.23658320      -0.50343997      -0.91211299
H        2.12632560       0.70000598       0.35477751
H        1.59824611       1.13310571      -1.25170671
H        0.13287239      -2.06138834       1.19420353
H        0.67487119       0.19865341       2.04856507
H       -0.83463127      -1.20059973       1.75955634
H       -1.61236743       0.91545868       1.01928068
H        0.09528408       1.34413613       1.59995517
H       -2.48088884       0.66583828      -1.31901512
16
Frame=13 idx=011768 GeodesicLength=1.664724061334742 rxn_smarts="[C:1]([C:2]1([C:3]([H:11])([H:12])[H:13])[C:4]([H:14])([H:15])[N:5]([H:16])[C:6]1=[O:7])([H:8])([H:9])[H:10]>>[C:1]([C@@:2]12[C:3]([H:11])([H:13])[C@:4]1([H:14])[N:5]([H:16])[C:6]2=[O:7])([H:8])([H:9])[H:10].[H:12][H:15]"
C        1.62786779       0.31871725      -0.54117262
C        0.24626214      -0.19947601      -0.24470311
C       -0.14318380      -1.02931015       0.92874290
C       -0.86526918       0.70985529       0.25905725
N       -1.52079371       0.56275328      -1.03442295
C       -0.65940233      -0.42810123      -1.45748008
O       -0.61516029      -1.12097561      -2.43246462
H        2.24418844      -0.49579759      -0.92411732
H        2.13376274       0.70608016       0.34353209
H        1.60397251       1.13962911      -1.25974710
H        0.16269697      -2.01189127       1.29651322
H        0.71953988       0.14198752       2.06635846
H       -0.93435673      -1.20832872       1.66285128
H       -1.60448415       0.93236463       1.02065892
H        0.09674410       1.34730416       1.60976127
H       -2.49238438       0.63518916      -1.29336760
16
Frame=14 idx=011768 GeodesicLength=1.7939202032566868 rxn_smarts="[C:1]([C:2]1([C:3]([H:11])([H:12])[H:13])[C:4]([H:14])([H:15])[N:5]([H:16])[C:6]1=[O:7])([H:8])([H:9])[H:10]>>[C:1]([C@@:2]12[C:3]([H:11])([H:13])[C@:4]1([H:14])[N:5]([H:16])[C:6]2=[O:7])([H:8])([H:9])[H:10].[H:12][H:15]"
C        1.63358822       0.32462595      -0.55053991
C        0.25335557      -0.19665022      -0.25471102
C       -0.15078040      -1.02574233       0.92054203
C       -0.85890692       0.70320881       0.26654004
N       -1.52529737       0.55256987      -1.02436787
C       -0.65885511      -0.42937753      -1.45936173
O       -0.61132008      -1.11247049      -2.44115260
H        2.25246699      -0.48666544      -0.93601931
H        2.14150437       0.71415672       0.33207369
H        1.60917266       1.14703659      -1.26752549
H        0.16736598      -1.95523525       1.39925281
H        0.77001422       0.08245613       2.08262210
H       -1.01939592      -1.22111990       1.55879822
H       -1.59716854       0.94501574       1.02316313
H        0.09680698       1.35466925       1.61810517
H       -2.50255064       0.60352211      -1.26741927
16
Frame=15 idx=011768 GeodesicLength=1.9238106896524176 rxn_smarts="[C:1]([C:2]1([C:3]([H:11])([H:12])[H:13])[C:4]([H:14])([H:15])[N:5]([H:16])[C:6]1=[O:7])([H:8])([H:9])[H:10]>>[C:1]([C@@:2]12[C:3]([H:11])([H:13])[C@:4]1([H:14])[N:5]([H:16])[C:6]2=[O:7])([H:8])([H:9])[H:10].[H:12][H:15]"
C        1.63921186       0.33149258      -0.55934928
C        0.26074330      -0.19366688      -0.26351592
C       -0.15611829      -1.02154854       0.91488601
C       -0.85308682       0.69556768       0.27497526
N       -1.52933183       0.54151280      -1.01380628
C       -0.65739549      -0.43097554      -1.46043686
O       -0.60734773      -1.10629989      -2.44752791
H        2.26119466      -0.47610617      -0.94738658
H        2.14922410       0.72430411       0.32062207
H        1.61364360       1.15527372      -1.27487789
H        0.14756152      -1.89420877       1.49879700
H        0.82751625       0.01887180       2.09654467
H       -1.08859192      -1.23592088       1.45160467
H       -1.59098366       0.95358314       1.02663843
H        0.09501909       1.36678096       1.62470998
H       -2.51125863       0.57133988      -1.24187738
16
Frame=16 idx=011768 GeodesicLength=2.0540603435125226 rxn_smarts="[C:1]([C:2]1([C:3]([H:11])([H:12])[H:13])[C:4]([H:14])([H:15])[N:5]([H:16])[C:6]1=[O:7])([H:8])([H:9])[H:10]>>[C:1]([C@@:2]12[C:3]([H:11])([H:13])[C@:4]1([H:14])[N:5]([H:16])[C:6]2=[O:7])([H:8])([H:9])[H:10].[H:12][H:15]"
C        1.64453349       0.33926320      -0.56739598
C        0.26814002      -0.19048404      -0.27110777
C       -0.16011357      -1.01682971       0.91156273
C       -0.84803525       0.68713859       0.28414345
N       -1.53297977       0.52969578      -1.00305329
C       -0.65516765      -0.43294557      -1.46078101
O       -0.60308307      -1.10244390      -2.45177723
H        2.27013544      -0.46431061      -0.95777008
H        2.15652816       0.73631240       0.30954707
H        1.61736866       1.16423840      -1.28165647
H        0.10634528      -1.82942469       1.59284135
H        0.89263172      -0.05148282       2.10719684
H       -1.14224449      -1.25025935       1.34553334
H       -1.58634777       0.95878158       1.03068661
H        0.09091090       1.38387444       1.62929904
H       -2.51862211       0.53887628      -1.21726861
