19
Frame=0 idx=010900 GeodesicLength=0.0 rxn_smarts="[C:1]([C:2]([C@@:3]1([H:13])[C:4]([H:14])([H:15])[C:5]([H:16])([H:17])[C:6]([H:18])([H:19])[O:7]1)([H:11])[H:12])([H:8])([H:9])[H:10]>>[C:1]([C:2]([C@@:3]1([H:13])[C:4]([H:14])([H:15])[C:5]([H:16])([H:17])[C-:6]=[O+:7]1)([H:11])[H:12])([H:8])([H:9])[H:10].[H:18][H:19]"
C        2.60208562      -0.21689655       0.29744017
C        1.38340177       0.21989227      -0.50285453
C        0.16158275       0.48695405       0.35035492
C       -1.06646514       0.98262531      -0.41171537
C       -2.20564936       0.16988048       0.20640545
C       -1.52806184      -1.07451570       0.72266533
O       -0.26380614      -0.77380022       0.96434435
H        2.89689708       0.55221743       1.01539446
H        2.39363615      -1.13143762       0.85385506
H        3.45343969      -0.40595349      -0.35798436
H        1.60510116       1.13184412      -1.06659756
H        1.11614038      -0.54397042      -1.24127434
H        0.41379290       1.14932778       1.18406116
H       -1.19055249       2.06096584      -0.31399328
H       -0.97352912       0.74239874      -1.47382882
H       -3.03098122      -0.04122051      -0.46990665
H       -2.61215876       0.67437736       1.08881606
H       -1.68885071      -2.11573203       0.00945716
H       -1.46602273      -1.86695678      -0.85463919
19
Frame=1 idx=010900 GeodesicLength=0.05266123461417945 rxn_smarts="[C:1]([C:2]([C@@:3]1([H:13])[C:4]([H:14])([H:15])[C:5]([H:16])([H:17])[C:6]([H:18])([H:19])[O:7]1)([H:11])[H:12])([H:8])([H:9])[H:10]>>[C:1]([C:2]([C@@:3]1([H:13])[C:4]([H:14])([H:15])[C:5]([H:16])([H:17])[C-:6]=[O+:7]1)([H:11])[H:12])([H:8])([H:9])[H:10].[H:18][H:19]"
C        2.60500672      -0.21355986       0.29862559
C        1.38907624       0.22734373      -0.50367299
C        0.16305553       0.48512763       0.34634097
C       -1.06394747       0.98217039      -0.41552331
C       -2.20414596       0.17439226       0.20701345
C       -1.52824077      -1.07489062       0.71427448
O       -0.26031753      -0.77934766       0.95232015
H        2.89515340       0.55045381       1.02391090
H        2.39572057      -1.13275707       0.84697824
H        3.45965025      -0.39596951      -0.35440773
H        1.61165322       1.14430472      -1.05886013
H        1.12668286      -0.53131059      -1.24910122
H        0.41032477       1.14458488       1.18419815
H       -1.18564656       2.06103279      -0.32052337
H       -0.97261954       0.73922370      -1.47718325
H       -3.03376865      -0.03130879      -0.46589103
H       -2.60565452       0.67871169       1.09179536
H       -1.71721624      -2.14124766       0.02298229
H       -1.48476634      -1.88695384      -0.84327658
19
Frame=2 idx=010900 GeodesicLength=0.10526087387093139 rxn_smarts="[C:1]([C:2]([C@@:3]1([H:13])[C:4]([H:14])([H:15])[C:5]([H:16])([H:17])[C:6]([H:18])([H:19])[O:7]1)([H:11])[H:12])([H:8])([H:9])[H:10]>>[C:1]([C:2]([C@@:3]1([H:13])[C:4]([H:14])([H:15])[C:5]([H:16])([H:17])[C-:6]=[O+:7]1)([H:11])[H:12])([H:8])([H:9])[H:10].[H:18][H:19]"
C        2.60793598      -0.21022775       0.29978365
C        1.39480629       0.23495873      -0.50446159
C        0.16456792       0.48330935       0.34224521
C       -1.06138507       0.98176278      -0.41940274
C       -2.20252941       0.17881964       0.20744539
C       -1.52834125      -1.07541802       0.70546272
O       -0.25680979      -0.78493975       0.93996508
H        2.89334889       0.54848190       1.03249918
H        2.39782797      -1.13412294       0.83984672
H        3.46588540      -0.38587590      -0.35077430
H        1.61822858       1.15696855      -1.05085767
H        1.13735475      -0.51827951      -1.25699820
H        0.40682878       1.13968785       1.18433937
H       -1.18075436       2.06111582      -0.32699171
H       -0.97161544       0.73619462      -1.48061918
H       -3.03636743      -0.02142067      -0.46207667
H       -2.59906988       0.68277254       1.09465543
H       -1.74595112      -2.16636341       0.03732836
H       -1.50396082      -1.90742383      -0.83138904
19
Frame=3 idx=010900 GeodesicLength=0.1578008705889804 rxn_smarts="[C:1]([C:2]([C@@:3]1([H:13])[C:4]([H:14])([H:15])[C:5]([H:16])([H:17])[C:6]([H:18])([H:19])[O:7]1)([H:11])[H:12])([H:8])([H:9])[H:10]>>[C:1]([C:2]([C@@:3]1([H:13])[C:4]([H:14])([H:15])[C:5]([H:16])([H:17])[C-:6]=[O+:7]1)([H:11])[H:12])([H:8])([H:9])[H:10].[H:18][H:19]"
C        2.61087228      -0.20690428       0.30091023
C        1.40059149       0.24274224      -0.50521749
C        0.16611902       0.48149526       0.33806501
C       -1.05877676       0.98140541      -0.42335444
C       -2.20080111       0.18315535       0.20768798
C       -1.52836825      -1.07609581       0.69622412
O       -0.25328124      -0.79058303       0.92725853
H        2.89147936       0.54628485       1.04116056
H        2.39995924      -1.13554136       0.83244177
H        3.47214450      -0.37566951      -0.34708474
H        1.62482517       1.16984171      -1.04257316
H        1.14815857      -0.50485851      -1.26496774
H        0.40330166       1.13462232       1.18448673
H       -1.17587563       2.06121823      -0.33338831
H       -0.97051128       0.73332708      -1.48414086
H       -3.03877361      -0.01156663      -0.45848279
H       -2.59241679       0.68655211       1.09737870
H       -1.77504117      -2.19106489       0.05254476
H       -1.52360547      -1.92836053      -0.81894885
19
Frame=4 idx=010900 GeodesicLength=0.21028086805270005 rxn_smarts="[C:1]([C:2]([C@@:3]1([H:13])[C:4]([H:14])([H:15])[C:5]([H:16])([H:17])[C:6]([H:18])([H:19])[O:7]1)([H:11])[H:12])([H:8])([H:9])[H:10]>>[C:1]([C:2]([C@@:3]1([H:13])[C:4]([H:14])([H:15])[C:5]([H:16])([H:17])[C-:6]=[O+:7]1)([H:11])[H:12])([H:8])([H:9])[H:10].[H:18][H:19]"
C        2.61381382      -0.20359509       0.30200084
C        1.40643122       0.25069927      -0.50593777
C        0.16770770       0.47968189       0.33379735
C       -1.05612176       0.98110178      -0.42737948
C       -2.19896325       0.18739222       0.20772768
C       -1.52832668      -1.07692154       0.68655034
O       -0.24973092      -0.79628324       0.91417927
H        2.88953922       0.54384249       1.04989789
H        2.40211416      -1.13702042       0.82474258
H        3.47842690      -0.36534659      -0.34333919
H        1.63144165       1.18293087      -1.03398836
H        1.15909664      -0.49102826      -1.27301269
H        0.39973983       1.12937416       1.18464151
H       -1.17101059       2.06134407      -0.33970287
H       -0.96930213       0.73063767      -1.48775323
H       -3.04098398      -0.00175759      -0.45512957
H       -2.58570796       0.69004275       1.09994773
H       -1.80446419      -2.21533683       0.06868195
H       -1.54369969      -1.94975761      -0.80592397
19
Frame=5 idx=010900 GeodesicLength=0.2627129508497693 rxn_smarts="[C:1]([C:2]([C@@:3]1([H:13])[C:4]([H:14])([H:15])[C:5]([H:16])([H:17])[C:6]([H:18])([H:19])[O:7]1)([H:11])[H:12])([H:8])([H:9])[H:10]>>[C:1]([C:2]([C@@:3]1([H:13])[C:4]([H:14])([H:15])[C:5]([H:16])([H:17])[C-:6]=[O+:7]1)([H:11])[H:12])([H:8])([H:9])[H:10].[H:18][H:19]"
C        2.61675801      -0.20030567       0.30305173
C        1.41232308       0.25883233      -0.50661881
C        0.16933220       0.47786511       0.32943994
C       -1.05341976       0.98085532      -0.43147767
C       -2.19701785       0.19152245       0.20755169
C       -1.52822233      -1.07789229       0.67643684
O       -0.24615842      -0.80204562       0.90070619
H        2.88752499       0.54113927       1.05870698
H        2.40429266      -1.13856232       0.81673553
H        3.48472921      -0.35490992      -0.33953707
H        1.63807290       1.19623667      -1.02508704
H        1.17016935      -0.47677275      -1.28113184
H        0.39613987       1.12392765       1.18480578
H       -1.16615963       2.06149717      -0.34592370
H       -0.96798342       0.72814294      -1.49145995
H       -3.04299586       0.00799634      -0.45203514
H       -2.57895648       0.69323695       1.10234518
H       -1.83418988      -2.23916396       0.08578827
H       -1.56423865      -1.97159967      -0.79229692
19
Frame=6 idx=010900 GeodesicLength=0.31507454062475837 rxn_smarts="[C:1]([C:2]([C@@:3]1([H:13])[C:4]([H:14])([H:15])[C:5]([H:16])([H:17])[C:6]([H:18])([H:19])[O:7]1)([H:11])[H:12])([H:8])([H:9])[H:10]>>[C:1]([C:2]([C@@:3]1([H:13])[C:4]([H:14])([H:15])[C:5]([H:16])([H:17])[C-:6]=[O+:7]1)([H:11])[H:12])([H:8])([H:9])[H:10].[H:18][H:19]"
C        2.61970294      -0.19704145       0.30405801
C        1.41826730       0.26714859      -0.50725775
C        0.17099124       0.47604158       0.32498801
C       -1.05066924       0.98067304      -0.43565088
C       -2.19496728       0.19553858       0.20714047
C       -1.52805684      -1.07901434       0.66585221
O       -0.24256458      -0.80787705       0.88681249
H        2.88543046       0.53815189       1.06759144
H        2.40649321      -1.14017593       0.80839696
H        3.49105071      -0.34435608      -0.33567807
H        1.64471874       1.20976818      -1.01584817
H        1.18137999      -0.46206830      -1.28932894
H        0.39249681       1.11826476       1.18498139
H       -1.16132295       2.06168461      -0.35203538
H       -0.96654788       0.72586859      -1.49526798
H       -3.04480668       0.01768764      -0.44922716
H       -2.57217365       0.69611629       1.10455382
H       -1.86420347      -2.26252428       0.10393101
H       -1.58521884      -1.99388629      -0.77801146
19
Frame=7 idx=010900 GeodesicLength=0.3673709361606759 rxn_smarts="[C:1]([C:2]([C@@:3]1([H:13])[C:4]([H:14])([H:15])[C:5]([H:16])([H:17])[C:6]([H:18])([H:19])[O:7]1)([H:11])[H:12])([H:8])([H:9])[H:10]>>[C:1]([C:2]([C@@:3]1([H:13])[C:4]([H:14])([H:15])[C:5]([H:16])([H:17])[C-:6]=[O+:7]1)([H:11])[H:12])([H:8])([H:9])[H:10].[H:18][H:19]"
C        2.62264594      -0.19380793       0.30501576
C        1.42426194       0.27565162      -0.50785097
C        0.17268285       0.47420672       0.32043797
C       -1.04786941       0.98056139      -0.43989876
C       -2.19281423       0.19943253       0.20647578
C       -1.52783414      -1.08029155       0.65477197
O       -0.23895065      -0.81378449       0.87247209
H        2.88325248       0.53486391       1.07654597
H        2.40871460      -1.14186315       0.79971259
H        3.49738770      -0.33368912      -0.33176131
H        1.65137463       1.22352713      -1.00625356
H        1.19272926      -0.44689628      -1.29760318
H        0.38880615       1.11236573       1.18517088
H       -1.15650078       2.06191279      -0.35802049
H       -0.96498918       0.72383953      -1.49918200
H       -3.04641472       0.02730974      -0.44673046
H       -2.56537181       0.69866428       1.10655584
H       -1.89447964      -2.28539781       0.12317119
H       -1.60663099      -2.01660505      -0.76302931
19
Frame=8 idx=010900 GeodesicLength=0.4196006591003418 rxn_smarts="[C:1]([C:2]([C@@:3]1([H:13])[C:4]([H:14])([H:15])[C:5]([H:16])([H:17])[C:6]([H:18])([H:19])[O:7]1)([H:11])[H:12])([H:8])([H:9])[H:10]>>[C:1]([C:2]([C@@:3]1([H:13])[C:4]([H:14])([H:15])[C:5]([H:16])([H:17])[C-:6]=[O+:7]1)([H:11])[H:12])([H:8])([H:9])[H:10].[H:18][H:19]"
C        2.62558398      -0.19061153       0.30592062
C        1.43030552       0.28434576      -0.50839477
C        0.17440494       0.47235624       0.31578526
C       -1.04501932       0.98052883      -0.44422155
C       -2.19056170       0.20319589       0.20553707
C       -1.52755686      -1.08173027       0.64316025
O       -0.23531895      -0.81977429       0.85765676
H        2.88098649       0.53125533       1.08556784
H        2.41095480      -1.14362719       0.79066545
H        3.50373685      -0.32291204      -0.32778530
H        1.65803771       1.23751648      -0.99628325
H        1.20421900      -0.43123602      -1.30595471
H        0.38506270       1.10620993       1.18537551
H       -1.15169390       2.06218970      -0.36385904
H       -0.96330041       0.72208573      -1.50320825
H       -3.04781852       0.03685668      -0.44457322
H       -2.55856305       0.70085913       1.10833396
H       -1.92499187      -2.30776087       0.14357609
H       -1.62846741      -2.03974750      -0.74729870
19
Frame=9 idx=010900 GeodesicLength=0.4717536183382146 rxn_smarts="[C:1]([C:2]([C@@:3]1([H:13])[C:4]([H:14])([H:15])[C:5]([H:16])([H:17])[C:6]([H:18])([H:19])[O:7]1)([H:11])[H:12])([H:8])([H:9])[H:10]>>[C:1]([C:2]([C@@:3]1([H:13])[C:4]([H:14])([H:15])[C:5]([H:16])([H:17])[C-:6]=[O+:7]1)([H:11])[H:12])([H:8])([H:9])[H:10].[H:18][H:19]"
C        2.62852042      -0.18745451       0.30676427
C        1.43640690       0.29325050      -0.50888699
C        0.17615868       0.47048028       0.31101892
C       -1.04211305       0.98058172      -0.44862456
C       -2.18820992       0.20681529       0.20428399
C       -1.52721989      -1.08334783       0.63095633
O       -0.23166315      -0.82586987       0.84231170
H        2.87861689       0.52728577       1.09467395
H        2.41322167      -1.14548354       0.78120016
H        3.51011002      -0.31199615      -0.32374482
H        1.66471410       1.25176234      -0.98589637
H        1.21587165      -0.41503602      -1.31439899
H        0.38125577       1.09975696       1.18559899
H       -1.14690041       2.06251862      -0.36952822
H       -0.96146520       0.72064477      -1.50735845
H       -3.04900855       0.04631043      -0.44280905
H       -2.55175933       0.70266407       1.10985396
H       -1.95578219      -2.32958280       0.16523544
H       -1.65075440      -2.06330005      -0.73065025
19
Frame=10 idx=010900 GeodesicLength=0.5238453742241612 rxn_smarts="[C:1]([C:2]([C@@:3]1([H:13])[C:4]([H:14])([H:15])[C:5]([H:16])([H:17])[C:6]([H:18])([H:19])[O:7]1)([H:11])[H:12])([H:8])([H:9])[H:10]>>[C:1]([C:2]([C@@:3]1([H:13])[C:4]([H:14])([H:15])[C:5]([H:16])([H:17])[C-:6]=[O+:7]1)([H:11])[H:12])([H:8])([H:9])[H:10].[H:18][H:19]"
C        2.63144455      -0.18435124       0.30754467
C        1.44255511       0.30235973      -0.50932000
C        0.17793746       0.46857886       0.30613764
C       -1.03915490       0.98072900      -0.45310643
C       -2.18576634       0.21028562       0.20270971
C       -1.52683309      -1.08513776       0.61814708
O       -0.22799195      -0.83206113       0.82642420
H        2.87614136       0.52293579       1.10385160
H        2.41550295      -1.14743505       0.77131556
H        3.51649123      -0.30096651      -0.31963945
H        1.67139220       1.26625059      -0.97507863
H        1.22767164      -0.39829162      -1.32292203
H        0.37738124       1.09299826       1.18584004
H       -1.14212388       2.06291069      -0.37501390
H       -0.95948463       0.71953745      -1.51163654
H       -3.04999198       0.05567262      -0.44144809
H       -2.54497744       0.70407200       1.11110843
H       -1.98674079      -2.35082925       0.18821073
H       -1.67345275      -2.08725805      -0.71312460
19
Frame=11 idx=010900 GeodesicLength=0.5758823564863456 rxn_smarts="[C:1]([C:2]([C@@:3]1([H:13])[C:4]([H:14])([H:15])[C:5]([H:16])([H:17])[C:6]([H:18])([H:19])[O:7]1)([H:11])[H:12])([H:8])([H:9])[H:10]>>[C:1]([C:2]([C@@:3]1([H:13])[C:4]([H:14])([H:15])[C:5]([H:16])([H:17])[C-:6]=[O+:7]1)([H:11])[H:12])([H:8])([H:9])[H:10].[H:18][H:19]"
C        2.63435052      -0.18131355       0.30825567
C        1.44874768       0.31168110      -0.50968680
C        0.17973733       0.46664656       0.30113530
C       -1.03614462       0.98097876      -0.45766970
C       -2.18323534       0.21359712       0.20078885
C       -1.52640050      -1.08710304       0.60469566
O       -0.22430736      -0.83835388       0.80995602
H        2.87354783       0.51816727       1.11310447
H        2.41779465      -1.14949463       0.76097671
H        3.52287650      -0.28982191      -0.31546618
H        1.67806863       1.28098835      -0.96379666
H        1.23962070      -0.38096971      -1.33152386
H        0.37342973       1.08590750       1.18609983
H       -1.13736575       2.06337343      -0.38029699
H       -0.95735053       0.71879461      -1.51605123
H       -3.05076692       0.06493311      -0.44052587
H       -2.53823395       0.70506215       1.11207226
H       -2.01781878      -2.37146239       0.21258898
H       -1.69654982      -2.11161085      -0.69465644
19
Frame=12 idx=010900 GeodesicLength=0.6278559553650797 rxn_smarts="[C:1]([C:2]([C@@:3]1([H:13])[C:4]([H:14])([H:15])[C:5]([H:16])([H:17])[C:6]([H:18])([H:19])[O:7]1)([H:11])[H:12])([H:8])([H:9])[H:10]>>[C:1]([C:2]([C@@:3]1([H:13])[C:4]([H:14])([H:15])[C:5]([H:16])([H:17])[C-:6]=[O+:7]1)([H:11])[H:12])([H:8])([H:9])[H:10].[H:18][H:19]"
C        2.63723203      -0.17835420       0.30889089
C        1.45498220       0.32122277      -0.50997982
C        0.18155379       0.46467762       0.29600421
C       -1.03308227       0.98133954      -0.46231787
C       -2.18062274       0.21673950       0.19849355
C       -1.52592656      -1.08924833       0.59055764
O       -0.22061190      -0.84475502       0.79286540
H        2.87082148       0.51293666       1.12243861
H        2.42009202      -1.15167793       0.75014282
H        3.52926274      -0.27855884      -0.31121985
H        1.68474024       1.29598282      -0.95201303
H        1.25172244      -0.36303401      -1.34020445
H        0.36939023       1.07845511       1.18637884
H       -1.13262782       2.06391457      -0.38535800
H       -0.95505473       0.71844888      -1.52061257
H       -3.05133405       0.07408456      -0.44007925
H       -2.53154687       0.70561102       1.11272000
H       -2.04895817      -2.39143336       0.23846245
H       -1.72003208      -2.13635137      -0.67516958
19
Frame=13 idx=010900 GeodesicLength=0.679733977175067 rxn_smarts="[C:1]([C:2]([C@@:3]1([H:13])[C:4]([H:14])([H:15])[C:5]([H:16])([H:17])[C:6]([H:18])([H:19])[O:7]1)([H:11])[H:12])([H:8])([H:9])[H:10]>>[C:1]([C:2]([C@@:3]1([H:13])[C:4]([H:14])([H:15])[C:5]([H:16])([H:17])[C-:6]=[O+:7]1)([H:11])[H:12])([H:8])([H:9])[H:10].[H:18][H:19]"
C        2.64008031      -0.17548839       0.30944394
C        1.46125362       0.33099052      -0.51018980
C        0.18338044       0.46266518       0.29073667
C       -1.02996890       0.98182366      -0.46705274
C       -2.17793477       0.21970020       0.19578895
C       -1.52541461      -1.09158661       0.57566672
O       -0.21691199      -0.85126892       0.77510646
H        2.86795059       0.50720117       1.13184769
H        2.42238797      -1.15399237       0.73878137
H        3.53564058      -0.26718797      -0.30689412
H        1.69139982       1.31123451      -0.93968946
H        1.26397704      -0.34444869      -1.34895922
H        0.36525019       1.07060664       1.18667878
H       -1.12791431       2.06454433      -0.39016663
H       -0.95258804       0.71854567      -1.52532925
H       -3.05169307       0.08311911      -0.44015557
H       -2.52493437       0.70567979       1.11302426
H       -2.08008235      -2.41067789       0.26593886
H       -1.74387816      -2.16145995      -0.65457688
19
Frame=14 idx=010900 GeodesicLength=0.7315561543615945 rxn_smarts="[C:1]([C:2]([C@@:3]1([H:13])[C:4]([H:14])([H:15])[C:5]([H:16])([H:17])[C:6]([H:18])([H:19])[O:7]1)([H:11])[H:12])([H:8])([H:9])[H:10]>>[C:1]([C:2]([C@@:3]1([H:13])[C:4]([H:14])([H:15])[C:5]([H:16])([H:17])[C-:6]=[O+:7]1)([H:11])[H:12])([H:8])([H:9])[H:10].[H:18][H:19]"
C        2.64288858      -0.17273038       0.30990784
C        1.46756088       0.34099429      -0.51030862
C        0.18521209       0.46060239       0.28532232
C       -1.02680369       0.98244451      -0.47187760
C       -2.17517893       0.22246804       0.19263847
C       -1.52486722      -1.09412642       0.55995245
O       -0.21321106      -0.85790435       0.75662738
H        2.86491770       0.50091215       1.14134086
H        2.42467581      -1.15645584       0.72684675
H        3.54200789      -0.25570461      -0.30248303
H        1.69804598       1.32675237      -0.92678186
H        1.27639063      -0.32517136      -1.35778831
H        0.36099569       1.06232395       1.18699941
H       -1.12322624       2.06527451      -0.39469484
H       -0.94993933       0.71913072      -1.53021476
H       -3.05184559       0.09203318      -0.44080207
H       -2.51841709       0.70523368       1.11295561
H       -2.11113048      -2.42914986       0.29513555
H       -1.76807564      -2.18692698      -0.63277556
19
Frame=15 idx=010900 GeodesicLength=0.783317201086459 rxn_smarts="[C:1]([C:2]([C@@:3]1([H:13])[C:4]([H:14])([H:15])[C:5]([H:16])([H:17])[C:6]([H:18])([H:19])[O:7]1)([H:11])[H:12])([H:8])([H:9])[H:10]>>[C:1]([C:2]([C@@:3]1([H:13])[C:4]([H:14])([H:15])[C:5]([H:16])([H:17])[C-:6]=[O+:7]1)([H:11])[H:12])([H:8])([H:9])[H:10].[H:18][H:19]"
C        2.64564657      -0.17009659       0.31027656
C        1.47389777       0.35123781      -0.51032555
C        0.18704073       0.45848118       0.27975221
C       -1.02358848       0.98321757      -0.47679265
C       -2.17236367       0.22502882       0.18900192
C       -1.52428814      -1.09688271       0.54332936
O       -0.20951777      -0.86466589       0.73737766
H        2.86171012       0.49402524       1.15090944
H        2.42694552      -1.15907576       0.71430792
H        3.54835358      -0.24412394      -0.29797978
H        1.70467067       1.34253286      -0.91324924
H        1.28896247      -0.30516748      -1.36668339
H        0.35661141       1.05356607       1.18734120
H       -1.11856892       2.06611739      -0.39890407
H       -0.94709899       0.72025948      -1.53527849
H       -3.05179398       0.10082341      -0.44207064
H       -2.51201687       0.70422604       1.11248364
H       -2.14200862      -2.44677565       0.32616801
H       -1.79259340      -2.21272782      -0.60966411
19
Frame=16 idx=010900 GeodesicLength=0.8350217927539688 rxn_smarts="[C:1]([C:2]([C@@:3]1([H:13])[C:4]([H:14])([H:15])[C:5]([H:16])([H:17])[C:6]([H:18])([H:19])[O:7]1)([H:11])[H:12])([H:8])([H:9])[H:10]>>[C:1]([C:2]([C@@:3]1([H:13])[C:4]([H:14])([H:15])[C:5]([H:16])([H:17])[C-:6]=[O+:7]1)([H:11])[H:12])([H:8])([H:9])[H:10].[H:18][H:19]"
C        2.64834362      -0.16760553       0.31054319
C        1.48025993       0.36172833      -0.51022939
C        0.18885767       0.45629108       0.27401399
C       -1.02032434       0.98416080      -0.48179918
C       -2.16949833       0.22736545       0.18482935
C       -1.52368033      -1.09987684       0.52568390
O       -0.20584097      -0.87156268       0.71729544
H        2.85831099       0.48648845       1.16055113
H        2.42918670      -1.16186378       0.70112441
H        3.55466874      -0.23245621      -0.29337624
H        1.71126731       1.35857737      -0.89904143
H        1.30169674      -0.28439257      -1.37563912
H        0.35207883       1.04428242       1.18770414
H       -1.11394754       2.06708680      -0.40274859
H       -0.94405385       0.72199802      -1.54053275
H       -3.05154102       0.10948834      -0.44402531
H       -2.50575695       0.70259570       1.11157376
H       -2.17262095      -2.46346765       0.35918076
H       -1.81740627      -2.23883752      -0.58510804
