14
Frame=0 idx=010557 GeodesicLength=0.0 rxn_smarts="[C:1]([C@@:2]1([C:5](=[O:6])[N:7]([H:13])[H:14])[C:3]([H:11])([H:12])[O:4]1)([H:8])([H:9])[H:10]>>[C:1]([C@@:2]1([C-:5]([O:6][H:12])[N:7]([H:13])[H:14])[C:3]([H:11])=[O+:4]1)([H:8])([H:9])[H:10]"
C        1.14536142      -1.37274357      -0.09471380
C        0.28010614      -0.21208463      -0.49125952
C        0.88956584       1.18573576      -0.62337071
O        0.50362871       0.30349253      -1.73918446
C       -0.72385568       0.28098646       0.46940253
O       -0.12305728       0.70022873       1.51780682
N       -2.03989014       0.33088174       0.32581350
H        2.18709179      -1.12489902      -0.30811446
H        1.04281682      -1.61420817       0.96305137
H        0.86764399      -2.25090689      -0.68193907
H        0.10304147       1.95805947      -0.62249462
H        0.92363709       0.97588131       0.83038894
H       -2.59618683       0.87252070       0.96485763
H       -2.45990331      -0.03294436      -0.51024409
14
Frame=1 idx=010557 GeodesicLength=0.08159582651236733 rxn_smarts="[C:1]([C@@:2]1([C:5](=[O:6])[N:7]([H:13])[H:14])[C:3]([H:11])([H:12])[O:4]1)([H:8])([H:9])[H:10]>>[C:1]([C@@:2]1([C-:5]([O:6][H:12])[N:7]([H:13])[H:14])[C:3]([H:11])=[O+:4]1)([H:8])([H:9])[H:10]"
C        1.15344201      -1.37346215      -0.09261577
C        0.27772516      -0.21801354      -0.48032465
C        0.88059785       1.17937715      -0.62917821
O        0.46495146       0.29890042      -1.73510868
C       -0.72749520       0.25897171       0.48757133
O       -0.13253080       0.68973961       1.53444490
N       -2.03950946       0.33212447       0.31496704
H        2.18803831      -1.12958978      -0.34166712
H        1.08710511      -1.60064725       0.97139231
H        0.85604536      -2.26008649      -0.65737939
H        0.10025959       1.95804718      -0.61837017
H        0.93025096       0.98425147       0.84083143
H       -2.60160013       0.86440577       0.95691497
H       -2.43728021       0.01598142      -0.55147799
14
Frame=2 idx=010557 GeodesicLength=0.1625233812914535 rxn_smarts="[C:1]([C@@:2]1([C:5](=[O:6])[N:7]([H:13])[H:14])[C:3]([H:11])([H:12])[O:4]1)([H:8])([H:9])[H:10]>>[C:1]([C@@:2]1([C-:5]([O:6][H:12])[N:7]([H:13])[H:14])[C:3]([H:11])=[O+:4]1)([H:8])([H:9])[H:10]"
C        1.16023239      -1.37351396      -0.09079112
C        0.27542272      -0.22308146      -0.46990204
C        0.87245324       1.17318655      -0.63490878
O        0.42809421       0.29501862      -1.73017706
C       -0.73138375       0.23743368       0.50451164
O       -0.14291644       0.67831734       1.55022731
N       -2.03827092       0.33324657       0.30377556
H        2.18672478      -1.13461853      -0.37480561
H        1.12933101      -1.58586981       0.97788707
H        0.84379585      -2.26801359      -0.63194454
H        0.09911177       1.95826221      -0.61478533
H        0.93657836       0.99257709       0.85095361
H       -2.60673323       0.85544586       0.94808561
H       -2.41243999       0.06160944      -0.58812633
14
Frame=3 idx=010557 GeodesicLength=0.24407500416741962 rxn_smarts="[C:1]([C@@:2]1([C:5](=[O:6])[N:7]([H:13])[H:14])[C:3]([H:11])([H:12])[O:4]1)([H:8])([H:9])[H:10]>>[C:1]([C@@:2]1([C-:5]([O:6][H:12])[N:7]([H:13])[H:14])[C:3]([H:11])=[O+:4]1)([H:8])([H:9])[H:10]"
C        1.16669430      -1.37377247      -0.08930816
C        0.27321215      -0.22760855      -0.46018737
C        0.86478576       1.16750569      -0.64054680
O        0.39253251       0.29158690      -1.72518293
C       -0.73566910       0.21653608       0.52045451
O       -0.15389146       0.66648130       1.56603738
N       -2.03693749       0.33472263       0.29233011
H        2.18439736      -1.14071140      -0.40720546
H        1.17064426      -1.57095357       0.98293051
H        0.83206783      -2.27598720      -0.60642481
H        0.09863056       1.95944908      -0.61171207
H        0.94295607       1.00136927       0.86148805
H       -2.61233696       0.84688711       0.93862993
H       -2.38708580       0.10449512      -0.62130289
14
Frame=4 idx=010557 GeodesicLength=0.3250190397097117 rxn_smarts="[C:1]([C@@:2]1([C:5](=[O:6])[N:7]([H:13])[H:14])[C:3]([H:11])([H:12])[O:4]1)([H:8])([H:9])[H:10]>>[C:1]([C@@:2]1([C-:5]([O:6][H:12])[N:7]([H:13])[H:14])[C:3]([H:11])=[O+:4]1)([H:8])([H:9])[H:10]"
C        1.17218494      -1.37346067      -0.08802910
C        0.27106493      -0.23145916      -0.45095844
C        0.85782069       1.16195117      -0.64623053
O        0.35866295       0.28866900      -1.71957580
C       -0.74017122       0.19596319       0.53528669
O       -0.16555033       0.65369345       1.58108753
N       -2.03490498       0.33616981       0.28090176
H        2.18035753      -1.14692907      -0.43865420
H        1.20993210      -1.55531590       0.98626809
H        0.82027724      -2.28274966      -0.58038429
H        0.09943732       1.96071360      -0.60932575
H        0.94922725       1.01020851       0.87168235
H       -2.61761961       0.83776719       0.92865295
H       -2.36071882       0.14477856      -0.65072125
14
Frame=5 idx=010557 GeodesicLength=0.40625943687942906 rxn_smarts="[C:1]([C@@:2]1([C:5](=[O:6])[N:7]([H:13])[H:14])[C:3]([H:11])([H:12])[O:4]1)([H:8])([H:9])[H:10]>>[C:1]([C@@:2]1([C-:5]([O:6][H:12])[N:7]([H:13])[H:14])[C:3]([H:11])=[O+:4]1)([H:8])([H:9])[H:10]"
C        1.17728403      -1.37314658      -0.08695731
C        0.26898532      -0.23481719      -0.44229083
C        0.85132675       1.15675097      -0.65192327
O        0.32608454       0.28616489      -1.71386803
C       -0.74499276       0.17583222       0.54918320
O       -0.17775178       0.64026031       1.59600330
N       -2.03267594       0.33776746       0.26947481
H        2.17524189      -1.15393283      -0.46946424
H        1.24827228      -1.53932853       0.98831567
H        0.80891261      -2.28923468      -0.55397888
H        0.10096078       1.96258970      -0.60751512
H        0.95555428       1.01939557       0.88208370
H       -2.62311960       0.82861323       0.91835591
H       -2.33408240       0.18308545      -0.67741889
14
Frame=6 idx=010557 GeodesicLength=0.48756532474437847 rxn_smarts="[C:1]([C@@:2]1([C:5](=[O:6])[N:7]([H:13])[H:14])[C:3]([H:11])([H:12])[O:4]1)([H:8])([H:9])[H:10]>>[C:1]([C@@:2]1([C-:5]([O:6][H:12])[N:7]([H:13])[H:14])[C:3]([H:11])=[O+:4]1)([H:8])([H:9])[H:10]"
C        1.18188283      -1.37265635      -0.08602992
C        0.26696703      -0.23768219      -0.43411586
C        0.84537103       1.15178600      -0.65768624
O        0.29487167       0.28405568      -1.70798383
C       -0.75009086       0.15603938       0.56212480
O       -0.19050925       0.62604680       1.61059919
N       -2.03012622       0.33952889       0.25808816
H        2.16892883      -1.16155051      -0.49964661
H        1.28555558      -1.52278654       0.98907649
H        0.79780894      -2.29517487      -0.52697316
H        0.10335737       1.96483750      -0.60633955
H        0.96192466       1.02884786       0.89250994
H       -2.62876821       0.81886616       0.90796276
H       -2.30717340       0.21984218      -0.70158616
14
Frame=7 idx=010557 GeodesicLength=0.5691074732648572 rxn_smarts="[C:1]([C@@:2]1([C:5](=[O:6])[N:7]([H:13])[H:14])[C:3]([H:11])([H:12])[O:4]1)([H:8])([H:9])[H:10]>>[C:1]([C@@:2]1([C-:5]([O:6][H:12])[N:7]([H:13])[H:14])[C:3]([H:11])=[O+:4]1)([H:8])([H:9])[H:10]"
C        1.18609969      -1.37210017      -0.08521049
C        0.26500841      -0.24010842      -0.42643291
C        0.83992392       1.14708333      -0.66356274
O        0.26492973       0.28230933      -1.70207939
C       -0.75545937       0.13658578       0.57414855
O       -0.20376874       0.61110512       1.62497580
N       -2.02731919       0.34160993       0.24672545
H        2.16154736      -1.16990662      -0.52922288
H        1.32201498      -1.50576946       0.98868035
H        0.78705583      -2.30073972      -0.49931007
H        0.10654848       1.96754197      -0.60583344
H        0.96840177       1.03864742       0.90303781
H       -2.63474320       0.80825228       0.89769159
H       -2.28023967       0.25548924      -0.72360763
14
Frame=8 idx=010557 GeodesicLength=0.6504587867995738 rxn_smarts="[C:1]([C@@:2]1([C:5](=[O:6])[N:7]([H:13])[H:14])[C:3]([H:11])([H:12])[O:4]1)([H:8])([H:9])[H:10]>>[C:1]([C@@:2]1([C-:5]([O:6][H:12])[N:7]([H:13])[H:14])[C:3]([H:11])=[O+:4]1)([H:8])([H:9])[H:10]"
C        1.18976750      -1.37118322      -0.08450042
C        0.26307744      -0.24207373      -0.41911347
C        0.83501773       1.14245604      -0.66950713
O        0.23630973       0.28093301      -1.69588430
C       -0.76109743       0.11728639       0.58527934
O       -0.21759666       0.59512736       1.63891150
N       -2.02416572       0.34374967       0.23556381
H        2.15288709      -1.17867307      -0.55829195
H        1.35741780      -1.48796498       0.98694314
H        0.77652702      -2.30544386      -0.47086936
H        0.11066747       1.97029493      -0.60587704
H        0.97493451       1.04855808       0.91345087
H       -2.64071876       0.79715962       0.88708202
H       -2.25302773       0.28977378      -0.74318700
14
Frame=9 idx=010557 GeodesicLength=0.7319557625794681 rxn_smarts="[C:1]([C@@:2]1([C:5](=[O:6])[N:7]([H:13])[H:14])[C:3]([H:11])([H:12])[O:4]1)([H:8])([H:9])[H:10]>>[C:1]([C@@:2]1([C-:5]([O:6][H:12])[N:7]([H:13])[H:14])[C:3]([H:11])=[O+:4]1)([H:8])([H:9])[H:10]"
C        1.19316301      -1.37019319      -0.08389259
C        0.26117373      -0.24368000      -0.41220014
C        0.83046122       1.13806952      -0.67556715
O        0.20877818       0.27987410      -1.68970937
C       -0.76698686       0.09813779       0.59562320
O       -0.23184647       0.57820992       1.65271267
N       -2.02080763       0.34612174       0.22465107
H        2.14336970      -1.18791817      -0.58651638
H        1.39186952      -1.46997641       0.98409264
H        0.76668884      -2.30966951      -0.44212714
H        0.11532681       1.97337870      -0.60654045
H        0.98161280       1.05879878       0.92397812
H       -2.64666967       0.78623916       0.87628610
H       -2.22613317       0.32260757      -0.76079058
14
Frame=10 idx=010557 GeodesicLength=0.8135421629161586 rxn_smarts="[C:1]([C@@:2]1([C:5](=[O:6])[N:7]([H:13])[H:14])[C:3]([H:11])([H:12])[O:4]1)([H:8])([H:9])[H:10]>>[C:1]([C@@:2]1([C-:5]([O:6][H:12])[N:7]([H:13])[H:14])[C:3]([H:11])=[O+:4]1)([H:8])([H:9])[H:10]"
C        1.19625645      -1.36907043      -0.08334482
C        0.25929212      -0.24493656      -0.40565426
C        0.82631037       1.13382992      -0.68178884
O        0.18233353       0.27908438      -1.68354190
C       -0.77313047       0.07912943       0.60516750
O       -0.24654157       0.56032955       1.66629900
N       -2.01724276       0.34875523       0.21398539
H        2.13294706      -1.19766113      -0.61399675
H        1.42544042      -1.45161351       0.98015751
H        0.75744327      -2.31333460      -0.41287339
H        0.12063551       1.97667790      -0.60785043
H        0.98846846       1.06933838       0.93453462
H       -2.65275927       0.77491452       0.86545044
H       -2.19945312       0.35455691      -0.77654408
14
Frame=11 idx=010557 GeodesicLength=0.8951974160568924 rxn_smarts="[C:1]([C@@:2]1([C:5](=[O:6])[N:7]([H:13])[H:14])[C:3]([H:11])([H:12])[O:4]1)([H:8])([H:9])[H:10]>>[C:1]([C@@:2]1([C-:5]([O:6][H:12])[N:7]([H:13])[H:14])[C:3]([H:11])=[O+:4]1)([H:8])([H:9])[H:10]"
C        1.19905469      -1.36779061      -0.08282894
C        0.25741770      -0.24586683      -0.39943094
C        0.82254051       1.12970157      -0.68818650
O        0.15691098       0.27853615      -1.67737352
C       -0.77953023       0.06020129       0.61393673
O       -0.26168849       0.54141469       1.67965770
N       -2.01347971       0.35161249       0.20360281
H        2.12161024      -1.20787485      -0.64076447
H        1.45815972      -1.43282952       0.97516513
H        0.74882309      -2.31639843      -0.38308192
H        0.12658118       1.98013142      -0.60979949
H        0.99551666       1.08016791       0.94509187
H       -2.65896339       0.76318684       0.85452002
H       -2.17295295       0.38580786      -0.79050848
14
Frame=12 idx=010557 GeodesicLength=0.9769332606755343 rxn_smarts="[C:1]([C@@:2]1([C:5](=[O:6])[N:7]([H:13])[H:14])[C:3]([H:11])([H:12])[O:4]1)([H:8])([H:9])[H:10]>>[C:1]([C@@:2]1([C-:5]([O:6][H:12])[N:7]([H:13])[H:14])[C:3]([H:11])=[O+:4]1)([H:8])([H:9])[H:10]"
C        1.20160928      -1.36638170      -0.08233587
C        0.25554749      -0.24649653      -0.39351027
C        0.81910184       1.12568519      -0.69479416
O        0.13242930       0.27819756      -1.67125901
C       -0.78617523       0.04131991       0.62196805
O       -0.27725680       0.52142339       1.69283012
N       -2.00952803       0.35475507       0.19355338
H        2.10948798      -1.21848294      -0.66668640
H        1.48997917      -1.41378727       0.96918741
H        0.74092861      -2.31887223      -0.35289792
H        0.13308074       1.98373664      -0.61241944
H        1.00279720       1.09132817       0.95565399
H       -2.66523631       0.75122061       0.84351887
H       -2.14676524       0.41635413      -0.80280874
14
Frame=13 idx=010557 GeodesicLength=1.0586847898080722 rxn_smarts="[C:1]([C@@:2]1([C:5](=[O:6])[N:7]([H:13])[H:14])[C:3]([H:11])([H:12])[O:4]1)([H:8])([H:9])[H:10]>>[C:1]([C@@:2]1([C-:5]([O:6][H:12])[N:7]([H:13])[H:14])[C:3]([H:11])=[O+:4]1)([H:8])([H:9])[H:10]"
C        1.20387762      -1.36478139      -0.08182533
C        0.25367387      -0.24682460      -0.38785801
C        0.81606291       1.12169757      -0.70164504
O        0.10887653       0.27803100      -1.66515681
C       -0.79306824       0.02248494       0.62923066
O       -0.29326546       0.50031880       1.70571690
N       -2.00535430       0.35825125       0.18383413
H        2.09650543      -1.22951591      -0.69182861
H        1.52096029      -1.39431439       0.96220450
H        0.73363217      -2.32065886      -0.32209364
H        0.14027221       1.98739588      -0.61574314
H        1.01036159       1.10280961       0.96612438
H       -2.67175784       0.73838925       0.83252715
H       -2.12077678       0.44671685      -0.81348714
14
Frame=14 idx=010557 GeodesicLength=1.140547251625922 rxn_smarts="[C:1]([C@@:2]1([C:5](=[O:6])[N:7]([H:13])[H:14])[C:3]([H:11])([H:12])[O:4]1)([H:8])([H:9])[H:10]>>[C:1]([C@@:2]1([C-:5]([O:6][H:12])[N:7]([H:13])[H:14])[C:3]([H:11])=[O+:4]1)([H:8])([H:9])[H:10]"
C        1.20597374      -1.36306757      -0.08131330
C        0.25178484      -0.24689514      -0.38244151
C        0.81327174       1.11779424      -0.70872694
O        0.08609482       0.27802377      -1.65913406
C       -0.80022326       0.00360336       0.63581190
O       -0.30970667       0.47800073       1.71846842
N       -2.00103896       0.36204394       0.17451657
H        2.08283833      -1.24090254      -0.71611399
H        1.55110691      -1.37463870       0.95432395
H        0.72719433      -2.32186656      -0.29099386
H        0.14791595       1.99117182      -0.61972244
H        1.01821631       1.11465722       0.97661074
H       -2.67829529       0.72561361       0.82133749
H       -2.09513279       0.47646182      -0.82262297
14
Frame=15 idx=010557 GeodesicLength=1.2224418671980355 rxn_smarts="[C:1]([C@@:2]1([C:5](=[O:6])[N:7]([H:13])[H:14])[C:3]([H:11])([H:12])[O:4]1)([H:8])([H:9])[H:10]>>[C:1]([C@@:2]1([C-:5]([O:6][H:12])[N:7]([H:13])[H:14])[C:3]([H:11])=[O+:4]1)([H:8])([H:9])[H:10]"
C        1.20786689      -1.36119242      -0.08078376
C        0.24987245      -0.24670376      -0.37722198
C        0.81073290       1.11392770      -0.71607361
O        0.06404127       0.27814087      -1.65315321
C       -0.80763534      -0.01534398       0.64171490
O       -0.32658343       0.45441861       1.73102228
N       -1.99655429       0.36615344       0.16565299
H        2.06853928      -1.25251936      -0.73943206
H        1.58029363      -1.35478840       0.94558033
H        0.72159284      -2.32240857      -0.25968171
H        0.15604490       1.99498558      -0.62439231
H        1.02642477       1.12686917       0.98702514
H       -2.68482555       0.71282562       0.80997980
H       -2.06981032       0.50563551      -0.83023681
14
Frame=16 idx=010557 GeodesicLength=1.3043758884783647 rxn_smarts="[C:1]([C@@:2]1([C:5](=[O:6])[N:7]([H:13])[H:14])[C:3]([H:11])([H:12])[O:4]1)([H:8])([H:9])[H:10]>>[C:1]([C@@:2]1([C-:5]([O:6][H:12])[N:7]([H:13])[H:14])[C:3]([H:11])=[O+:4]1)([H:8])([H:9])[H:10]"
C        1.20958720      -1.35917927      -0.08022618
C        0.24793455      -0.24625886      -0.37217263
C        0.80840209       1.11009639      -0.72372363
O        0.04262872       0.27834862      -1.64724206
C       -0.81530033      -0.03436961       0.64696816
O       -0.34388761       0.42954973       1.74340337
N       -1.99191259       0.37061763       0.15729057
H        2.05374921      -1.26428108      -0.76167002
H        1.60844733      -1.33490696       0.93608456
H        0.71688289      -2.32231243      -0.22834198
H        0.16459742       1.99884236      -0.62979068
H        1.03505764       1.13949351       0.99735061
H       -2.69132423       0.70014845       0.79847606
H       -2.04486229       0.53421149      -0.83640615
