12
Frame=0 idx=004921 GeodesicLength=0.0 rxn_smarts="[O:1]=[C:2]1[C:3]([H:7])([H:8])[C:4]([H:9])([H:10])[O:5][C:6]1([H:11])[H:12]>>[O:1]=[C:2]([C:6]([O:5][C:4](=[C:3]([H:7])[H:8])[H:10])([H:11])[H:12])[H:9]"
O        0.47834169       1.71215226       1.28804580
C        0.22022241       0.67872231       0.65849055
C       -0.94321455       0.53818414      -0.40476061
C       -0.78978724      -0.91212956      -0.26283532
O        0.43250684      -1.33166359      -0.44708449
C        1.27566105      -0.22391204      -0.07196275
H       -0.71007325       0.93426407      -1.39850866
H       -1.88665705       0.92033773      -0.02629695
H       -0.26532903      -0.31073441       1.32541531
H       -1.54650619      -1.69019480      -0.21811575
H        1.63306866       0.30789171      -0.95462151
H        2.10176670      -0.62291781       0.51223442
12
Frame=1 idx=004921 GeodesicLength=0.09414353593289199 rxn_smarts="[O:1]=[C:2]1[C:3]([H:7])([H:8])[C:4]([H:9])([H:10])[O:5][C:6]1([H:11])[H:12]>>[O:1]=[C:2]([C:6]([O:5][C:4](=[C:3]([H:7])[H:8])[H:10])([H:11])[H:12])[H:9]"
O        0.50233128       1.72141298       1.28096745
C        0.23411184       0.68543435       0.66501083
C       -0.95571299       0.53210034      -0.40588300
C       -0.79475208      -0.91386367      -0.25194287
O        0.43379556      -1.32816840      -0.44510875
C        1.27746944      -0.22236142      -0.07146170
H       -0.71454179       0.93524638      -1.39401300
H       -1.90018957       0.91544984      -0.03150206
H       -0.27195536      -0.31838779       1.33078967
H       -1.54971889      -1.69410464      -0.23932189
H        1.63734268       0.30693079      -0.95457435
H        2.10181988      -0.61968876       0.51703967
12
Frame=2 idx=004921 GeodesicLength=0.18825989547831473 rxn_smarts="[O:1]=[C:2]1[C:3]([H:7])([H:8])[C:4]([H:9])([H:10])[O:5][C:6]1([H:11])[H:12]>>[O:1]=[C:2]([C:6]([O:5][C:4](=[C:3]([H:7])[H:8])[H:10])([H:11])[H:12])[H:9]"
O        0.52655053       1.73077091       1.27352956
C        0.24827432       0.69214592       0.67176747
C       -0.96843969       0.52585524      -0.40705600
C       -0.79986283      -0.91562654      -0.24091730
O        0.43494586      -1.32456674      -0.44309097
C        1.27922855      -0.22080423      -0.07088449
H       -0.71895756       0.93639271      -1.38921759
H       -1.91412561       0.91023503      -0.03707460
H       -0.27870806      -0.32623790       1.33634002
H       -1.55239103      -1.69746890      -0.26063363
H        1.64160103       0.30592329      -0.95445997
H        2.10188450      -0.61661879       0.52169750
12
Frame=3 idx=004921 GeodesicLength=0.28236086830856255 rxn_smarts="[O:1]=[C:2]1[C:3]([H:7])([H:8])[C:4]([H:9])([H:10])[O:5][C:6]1([H:11])[H:12]>>[O:1]=[C:2]([C:6]([O:5][C:4](=[C:3]([H:7])[H:8])[H:10])([H:11])[H:12])[H:9]"
O        0.55098361       1.74018585       1.26575870
C        0.26271724       0.69884335       0.67876767
C       -0.98139578       0.51946063      -0.40832535
C       -0.80512019      -0.91740167      -0.22985097
O        0.43596122      -1.32084211      -0.44107753
C        1.28093783      -0.21923555      -0.07023740
H       -0.72329640       0.93776714      -1.38411705
H       -1.92847759       0.90468167      -0.04307553
H       -0.28563123      -0.33433738       1.34202046
H       -1.55449146      -1.70028807      -0.28180060
H        1.64586087       0.30489317      -0.95426550
H        2.10195186      -0.61372702       0.52620309
12
Frame=4 idx=004921 GeodesicLength=0.37645559799485884 rxn_smarts="[O:1]=[C:2]1[C:3]([H:7])([H:8])[C:4]([H:9])([H:10])[O:5][C:6]1([H:11])[H:12]>>[O:1]=[C:2]([C:6]([O:5][C:4](=[C:3]([H:7])[H:8])[H:10])([H:11])[H:12])[H:9]"
O        0.57562025       1.74961955       1.25768001
C        0.27745256       0.70551276       0.68602503
C       -0.99458133       0.51293064      -0.40973778
C       -0.81052130      -0.91916950      -0.21883241
O        0.43684856      -1.31697703      -0.43911006
C        1.28259897      -0.21764726      -0.06952619
H       -0.72753592       0.93943577      -1.37870027
H       -1.94325727       0.89877812      -0.04957021
H       -0.29276603      -0.34273309       1.34778379
H       -1.55601544      -1.70258736      -0.30258318
H        1.65013884       0.30386565      -0.95397821
H        2.10201812      -0.61102824       0.53054949
12
Frame=5 idx=004921 GeodesicLength=0.47054635159201535 rxn_smarts="[O:1]=[C:2]1[C:3]([H:7])([H:8])[C:4]([H:9])([H:10])[O:5][C:6]1([H:11])[H:12]>>[O:1]=[C:2]([C:6]([O:5][C:4](=[C:3]([H:7])[H:8])[H:10])([H:11])[H:12])[H:9]"
O        0.60044946       1.75903583       1.24932457
C        0.29249536       0.71214262       0.69355270
C       -1.00799686       0.50627880      -0.41134250
C       -0.81606289      -0.92090857      -0.20794464
O        0.43761375      -1.31295426      -0.43722726
C        1.28421488      -0.21603121      -0.06875653
H       -0.73165439       0.94146338      -1.37295597
H       -1.95847542       0.89251177      -0.05662237
H       -0.30014762      -0.35146366       1.35358545
H       -1.55696861      -1.70440334      -0.32275382
H        1.65445113       0.30286548      -0.95358727
H        2.10208122      -0.60853684       0.53472765
12
Frame=6 idx=004921 GeodesicLength=0.564644616162979 rxn_smarts="[O:1]=[C:2]1[C:3]([H:7])([H:8])[C:4]([H:9])([H:10])[O:5][C:6]1([H:11])[H:12]>>[O:1]=[C:2]([C:6]([O:5][C:4](=[C:3]([H:7])[H:8])[H:10])([H:11])[H:12])[H:9]"
O        0.62547708       1.76841018       1.24071517
C        0.30786569       0.71872857       0.70136588
C       -1.02164360       0.49951869      -0.41318240
C       -0.82173796      -0.92259716      -0.19725412
O        0.43826702      -1.30875651      -0.43545525
C        1.28578988      -0.21437569      -0.06793093
H       -0.73563791       0.94390700      -1.36686513
H       -1.97414167       0.88587217      -0.06429138
H       -0.30780932      -0.36056620       1.35938582
H       -1.55738551      -1.70579668      -0.34213331
H        1.65881192       0.30191456      -0.95308458
H        2.10214438      -0.60625893       0.53873022
12
Frame=7 idx=004921 GeodesicLength=0.6587524615562406 rxn_smarts="[O:1]=[C:2]1[C:3]([H:7])([H:8])[C:4]([H:9])([H:10])[O:5][C:6]1([H:11])[H:12]>>[O:1]=[C:2]([C:6]([O:5][C:4](=[C:3]([H:7])[H:8])[H:10])([H:11])[H:12])[H:9]"
O        0.65070561       1.77771994       1.23188101
C        0.32359006       0.72526960       0.70947766
C       -1.03552317       0.49266093      -0.41529963
C       -0.82754078      -0.92421419      -0.18681143
O        0.43881473      -1.30436915      -0.43381149
C        1.28732912      -0.21266988      -0.06705308
H       -0.73947835       0.94681703      -1.36040540
H       -1.99026480       0.87884643      -0.07263626
H       -0.31577463      -0.37006248       1.36515550
H       -1.55730338      -1.70682789      -0.36057696
H        1.66323219       0.30102968      -0.95246649
H        2.10221339      -0.60420004       0.54254658
12
Frame=8 idx=004921 GeodesicLength=0.7528743769221148 rxn_smarts="[O:1]=[C:2]1[C:3]([H:7])([H:8])[C:4]([H:9])([H:10])[O:5][C:6]1([H:11])[H:12]>>[O:1]=[C:2]([C:6]([O:5][C:4](=[C:3]([H:7])[H:8])[H:10])([H:11])[H:12])[H:9]"
O        0.67615046       1.78695102       1.22284059
C        0.33970011       0.73176879       0.71790508
C       -1.04963862       0.48571380      -0.41773020
C       -0.83346486      -0.92573906      -0.17664799
O        0.43926459      -1.29977822      -0.43230148
C        1.28883819      -0.21090080      -0.06612319
H       -0.74317507       0.95023545      -1.35354658
H       -2.00685345       0.87142064      -0.08171320
H       -0.32406174      -0.37996784       1.37087286
H       -1.55677728      -1.70756877      -0.37799121
H        1.66771919       0.30022512      -0.95173169
H        2.10229847      -0.60236013       0.54616699
12
Frame=9 idx=004921 GeodesicLength=0.8469894717970232 rxn_smarts="[O:1]=[C:2]1[C:3]([H:7])([H:8])[C:4]([H:9])([H:10])[O:5][C:6]1([H:11])[H:12]>>[O:1]=[C:2]([C:6]([O:5][C:4](=[C:3]([H:7])[H:8])[H:10])([H:11])[H:12])[H:9]"
O        0.70182280       1.79609715       1.21361101
C        0.35623021       0.73823551       0.72666024
C       -1.06399490       0.47868210      -0.42050118
C       -0.83950470      -0.92715331      -0.16677619
O        0.43961957      -1.29497225      -0.43091759
C        1.29032214      -0.20905810      -0.06514068
H       -0.74672619       0.95419268      -1.34625959
H       -2.02391553       0.86357781      -0.09156286
H       -0.33267624      -0.39027906       1.37653137
H       -1.55586410      -1.70808932      -0.39434028
H        1.67227434       0.29950525      -0.95088312
H        2.10241261      -0.60073846       0.54957887
12
Frame=10 idx=004921 GeodesicLength=0.9411215820079405 rxn_smarts="[O:1]=[C:2]1[C:3]([H:7])([H:8])[C:4]([H:9])([H:10])[O:5][C:6]1([H:11])[H:12]>>[O:1]=[C:2]([C:6]([O:5][C:4](=[C:3]([H:7])[H:8])[H:10])([H:11])[H:12])[H:9]"
O        0.72774884       1.80514666       1.20421419
C        0.37322167       0.74467572       0.73575964
C       -1.07859816       0.47156543      -0.42365371
C       -0.84565969      -0.92843906      -0.15720158
O        0.43988307      -1.28993996      -0.42965420
C        1.29178507      -0.20712858      -0.06410522
H       -0.75014782       0.95871964      -1.33850096
H       -2.04146026       0.85530071      -0.10224989
H       -0.34163581      -0.40100432       1.38211948
H       -1.55460322      -1.70844285      -0.40957210
H        1.67689866       0.29887939      -0.94992496
H        2.10256763      -0.59933278       0.55276930
12
Frame=11 idx=004921 GeodesicLength=1.0352655578356382 rxn_smarts="[O:1]=[C:2]1[C:3]([H:7])([H:8])[C:4]([H:9])([H:10])[O:5][C:6]1([H:11])[H:12]>>[O:1]=[C:2]([C:6]([O:5][C:4](=[C:3]([H:7])[H:8])[H:10])([H:11])[H:12])[H:9]"
O        0.75395185       1.81409415       1.19466788
C        0.39071748       0.75110024       0.74521594
C       -1.09345576       0.46436023      -0.42722186
C       -0.85192875      -0.92957861      -0.14791820
O        0.44005540      -1.28467163      -0.42849319
C        1.29323093      -0.20510134      -0.06301484
H       -0.75345536       0.96384114      -1.33022272
H       -2.05949486       0.84656692      -0.11382789
H       -0.35094653      -0.41213474       1.38763710
H       -1.55304143      -1.70868514      -0.42368143
H        1.68158841       0.29834852      -0.94886419
H        2.10277862      -0.59813974       0.55572339
12
Frame=12 idx=004921 GeodesicLength=1.1294197311399752 rxn_smarts="[O:1]=[C:2]1[C:3]([H:7])([H:8])[C:4]([H:9])([H:10])[O:5][C:6]1([H:11])[H:12]>>[O:1]=[C:2]([C:6]([O:5][C:4](=[C:3]([H:7])[H:8])[H:10])([H:11])[H:12])[H:9]"
O        0.78045943       1.82293458       1.18498972
C        0.40876664       0.75752039       0.75504293
C       -1.10857482       0.45706089      -0.43123827
C       -0.85831240      -0.93055421      -0.13891051
O        0.44013575      -1.27915707      -0.42741254
C        1.29466347      -0.20296443      -0.06186732
H       -0.75667136       0.96958153      -1.32136814
H       -2.07802690       0.83735116      -0.12636275
H       -0.36061401      -0.42365882       1.39308897
H       -1.55122559      -1.70887106      -0.43667623
H        1.68633729       0.29791304      -0.94770930
H        2.10306250      -0.59715601       0.55842344
12
Frame=13 idx=004921 GeodesicLength=1.2235722458781773 rxn_smarts="[O:1]=[C:2]1[C:3]([H:7])([H:8])[C:4]([H:9])([H:10])[O:5][C:6]1([H:11])[H:12]>>[O:1]=[C:2]([C:6]([O:5][C:4](=[C:3]([H:7])[H:8])[H:10])([H:11])[H:12])[H:9]"
O        0.80729672       1.83166340       1.17520240
C        0.42741618       0.76394838       0.76524694
C       -1.12396237       0.44965965      -0.43573985
C       -0.86481432      -0.93135121      -0.13016329
O        0.44012082      -1.27338843      -0.42638984
C        1.29608453      -0.20070729      -0.06066228
H       -0.75982143       0.97595848      -1.31188116
H       -2.09706055       0.82762993      -0.13991195
H       -0.37064534      -0.43556669       1.39847882
H       -1.54918420      -1.70903800      -0.44856368
H        1.69113698       0.29757053      -0.94647057
H        2.10343297      -0.59637875       0.56085447
12
Frame=14 idx=004921 GeodesicLength=1.317723048152776 rxn_smarts="[O:1]=[C:2]1[C:3]([H:7])([H:8])[C:4]([H:9])([H:10])[O:5][C:6]1([H:11])[H:12]>>[O:1]=[C:2]([C:6]([O:5][C:4](=[C:3]([H:7])[H:8])[H:10])([H:11])[H:12])[H:9]"
O        0.83450390       1.84027717       1.16532053
C        0.44672189       0.77039611       0.77584074
C       -1.13962629       0.44214491      -0.44076740
C       -0.87143813      -0.93195011      -0.12165293
O        0.44000693      -1.26735554      -0.42539416
C        1.29749616      -0.19831758      -0.05939485
H       -0.76293902       0.98299787      -1.30168295
H       -2.11660275       0.81736693      -0.15455239
H       -0.38104866      -0.44784034       1.40381728
H       -1.54695883      -1.70923484      -0.45937090
H        1.69597634       0.29731876      -0.94515862
H        2.10390844      -0.59580334       0.56299565
12
Frame=15 idx=004921 GeodesicLength=1.4118602358588224 rxn_smarts="[O:1]=[C:2]1[C:3]([H:7])([H:8])[C:4]([H:9])([H:10])[O:5][C:6]1([H:11])[H:12]>>[O:1]=[C:2]([C:6]([O:5][C:4](=[C:3]([H:7])[H:8])[H:10])([H:11])[H:12])[H:9]"
O        0.86211221       1.84876654       1.15537116
C        0.46674156       0.77687286       0.78683187
C       -1.15557310       0.43450263      -0.44636618
C       -0.87819042      -0.93233273      -0.11335787
O        0.43978795      -1.26104949      -0.42439709
C        1.29889954      -0.19578408      -0.05806368
H       -0.76606323       0.99072435      -1.29069223
H       -2.13665485       0.80652815      -0.17036959
H       -0.39183271      -0.46046003       1.40911384
H       -1.54457463      -1.70949601      -0.46910709
H        1.70084196       0.29715492      -0.94378611
H        2.10450571      -0.59542710       0.56482296
12
Frame=16 idx=004921 GeodesicLength=1.505972046429332 rxn_smarts="[O:1]=[C:2]1[C:3]([H:7])([H:8])[C:4]([H:9])([H:10])[O:5][C:6]1([H:11])[H:12]>>[O:1]=[C:2]([C:6]([O:5][C:4](=[C:3]([H:7])[H:8])[H:10])([H:11])[H:12])[H:9]"
O        0.89016243       1.85712600       1.14537407
C        0.48753645       0.78338824       0.79822842
C       -1.17180822       0.42671637      -0.45258777
C       -0.88507901      -0.93247852      -0.10525330
O        0.43945704      -1.25446074      -0.42336456
C        1.30029518      -0.19309493      -0.05666548
H       -0.76923994       0.99916499      -1.27880907
H       -2.15721688       0.79507218      -0.18745424
H       -0.40300884      -0.47340323       1.41437977
H       -1.54205921      -1.70985864      -0.47779382
H        1.70571816       0.29707532      -0.94236592
H        2.10524284      -0.59524705       0.56631190
