13
Frame=0 idx=001056 GeodesicLength=0.0 rxn_smarts="[C:1]([C@@:2]([O:3][H:11])([C:4](=[O:5])[N:6]([H:12])[H:13])[H:10])([H:7])([H:8])[H:9]>>[C:1](/[C:2]([O:3][H:11])=[C:4](\[O:5][H:10])[N:6]([H:12])[H:13])([H:7])([H:8])[H:9]"
C       -1.55160422       0.12007899      -0.26720509
C       -0.31043725      -0.27516735       0.50444168
O       -0.07807163      -1.66743831       0.47941077
C        0.86490362       0.51462744       0.22841122
O        0.76563474       1.63301798       0.86086310
N        1.95118572       0.17095344      -0.44440083
H       -1.63933901       1.20212599      -0.36549803
H       -2.44607719      -0.23982141       0.24508171
H       -1.55064809      -0.30921674      -1.28281781
H       -0.11593288       0.98653238       1.39187311
H       -0.67334627      -2.07285760      -0.15646912
H        1.97282068      -0.73878666      -0.87122539
H        2.81091178       0.67595182      -0.32246534
13
Frame=1 idx=001056 GeodesicLength=0.04691086206528378 rxn_smarts="[C:1]([C@@:2]([O:3][H:11])([C:4](=[O:5])[N:6]([H:12])[H:13])[H:10])([H:7])([H:8])[H:9]>>[C:1](/[C:2]([O:3][H:11])=[C:4](\[O:5][H:10])[N:6]([H:12])[H:13])([H:7])([H:8])[H:9]"
C       -1.56377206       0.12232877      -0.25929136
C       -0.30833018      -0.26976171       0.48943226
O       -0.07159836      -1.66071966       0.46688456
C        0.85865404       0.52649662       0.19791057
O        0.76727441       1.63895114       0.84238595
N        1.95980283       0.16321658      -0.44387126
H       -1.65870159       1.20477613      -0.34704307
H       -2.44748950      -0.24690824       0.26499460
H       -1.57674864      -0.29957570      -1.27736363
H       -0.12043741       0.98734620       1.38515150
H       -0.64977961      -2.06799592      -0.18334083
H        1.99262089      -0.76388136      -0.83092385
H        2.81850519       0.66572713      -0.30492543
13
Frame=2 idx=001056 GeodesicLength=0.09337563294603493 rxn_smarts="[C:1]([C@@:2]([O:3][H:11])([C:4](=[O:5])[N:6]([H:12])[H:13])[H:10])([H:7])([H:8])[H:9]>>[C:1](/[C:2]([O:3][H:11])=[C:4](\[O:5][H:10])[N:6]([H:12])[H:13])([H:7])([H:8])[H:9]"
C       -1.57500503       0.12445094      -0.25171607
C       -0.30620819      -0.26456433       0.47461043
O       -0.06560748      -1.65423849       0.45476709
C        0.85299071       0.53734955       0.16836861
O        0.76905103       1.64422937       0.82390330
N        1.96779498       0.15528308      -0.44278030
H       -1.67625722       1.20713098      -0.32941717
H       -2.44818043      -0.25340260       0.28403811
H       -1.60162026      -0.29052557      -1.27175435
H       -0.12481796       0.98755090       1.37882417
H       -0.62674823      -2.06293127      -0.20923158
H        2.00979092      -0.78664203      -0.79119872
H        2.82481715       0.65630948      -0.28841352
13
Frame=3 idx=001056 GeodesicLength=0.1395968794013248 rxn_smarts="[C:1]([C@@:2]([O:3][H:11])([C:4](=[O:5])[N:6]([H:12])[H:13])[H:10])([H:7])([H:8])[H:9]>>[C:1](/[C:2]([O:3][H:11])=[C:4](\[O:5][H:10])[N:6]([H:12])[H:13])([H:7])([H:8])[H:9]"
C       -1.58534528       0.12645965      -0.24449349
C       -0.30407788      -0.25956402       0.46007883
O       -0.05997851      -1.64808514       0.44311540
C        0.84788649       0.54732523       0.13985181
O        0.77089132       1.64911288       0.80550733
N        1.97516577       0.14727722      -0.44125999
H       -1.69213295       1.20931767      -0.31267823
H       -2.44819430      -0.25936214       0.30228024
H       -1.62527918      -0.28208783      -1.26611091
H       -0.12916624       0.98732888       1.37299829
H       -0.60419651      -2.05790883      -0.23405646
H        2.02433351      -0.80720664      -0.75272177
H        2.83009375       0.64739307      -0.27251104
13
Frame=4 idx=001056 GeodesicLength=0.1856509219237224 rxn_smarts="[C:1]([C@@:2]([O:3][H:11])([C:4](=[O:5])[N:6]([H:12])[H:13])[H:10])([H:7])([H:8])[H:9]>>[C:1](/[C:2]([O:3][H:11])=[C:4](\[O:5][H:10])[N:6]([H:12])[H:13])([H:7])([H:8])[H:9]"
C       -1.59494590       0.12843378      -0.23754462
C       -0.30200460      -0.25479199       0.44574616
O       -0.05486601      -1.64225496       0.43169690
C        0.84328912       0.55638347       0.11226985
O        0.77280737       1.65348262       0.78721798
N        1.98192502       0.13917014      -0.43950519
H       -1.70653858       1.21140930      -0.29652511
H       -2.44766803      -0.26481506       0.31978870
H       -1.64794713      -0.27397301      -1.26041601
H       -0.13344449       0.98652883       1.36766646
H       -0.58208291      -2.05279690      -0.25829420
H        2.03723797      -0.82631561      -0.71387629
H        2.83423817       0.63953938      -0.25822463
13
Frame=5 idx=001056 GeodesicLength=0.23155798868458696 rxn_smarts="[C:1]([C@@:2]([O:3][H:11])([C:4](=[O:5])[N:6]([H:12])[H:13])[H:10])([H:7])([H:8])[H:9]>>[C:1](/[C:2]([O:3][H:11])=[C:4](\[O:5][H:10])[N:6]([H:12])[H:13])([H:7])([H:8])[H:9]"
C       -1.60380208       0.13037188      -0.23091626
C       -0.29998883      -0.25023181       0.43174112
O       -0.05013366      -1.63672863       0.42065764
C        0.83919780       0.56457789       0.08574367
O        0.77478806       1.65739118       0.76920472
N        1.98805297       0.13103309      -0.43758619
H       -1.71952214       1.21342533      -0.28108386
H       -2.44666593      -0.26976858       0.33648445
H       -1.66949325      -0.26622408      -1.25474547
H       -0.13779242       0.98525325       1.36289991
H       -0.56034416      -2.04769420      -0.28169347
H        2.04829220      -0.84385222      -0.67544563
H        2.83741143       0.63244690      -0.24526064
13
Frame=6 idx=001056 GeodesicLength=0.2773952008617554 rxn_smarts="[C:1]([C@@:2]([O:3][H:11])([C:4](=[O:5])[N:6]([H:12])[H:13])[H:10])([H:7])([H:8])[H:9]>>[C:1](/[C:2]([O:3][H:11])=[C:4](\[O:5][H:10])[N:6]([H:12])[H:13])([H:7])([H:8])[H:9]"
C       -1.61206019       0.13230598      -0.22452181
C       -0.29806359      -0.24588567       0.41794952
O       -0.04585177      -1.63149390       0.40977029
C        0.83552023       0.57197173       0.06004282
O        0.77682092       1.66084095       0.75135056
N        1.99364987       0.12278681      -0.43554315
H       -1.73130569       1.21540105      -0.26611600
H       -2.44526704      -0.27430030       0.35252498
H       -1.69018786      -0.25867038      -1.24905903
H       -0.14213988       0.98342543       1.35863143
H       -0.53894175      -2.04252228      -0.30461022
H        2.05809519      -0.86012623      -0.63643791
H        2.83973157       0.62626681      -0.23398150
13
Frame=7 idx=001056 GeodesicLength=0.32315015357157556 rxn_smarts="[C:1]([C@@:2]([O:3][H:11])([C:4](=[O:5])[N:6]([H:12])[H:13])[H:10])([H:7])([H:8])[H:9]>>[C:1](/[C:2]([O:3][H:11])=[C:4](\[O:5][H:10])[N:6]([H:12])[H:13])([H:7])([H:8])[H:9]"
C       -1.61971857       0.13420863      -0.21838438
C       -0.29621400      -0.24171121       0.40445064
O       -0.04188009      -1.62649598       0.39916514
C        0.83223339       0.57866909       0.03519177
O        0.77889218       1.66392567       0.73371866
N        1.99872479       0.11452143      -0.43342838
H       -1.74194928       1.21731691      -0.25171784
H       -2.44349871      -0.27845862       0.36787988
H       -1.70994832      -0.25139085      -1.24338323
H       -0.14657570       0.98116079       1.35486970
H       -0.51782634      -2.03735498      -0.32679308
H        2.06637087      -0.87496821      -0.59777088
H        2.84138978       0.62057733      -0.22379802
13
Frame=8 idx=001056 GeodesicLength=0.36882105047916613 rxn_smarts="[C:1]([C@@:2]([O:3][H:11])([C:4](=[O:5])[N:6]([H:12])[H:13])[H:10])([H:7])([H:8])[H:9]>>[C:1](/[C:2]([O:3][H:11])=[C:4](\[O:5][H:10])[N:6]([H:12])[H:13])([H:7])([H:8])[H:9]"
C       -1.62680678       0.13606901      -0.21251163
C       -0.29443229      -0.23767583       0.39128328
O       -0.03812838      -1.62169436       0.38891992
C        0.82929602       0.58476005       0.01115650
O        0.78100642       1.66670965       0.71635789
N        2.00330441       0.10630029      -0.43130038
H       -1.75154410       1.21917239      -0.23792228
H       -2.44140159      -0.28228451       0.38254941
H       -1.72876318      -0.24442013      -1.23774887
H       -0.15114511       0.97853262       1.35162192
H       -0.49696301      -2.03224878      -0.34810358
H        2.07304341      -0.88835519      -0.55997431
H        2.84253419       0.61513480      -0.21432785
13
Frame=9 idx=001056 GeodesicLength=0.41444060363579166 rxn_smarts="[C:1]([C@@:2]([O:3][H:11])([C:4](=[O:5])[N:6]([H:12])[H:13])[H:10])([H:7])([H:8])[H:9]>>[C:1](/[C:2]([O:3][H:11])=[C:4](\[O:5][H:10])[N:6]([H:12])[H:13])([H:7])([H:8])[H:9]"
C       -1.63341750       0.13789633      -0.20685540
C       -0.29270961      -0.23375298       0.37837337
O       -0.03458055      -1.61704146       0.37892403
C        0.82667043       0.59031210      -0.01221593
O        0.78314936       1.66921772       0.69916451
N        2.00745531       0.09807588      -0.42913516
H       -1.76024814       1.22096519      -0.22461411
H       -2.43901703      -0.28581798       0.39664766
H       -1.74681637      -0.23769620      -1.23212301
H       -0.15580397       0.97551823       1.34882880
H       -0.47627399      -2.02713358      -0.36871000
H        2.07837898      -0.90044028      -0.52274102
H        2.84321307       0.60989704      -0.20554374
13
Frame=10 idx=001056 GeodesicLength=0.46000952890234553 rxn_smarts="[C:1]([C@@:2]([O:3][H:11])([C:4](=[O:5])[N:6]([H:12])[H:13])[H:10])([H:7])([H:8])[H:9]>>[C:1](/[C:2]([O:3][H:11])=[C:4](\[O:5][H:10])[N:6]([H:12])[H:13])([H:7])([H:8])[H:9]"
C       -1.63954123       0.13969571      -0.20143135
C       -0.29105291      -0.22993782       0.36576113
O       -0.03119292      -1.61253757       0.36926954
C        0.82431289       0.59538182      -0.03492674
O        0.78531670       1.67148830       0.68220888
N        2.01118941       0.08990975      -0.42698429
H       -1.76807660       1.22272312      -0.21182873
H       -2.43635968      -0.28908779       0.41014166
H       -1.76403056      -0.23121193      -1.22654261
H       -0.16061087       0.97214506       1.34651822
H       -0.45578550      -2.02210464      -0.38845602
H        2.08233238      -0.91124845      -0.48648335
H        2.84349890       0.60478443      -0.19724634
13
Frame=11 idx=001056 GeodesicLength=0.5055631315365453 rxn_smarts="[C:1]([C@@:2]([O:3][H:11])([C:4](=[O:5])[N:6]([H:12])[H:13])[H:10])([H:7])([H:8])[H:9]>>[C:1](/[C:2]([O:3][H:11])=[C:4](\[O:5][H:10])[N:6]([H:12])[H:13])([H:7])([H:8])[H:9]"
C       -1.64525919       0.14146991      -0.19619851
C       -0.28945373      -0.22620432       0.35339098
O       -0.02795854      -1.60814285       0.35986913
C        0.82220935       0.60001696      -0.05709193
O        0.78750289       1.67355215       0.66539231
N        2.01456872       0.08176453      -0.42481964
H       -1.77516078       1.22443679      -0.19947464
H       -2.43347553      -0.29212463       0.42312869
H       -1.78056026      -0.22493324      -1.22098215
H       -0.16552994       0.96841001       1.34464529
H       -0.43542999      -2.01710081      -0.40748789
H        2.08510583      -0.92090281      -0.45098658
H        2.84344117       0.59975832      -0.18938506
13
Frame=12 idx=001056 GeodesicLength=0.5511267239826678 rxn_smarts="[C:1]([C@@:2]([O:3][H:11])([C:4](=[O:5])[N:6]([H:12])[H:13])[H:10])([H:7])([H:8])[H:9]>>[C:1](/[C:2]([O:3][H:11])=[C:4](\[O:5][H:10])[N:6]([H:12])[H:13])([H:7])([H:8])[H:9]"
C       -1.65062593       0.14323514      -0.19111529
C       -0.28791076      -0.22255333       0.34121195
O       -0.02489360      -1.60386810       0.35063208
C        0.82033273       0.60422990      -0.07882953
O        0.78968932       1.67543551       0.64860310
N        2.01763258       0.07359955      -0.42261244
H       -1.78159274       1.22613132      -0.18744471
H       -2.43037468      -0.29495466       0.43569617
H       -1.79652682      -0.21879383      -1.21542462
H       -0.17051188       0.96429536       1.34317001
H       -0.41514648      -2.01209715      -0.42597260
H        2.08686354      -0.92952207      -0.41592062
H        2.84306473       0.59486236      -0.18199350
13
Frame=13 idx=001056 GeodesicLength=0.5967971200989132 rxn_smarts="[C:1]([C@@:2]([O:3][H:11])([C:4](=[O:5])[N:6]([H:12])[H:13])[H:10])([H:7])([H:8])[H:9]>>[C:1](/[C:2]([O:3][H:11])=[C:4](\[O:5][H:10])[N:6]([H:12])[H:13])([H:7])([H:8])[H:9]"
C       -1.65569307       0.14502028      -0.18614967
C       -0.28642442      -0.21900070       0.32919101
O       -0.02200964      -1.59978643       0.34148208
C        0.81866048       0.60802813      -0.10026355
O        0.79185299       1.67721008       0.63175997
N        2.02042903       0.06537098      -0.42033633
H       -1.78745359       1.22788182      -0.17565935
H       -2.42707454      -0.29758470       0.44795317
H       -1.81204280      -0.21273717      -1.20989872
H       -0.17552525       0.95979979       1.34209877
H       -0.39487958      -2.00715727      -0.44406107
H        2.08775828      -0.93718401      -0.38101339
H        2.84240210       0.59013923      -0.17510293
13
Frame=14 idx=001056 GeodesicLength=0.6424275217279781 rxn_smarts="[C:1]([C@@:2]([O:3][H:11])([C:4](=[O:5])[N:6]([H:12])[H:13])[H:10])([H:7])([H:8])[H:9]>>[C:1](/[C:2]([O:3][H:11])=[C:4](\[O:5][H:10])[N:6]([H:12])[H:13])([H:7])([H:8])[H:9]"
C       -1.66050171       0.14678025      -0.18123883
C       -0.28500166      -0.21549601       0.31725504
O       -0.01933643      -1.59569600       0.33230895
C        0.81716906       0.61141500      -0.12143393
O        0.79399275       1.67874728       0.61466647
N        2.02298060       0.05704519      -0.41789270
H       -1.79280367       1.22949933      -0.16400436
H       -2.42358415      -0.30008865       0.45988534
H       -1.82720580      -0.20670254      -1.20420842
H       -0.18053761       0.95488662       1.34125843
H       -0.37458426      -2.00195385      -0.46187752
H        2.08793163      -0.94392825      -0.34603230
H        2.84148124       0.58549163      -0.16868617
13
Frame=15 idx=001056 GeodesicLength=0.6881511876214133 rxn_smarts="[C:1]([C@@:2]([O:3][H:11])([C:4](=[O:5])[N:6]([H:12])[H:13])[H:10])([H:7])([H:8])[H:9]>>[C:1](/[C:2]([O:3][H:11])=[C:4](\[O:5][H:10])[N:6]([H:12])[H:13])([H:7])([H:8])[H:9]"
C       -1.66502023       0.14855053      -0.17645153
C       -0.28361909      -0.21205735       0.30549835
O       -0.01676738      -1.59175628       0.32328973
C        0.81586184       0.61446120      -0.14232805
O        0.79611477       1.68023197       0.59753445
N        2.02527778       0.04871378      -0.41540454
H       -1.79762667       1.23116785      -0.15262195
H       -2.41991122      -0.30242211       0.47150692
H       -1.84189904      -0.20078316      -1.19856397
H       -0.18561417       0.94962549       1.34082247
H       -0.35429388      -1.99685793      -0.47915440
H        2.08716491      -0.94973043      -0.31170292
H        2.84033238       0.58085643      -0.16242455
13
Frame=16 idx=001056 GeodesicLength=0.7338924063899975 rxn_smarts="[C:1]([C@@:2]([O:3][H:11])([C:4](=[O:5])[N:6]([H:12])[H:13])[H:10])([H:7])([H:8])[H:9]>>[C:1](/[C:2]([O:3][H:11])=[C:4](\[O:5][H:10])[N:6]([H:12])[H:13])([H:7])([H:8])[H:9]"
C       -1.66923955       0.15031337      -0.17180784
C       -0.28227404      -0.20864462       0.29394369
O       -0.01426191      -1.58785195       0.31452680
C        0.81472081       0.61721118      -0.16289661
O        0.79823443       1.68161179       0.58042624
N        2.02731808       0.04043640      -0.41289407
H       -1.80193012       1.23281614      -0.14155866
H       -2.41607925      -0.30459910       0.48273785
H       -1.85605585      -0.19499697      -1.19294109
H       -0.19081420       0.94400891       1.34077329
H       -0.33401626      -1.99180958      -0.49570893
H        2.08542815      -0.95463081      -0.27845108
H        2.83896970       0.57613523      -0.15614957
