19
Frame=0 idx=006365 GeodesicLength=0.0 rxn_smarts="[C:1]([C:2]([C@@:3]([O:4][H:14])([C:5]([C:6]([O:7][H:19])([H:17])[H:18])([H:15])[H:16])[H:13])([H:11])[H:12])([H:8])([H:9])[H:10]>>[C:1]([C:2]([C@@:3]([O:4][H:14])([C:5](=[C:6]([H:17])[H:18])[H:15])[H:13])([H:11])[H:12])([H:8])([H:9])[H:10].[O:7]([H:16])[H:19]"
C        2.69989119      -0.45226552       0.50719034
C        1.51544654       0.14041531      -0.24078750
C        0.20875649      -0.60572803       0.00937408
O       -0.14067484      -0.61606219       1.38597328
C       -0.91855673      -0.03772607      -0.83290429
C       -2.25727967      -0.27250242      -0.46273902
O       -2.42972802       1.42993230       0.35609670
H        3.60793889       0.12720582       0.33201529
H        2.50962650      -0.47159205       1.58096613
H        2.89255677      -1.47938572       0.18728018
H        1.71094456       0.14026593      -1.31829680
H        1.36915207       1.18903590       0.04336448
H        0.36863804      -1.66516546      -0.22692809
H       -0.42648812       0.26952112       1.63295815
H       -0.71431364       0.10147315      -1.89061172
H       -1.38548422       1.16798862      -0.30002079
H       -2.49297164      -0.82962241       0.43495015
H       -3.05135994      -0.19678679      -1.19541088
H       -3.06609416       2.06099852      -0.00246963
19
Frame=1 idx=006365 GeodesicLength=0.05990355457965372 rxn_smarts="[C:1]([C:2]([C@@:3]([O:4][H:14])([C:5]([C:6]([O:7][H:19])([H:17])[H:18])([H:15])[H:16])[H:13])([H:11])[H:12])([H:8])([H:9])[H:10]>>[C:1]([C:2]([C@@:3]([O:4][H:14])([C:5](=[C:6]([H:17])[H:18])[H:15])[H:13])([H:11])[H:12])([H:8])([H:9])[H:10].[O:7]([H:16])[H:19]"
C        2.69738357      -0.44837374       0.51071641
C        1.51518453       0.13774773      -0.24601069
C        0.20681153      -0.60385837       0.00962435
O       -0.13841670      -0.60154730       1.38649288
C       -0.91714481      -0.04088660      -0.84091850
C       -2.25791145      -0.27297547      -0.47347201
O       -2.41434319       1.42250860       0.37885209
H        3.60705697       0.12651000       0.32898460
H        2.50596965      -0.45292274       1.58442068
H        2.88726536      -1.48019748       0.20459325
H        1.71331102       0.12581013      -1.32294025
H        1.36941005       1.18922323       0.02763319
H        0.36386655      -1.66521492      -0.22089578
H       -0.44965870       0.27819091       1.62375004
H       -0.70854698       0.07980559      -1.90013837
H       -1.37505580       1.18235934      -0.31103987
H       -2.49589270      -0.84802016       0.41254237
H       -3.04779854      -0.19032620      -1.21041790
H       -3.06149036       2.06216744       0.05822350
19
Frame=2 idx=006365 GeodesicLength=0.11977345938341921 rxn_smarts="[C:1]([C:2]([C@@:3]([O:4][H:14])([C:5]([C:6]([O:7][H:19])([H:17])[H:18])([H:15])[H:16])[H:13])([H:11])[H:12])([H:8])([H:9])[H:10]>>[C:1]([C:2]([C@@:3]([O:4][H:14])([C:5](=[C:6]([H:17])[H:18])[H:15])[H:13])([H:11])[H:12])([H:8])([H:9])[H:10].[O:7]([H:16])[H:19]"
C        2.69484714      -0.44452758       0.51403784
C        1.51485873       0.13519843      -0.25110012
C        0.20476684      -0.60177230       0.00993105
O       -0.13609790      -0.58711955       1.38699124
C       -0.91585464      -0.04358602      -0.84858865
C       -2.25862148      -0.27341750      -0.48388287
O       -2.39938926       1.41528044       0.40029052
H        3.60617412       0.12563870       0.32584505
H        2.50243076      -0.43452105       1.58749527
H        2.88178754      -1.48081832       0.22151228
H        1.71548234       0.11170812      -1.32734429
H        1.36973233       1.18937401       0.01227972
H        0.35889833      -1.66497153      -0.21504593
H       -0.47254374       0.28584608       1.61500742
H       -0.70299218       0.05847522      -1.90902077
H       -1.36469818       1.19703640      -0.32111159
H       -2.49880624      -0.86547221       0.39057599
H       -3.04409265      -0.18476845      -1.22534390
H       -3.05588187       2.06241711       0.11747175
19
Frame=3 idx=006365 GeodesicLength=0.17963109209567987 rxn_smarts="[C:1]([C:2]([C@@:3]([O:4][H:14])([C:5]([C:6]([O:7][H:19])([H:17])[H:18])([H:15])[H:16])[H:13])([H:11])[H:12])([H:8])([H:9])[H:10]>>[C:1]([C:2]([C@@:3]([O:4][H:14])([C:5](=[C:6]([H:17])[H:18])[H:15])[H:13])([H:11])[H:12])([H:8])([H:9])[H:10].[O:7]([H:16])[H:19]"
C        2.69228854      -0.44073158       0.51717055
C        1.51448213       0.13274932      -0.25607863
C        0.20262988      -0.59947498       0.01029107
O       -0.13371709      -0.57272868       1.38747553
C       -0.91467451      -0.04584818      -0.85595214
C       -2.25940349      -0.27383023      -0.49401389
O       -2.38491096       1.40826263       0.42052686
H        3.60529929       0.12458043       0.32259506
H        2.49901103      -0.41634989       1.59021739
H        2.87612808      -1.48127637       0.23809017
H        1.71747784       0.09789938      -1.33154185
H        1.37013512       1.18949242      -0.00275809
H        0.35373730      -1.66445676      -0.20934218
H       -0.49516975       0.29254812       1.60671554
H       -0.69762818       0.03749032      -1.91729176
H       -1.35436034       1.21202873      -0.33027473
H       -2.50170207      -0.88207892       0.36900510
H       -3.04023659      -0.18009856      -1.24024646
H       -3.04938623       2.06182277       0.17541246
19
Frame=4 idx=006365 GeodesicLength=0.2395539866885722 rxn_smarts="[C:1]([C:2]([C@@:3]([O:4][H:14])([C:5]([C:6]([O:7][H:19])([H:17])[H:18])([H:15])[H:16])[H:13])([H:11])[H:12])([H:8])([H:9])[H:10]>>[C:1]([C:2]([C@@:3]([O:4][H:14])([C:5](=[C:6]([H:17])[H:18])[H:15])[H:13])([H:11])[H:12])([H:8])([H:9])[H:10].[O:7]([H:16])[H:19]"
C        2.68973175      -0.43700357       0.52013005
C        1.51408214       0.13037926      -0.26098148
C        0.20041954      -0.59697587       0.01070138
O       -0.13128721      -0.55833107       1.38796870
C       -0.91358352      -0.04768511      -0.86305326
C       -2.26025313      -0.27420462      -0.50390248
O       -2.37098073       1.40149897       0.43967345
H        3.60446253       0.12330537       0.31921665
H        2.49571104      -0.39837082       1.59262458
H        2.87032545      -1.48162912       0.25439644
H        1.71935220       0.08431398      -1.33558909
H        1.37062748       1.18959338      -0.01756277
H        0.34841938      -1.66371018      -0.20374570
H       -0.51759325       0.29835894       1.59887711
H       -0.69240960       0.01685538      -1.92500803
H       -1.34402036       1.22737580      -0.33858310
H       -2.50457423      -0.89793251       0.34779893
H       -3.03622044      -0.17628123      -1.25518050
H       -3.04220904       2.06044301       0.23221911
19
Frame=5 idx=006365 GeodesicLength=0.29923339540106586 rxn_smarts="[C:1]([C:2]([C@@:3]([O:4][H:14])([C:5]([C:6]([O:7][H:19])([H:17])[H:18])([H:15])[H:16])[H:13])([H:11])[H:12])([H:8])([H:9])[H:10]>>[C:1]([C:2]([C@@:3]([O:4][H:14])([C:5](=[C:6]([H:17])[H:18])[H:15])[H:13])([H:11])[H:12])([H:8])([H:9])[H:10].[O:7]([H:16])[H:19]"
C        2.68712022      -0.43329041       0.52292319
C        1.51361737       0.12807064      -0.26576990
C        0.19809711      -0.59423568       0.01115751
O       -0.12877611      -0.54384350       1.38835420
C       -0.91260900      -0.04912997      -0.86985977
C       -2.26117096      -0.27454281      -0.51358280
O       -2.35749689       1.39483837       0.45779039
H        3.60360406       0.12182935       0.31574902
H        2.49252646      -0.38051054       1.59464323
H        2.86425898      -1.48175015       0.27046129
H        1.72100874       0.07091323      -1.33936438
H        1.37123695       1.18958402      -0.03212342
H        0.34283822      -1.66261108      -0.19823182
H       -0.53974540       0.30328365       1.59132866
H       -0.68740027      -0.00344156      -1.93204967
H       -1.33357488       1.24295828      -0.34601649
H       -2.50740900      -0.91307245       0.32681607
H       -3.03205761      -0.17329625      -1.27013681
H       -3.03406800       2.05824684       0.28791150
19
Frame=6 idx=006365 GeodesicLength=0.3590191350187387 rxn_smarts="[C:1]([C:2]([C@@:3]([O:4][H:14])([C:5]([C:6]([O:7][H:19])([H:17])[H:18])([H:15])[H:16])[H:13])([H:11])[H:12])([H:8])([H:9])[H:10]>>[C:1]([C:2]([C@@:3]([O:4][H:14])([C:5](=[C:6]([H:17])[H:18])[H:15])[H:13])([H:11])[H:12])([H:8])([H:9])[H:10].[O:7]([H:16])[H:19]"
C        2.68450284      -0.42963196       0.52558766
C        1.51314334       0.12580272      -0.27053447
C        0.19570741      -0.59130419       0.01164146
O       -0.12622095      -0.52927205       1.38873964
C       -0.91170868      -0.05018758      -0.87648102
C       -2.26214702      -0.27483258      -0.52310102
O       -2.34454529       1.38846215       0.47500346
H        3.60278384       0.12011552       0.31215155
H        2.48944413      -0.36270997       1.59640064
H        2.85802569      -1.48179726       0.28641308
H        1.72257478       0.05759998      -1.34305128
H        1.37195491       1.18955701      -0.04659404
H        0.33709375      -1.66131675      -0.19278417
H       -0.56172518       0.30738940       1.58420747
H       -0.68251489      -0.02338801      -1.93861321
H       -1.32302950       1.25892506      -0.35268702
H       -2.51020121      -0.92758856       0.30610586
H       -3.02772612      -0.17110119      -1.28521309
H       -3.02541185       2.05527826       0.34280849
19
Frame=7 idx=006365 GeodesicLength=0.4189119913046873 rxn_smarts="[C:1]([C:2]([C@@:3]([O:4][H:14])([C:5]([C:6]([O:7][H:19])([H:17])[H:18])([H:15])[H:16])[H:13])([H:11])[H:12])([H:8])([H:9])[H:10]>>[C:1]([C:2]([C@@:3]([O:4][H:14])([C:5](=[C:6]([H:17])[H:18])[H:15])[H:13])([H:11])[H:12])([H:8])([H:9])[H:10].[O:7]([H:16])[H:19]"
C        2.68188255      -0.42602143       0.52810958
C        1.51264815       0.12358672      -0.27526307
C        0.19324671      -0.58818719       0.01217444
O       -0.12363798      -0.51457464       1.38914272
C       -0.91088636      -0.05090358      -0.88292182
C       -2.26319187      -0.27511777      -0.53247256
O       -2.33219647       1.38232670       0.49138230
H        3.60199043       0.11820482       0.30843300
H        2.48646335      -0.34501836       1.59788589
H        2.85165643      -1.48174719       0.30218810
H        1.72403432       0.04440677      -1.34664009
H        1.37276389       1.18952068      -0.06095172
H        0.33119936      -1.65983471      -0.18734817
H       -0.58359905       0.31068279       1.57747513
H       -0.67773158      -0.04302199      -1.94470688
H       -1.31238389       1.27524356      -0.35861030
H       -2.51295706      -0.94159773       0.28563999
H       -3.02322798      -0.16971781      -1.30042933
H       -3.01607293       2.05177035       0.39691278
19
Frame=8 idx=006365 GeodesicLength=0.4786157613914912 rxn_smarts="[C:1]([C:2]([C@@:3]([O:4][H:14])([C:5]([C:6]([O:7][H:19])([H:17])[H:18])([H:15])[H:16])[H:13])([H:11])[H:12])([H:8])([H:9])[H:10]>>[C:1]([C:2]([C@@:3]([O:4][H:14])([C:5](=[C:6]([H:17])[H:18])[H:15])[H:13])([H:11])[H:12])([H:8])([H:9])[H:10].[O:7]([H:16])[H:19]"
C        2.67919906      -0.42242234       0.53052993
C        1.51211847       0.12136811      -0.27995211
C        0.19068392      -0.58481755       0.01272084
O       -0.12098523      -0.49962521       1.38940749
C       -0.91015077      -0.05125493      -0.88917986
C       -2.26428500      -0.27532159      -0.54175429
O       -2.32023242       1.37636722       0.50691188
H        3.60118487       0.11601984       0.30462653
H        2.48357422      -0.32725509       1.59904367
H        2.84498438      -1.48151492       0.31796604
H        1.72533296       0.03117155      -1.35003151
H        1.37373503       1.18935706      -0.07528945
H        0.32502601      -1.65802157      -0.18191585
H       -0.60526222       0.31320913       1.57098635
H       -0.67312035      -0.06231872      -1.95022683
H       -1.30150049       1.29186761      -0.36383584
H       -2.51563779      -0.95500413       0.26525879
H       -3.01855888      -0.16905271      -1.31577648
H       -3.00610578       2.04724824       0.45051071
19
Frame=9 idx=006365 GeodesicLength=0.5384067126769138 rxn_smarts="[C:1]([C:2]([C@@:3]([O:4][H:14])([C:5]([C:6]([O:7][H:19])([H:17])[H:18])([H:15])[H:16])[H:13])([H:11])[H:12])([H:8])([H:9])[H:10]>>[C:1]([C:2]([C@@:3]([O:4][H:14])([C:5](=[C:6]([H:17])[H:18])[H:15])[H:13])([H:11])[H:12])([H:8])([H:9])[H:10].[O:7]([H:16])[H:19]"
C        2.67650318      -0.41885239       0.53285072
C        1.51158377       0.11915283      -0.28465079
C        0.18804751      -0.58125168       0.01329149
O       -0.11831586      -0.48445058       1.38964209
C       -0.90948629      -0.05127392      -0.89531107
C       -2.26544867      -0.27549085      -0.55095941
O       -2.30882876       1.37065568       0.52172228
H        3.60041301       0.11359422       0.30069991
H        2.48076816      -0.30943801       1.59994477
H        2.83813873      -1.48118652       0.33375197
H        1.72655791       0.01789195      -1.35334735
H        1.37482622       1.18915063      -0.08967271
H        0.31867569      -1.65601406      -0.17645366
H       -0.62684812       0.31496363       1.56482196
H       -0.66859835      -0.08127477      -1.95531094
H       -1.29044121       1.30886768      -0.36838539
H       -2.51827498      -0.96796627       0.24501277
H       -3.01371973      -0.16910895      -1.33131081
H       -2.99555219       2.04203139       0.50366420
19
Frame=10 idx=006365 GeodesicLength=0.5982306765857867 rxn_smarts="[C:1]([C:2]([C@@:3]([O:4][H:14])([C:5]([C:6]([O:7][H:19])([H:17])[H:18])([H:15])[H:16])[H:13])([H:11])[H:12])([H:8])([H:9])[H:10]>>[C:1]([C:2]([C@@:3]([O:4][H:14])([C:5](=[C:6]([H:17])[H:18])[H:15])[H:13])([H:11])[H:12])([H:8])([H:9])[H:10].[O:7]([H:16])[H:19]"
C        2.67376837      -0.41529209       0.53508342
C        1.51102897       0.11693088      -0.28935906
C        0.18532515      -0.57747491       0.01388072
O       -0.11562760      -0.46899045       1.38981387
C       -0.90889795      -0.05097525      -0.90132740
C       -2.26667768      -0.27562620      -0.56011676
O       -2.29793502       1.36516714       0.53585217
H        3.59964646       0.11092614       0.29666807
H        2.47803336      -0.29151814       1.60057771
H        2.83107095      -1.48072665       0.34958564
H        1.72768011       0.00452803      -1.35656675
H        1.37604408       1.18887827      -0.10412912
H        0.31211390      -1.65378376      -0.17093999
H       -0.64835832       0.31594574       1.55893708
H       -0.66418079      -0.09989513      -1.95995437
H       -1.27915763       1.32622558      -0.37227811
H       -2.52085201      -0.98051084       0.22484683
H       -3.00870320      -0.16987056      -1.34704392
H       -2.98432119       2.03606220       0.55646996
19
Frame=11 idx=006365 GeodesicLength=0.6580776812803 rxn_smarts="[C:1]([C:2]([C@@:3]([O:4][H:14])([C:5]([C:6]([O:7][H:19])([H:17])[H:18])([H:15])[H:16])[H:13])([H:11])[H:12])([H:8])([H:9])[H:10]>>[C:1]([C:2]([C@@:3]([O:4][H:14])([C:5](=[C:6]([H:17])[H:18])[H:15])[H:13])([H:11])[H:12])([H:8])([H:9])[H:10].[O:7]([H:16])[H:19]"
C        2.67099012      -0.41173725       0.53723872
C        1.51045680       0.11468980      -0.29408708
C        0.18251359      -0.57347471       0.01448621
O       -0.11292875      -0.45318052       1.38990663
C       -0.90838487      -0.05036379      -0.90724758
C       -2.26797385      -0.27571981      -0.56925257
O       -2.28753367       1.35991055       0.54933170
H        3.59888536       0.10799650       0.29253455
H        2.47536665      -0.27345747       1.60093905
H        2.82376528      -1.48012808       0.36551482
H        1.72870253      -0.00896691      -1.35968861
H        1.37740129       1.18852792      -0.11870480
H        0.30532661      -1.65131868      -0.16534103
H       -0.66981868       0.31616174       1.55330046
H       -0.65986341      -0.11817543      -1.96417023
H       -1.26762047       1.34395088      -0.37554587
H       -2.52336399      -0.99265612       0.20472666
H       -3.00350762      -0.17131332      -1.36298954
H       -2.97241292       2.02925468       0.60904850
19
Frame=12 idx=006365 GeodesicLength=0.7179528744578122 rxn_smarts="[C:1]([C:2]([C@@:3]([O:4][H:14])([C:5]([C:6]([O:7][H:19])([H:17])[H:18])([H:15])[H:16])[H:13])([H:11])[H:12])([H:8])([H:9])[H:10]>>[C:1]([C:2]([C@@:3]([O:4][H:14])([C:5](=[C:6]([H:17])[H:18])[H:15])[H:13])([H:11])[H:12])([H:8])([H:9])[H:10].[O:7]([H:16])[H:19]"
C        2.66815974      -0.40817825       0.53932752
C        1.50986550       0.11241933      -0.29884632
C        0.17960863      -0.56924345       0.01510439
O       -0.11023213      -0.43696287       1.38990729
C       -0.90794776      -0.04944880      -0.91309145
C       -2.26933984      -0.27577108      -0.57839163
O       -2.27761281       1.35488903       0.56219673
H        3.59812285       0.10479681       0.28830414
H        2.47275791      -0.25521414       1.60102779
H        2.81620730      -1.47937900       0.38158507
H        1.72962599      -0.02263594      -1.36271605
H        1.37890090       1.18809170      -0.13344529
H        0.29830354      -1.64861421      -0.15962756
H       -0.69125977       0.31560220       1.54788841
H       -0.65564070      -0.13611003      -1.96797766
H       -1.25580596       1.36205047      -0.37821238
H       -2.52580784      -1.00442812       0.18462232
H       -2.99812919      -0.17341607      -1.37915943
H       -2.95977636       2.02155242       0.66150412
19
Frame=13 idx=006365 GeodesicLength=0.7778623256553725 rxn_smarts="[C:1]([C:2]([C@@:3]([O:4][H:14])([C:5]([C:6]([O:7][H:19])([H:17])[H:18])([H:15])[H:16])[H:13])([H:11])[H:12])([H:8])([H:9])[H:10]>>[C:1]([C:2]([C@@:3]([O:4][H:14])([C:5](=[C:6]([H:17])[H:18])[H:15])[H:13])([H:11])[H:12])([H:8])([H:9])[H:10].[O:7]([H:16])[H:19]"
C        2.66527214      -0.40460698       0.54136159
C        1.50925588       0.11010918      -0.30364829
C        0.17660569      -0.56477231       0.01573241
O       -0.10755373      -0.42027728       1.38980244
C       -0.90758970      -0.04823524      -0.91887758
C       -2.27078278      -0.27577738      -0.58755619
O       -2.26816302       1.35010862       0.57448375
H        3.59735745       0.10131722       0.28398409
H        2.47019986      -0.23675118       1.60084271
H        2.80838669      -1.47846749       0.39784209
H        1.73045360      -0.03652161      -1.36565136
H        1.38054966       1.18756138      -0.14839782
H        0.29103271      -1.64566469      -0.15376831
H       -0.71270480       0.31425660       1.54267571
H       -0.65151012      -0.15368737      -1.97139691
H       -1.24369472       1.38053411      -0.38029675
H       -2.52818437      -1.01585018       0.16450815
H       -2.99256997      -0.17615615      -1.39556285
H       -2.94636047       2.01288076       0.71392312
19
Frame=14 idx=006365 GeodesicLength=0.8378133326804872 rxn_smarts="[C:1]([C:2]([C@@:3]([O:4][H:14])([C:5]([C:6]([O:7][H:19])([H:17])[H:18])([H:15])[H:16])[H:13])([H:11])[H:12])([H:8])([H:9])[H:10]>>[C:1]([C:2]([C@@:3]([O:4][H:14])([C:5](=[C:6]([H:17])[H:18])[H:15])[H:13])([H:11])[H:12])([H:8])([H:9])[H:10].[O:7]([H:16])[H:19]"
C        2.66230421      -0.40099884       0.54335040
C        1.50860934       0.10775726      -0.30849590
C        0.17349488      -0.56006081       0.01636672
O       -0.10491501      -0.40307622       1.38957364
C       -0.90731991      -0.04674694      -0.92461924
C       -2.27230794      -0.27576085      -0.59676702
O       -2.25918045       1.34553427       0.58623967
H        3.59655768       0.09758385       0.27959601
H        2.46766356      -0.21803808       1.60037893
H        2.80028960      -1.47735699       0.41430342
H        1.73116790      -0.05064481      -1.36848612
H        1.38232657       1.18693126      -0.16358761
H        0.28350571      -1.64246823      -0.14774125
H       -0.73417984       0.31207950       1.53763374
H       -0.64747070      -0.17090095      -1.97444142
H       -1.23127599       1.39938570      -0.38179932
H       -2.53049159      -1.02696875       0.14435221
H       -2.98682696      -0.17952840      -1.41220274
H       -2.93195104       2.00327803       0.76634588
19
Frame=15 idx=006365 GeodesicLength=0.8977851249744108 rxn_smarts="[C:1]([C:2]([C@@:3]([O:4][H:14])([C:5]([C:6]([O:7][H:19])([H:17])[H:18])([H:15])[H:16])[H:13])([H:11])[H:12])([H:8])([H:9])[H:10]>>[C:1]([C:2]([C@@:3]([O:4][H:14])([C:5](=[C:6]([H:17])[H:18])[H:15])[H:13])([H:11])[H:12])([H:8])([H:9])[H:10].[O:7]([H:16])[H:19]"
C        2.65925489      -0.39738465       0.54528519
C        1.50792941       0.10536562      -0.31338127
C        0.17027608      -0.55507813       0.01702174
O       -0.10233363      -0.38524694       1.38921735
C       -0.90713494      -0.04498008      -0.93031970
C       -2.27390824      -0.27570908      -0.60601769
O       -2.25062959       1.34122783       0.59747978
H        3.59571586       0.09358396       0.27517402
H        2.46515022      -0.19917996       1.59963181
H        2.79192951      -1.47605551       0.43089107
H        1.73175528      -0.06499600      -1.37121099
H        1.38425708       1.18619687      -0.17900148
H        0.27570817      -1.63899552      -0.14148564
H       -0.75567804       0.30911230       1.53274475
H       -0.64352328      -0.18773414      -1.97711855
H       -1.21852032       1.41863146      -0.38275563
H       -2.53271109      -1.03775536       0.12419403
H       -2.98089547      -0.18353887      -1.42905229
H       -2.91664191       1.99253618       0.81870351
19
Frame=16 idx=006365 GeodesicLength=0.9577956516461361 rxn_smarts="[C:1]([C:2]([C@@:3]([O:4][H:14])([C:5]([C:6]([O:7][H:19])([H:17])[H:18])([H:15])[H:16])[H:13])([H:11])[H:12])([H:8])([H:9])[H:10]>>[C:1]([C:2]([C@@:3]([O:4][H:14])([C:5](=[C:6]([H:17])[H:18])[H:15])[H:13])([H:11])[H:12])([H:8])([H:9])[H:10].[O:7]([H:16])[H:19]"
C        2.65611730      -0.39374273       0.54718224
C        1.50720897       0.10293186      -0.31831088
C        0.16694114      -0.54982661       0.01769146
O       -0.09983916      -0.36674911       1.38871208
C       -0.90705139      -0.04295013      -0.93599359
C       -2.27560582      -0.27564176      -0.61532531
O       -2.24251887       1.33715157       0.60826070
H        3.59482521       0.08934262       0.27074303
H        2.46264050      -0.18014643       1.59860633
H        2.78331156      -1.47453621       0.44763836
H        1.73221531      -0.07959704      -1.37382153
H        1.38632848       1.18535542      -0.19467588
H        0.26763473      -1.63524946      -0.13498060
H       -0.77721116       0.30530032       1.52797917
H       -0.63967225      -0.20416692      -1.97944936
H       -1.20543593       1.43826459      -0.38316302
H       -2.53485740      -1.04826086       0.10400920
H       -2.97479646      -0.18816932      -1.44610789
H       -2.90023478       1.98069020       0.87100549
