5
Frame=0 idx=005841 GeodesicLength=0.0 rxn_smarts="[O:1]=[C:2]([C:3]#[N:4])[H:5]>>[O:1]([C+:2]=[C:3]=[N-:4])[H:5]"
O       -1.27848665      -0.57523831       0.02508880
C       -0.35449993       0.31125130       0.07882558
C        1.02988372      -0.07429223      -0.10183203
N        2.16326997      -0.22715298      -0.22495209
H       -1.56016711       0.56543221       0.22286974
5
Frame=1 idx=005841 GeodesicLength=0.029054583970881682 rxn_smarts="[O:1]=[C:2]([C:3]#[N:4])[H:5]>>[O:1]([C+:2]=[C:3]=[N-:4])[H:5]"
O       -1.27392484      -0.57639961       0.02606254
C       -0.35024691       0.30302632       0.12307498
C        1.02788153      -0.07293774      -0.11909145
N        2.16266749      -0.22655962      -0.22750793
H       -1.56637727       0.57287066       0.19746186
5
Frame=2 idx=005841 GeodesicLength=0.05840619825428565 rxn_smarts="[O:1]=[C:2]([C:3]#[N:4])[H:5]>>[O:1]([C+:2]=[C:3]=[N-:4])[H:5]"
O       -1.26993771      -0.57769368       0.02650447
C       -0.34708198       0.29386827       0.16102753
C        1.02575224      -0.07082071      -0.12783064
N        2.16068382      -0.22560809      -0.23367963
H       -1.56941638       0.58025421       0.17397828
5
Frame=3 idx=005841 GeodesicLength=0.08754071526744597 rxn_smarts="[O:1]=[C:2]([C:3]#[N:4])[H:5]>>[O:1]([C+:2]=[C:3]=[N-:4])[H:5]"
O       -1.26641652      -0.57898688       0.02682495
C       -0.34476763       0.28467324       0.19276840
C        1.02341567      -0.06888072      -0.13278385
N        2.15824265      -0.22417637      -0.24035195
H       -1.57047417       0.58737073       0.15354245
5
Frame=4 idx=005841 GeodesicLength=0.11632605919259659 rxn_smarts="[O:1]=[C:2]([C:3]#[N:4])[H:5]>>[O:1]([C+:2]=[C:3]=[N-:4])[H:5]"
O       -1.26312863      -0.58027948       0.02717687
C       -0.34304438       0.27570385       0.21974522
C        1.02099389      -0.06705996      -0.13616730
N        2.15554503      -0.22254415      -0.24651745
H       -1.57036592       0.59417975       0.13576266
5
Frame=5 idx=005841 GeodesicLength=0.1452244604859479 rxn_smarts="[O:1]=[C:2]([C:3]#[N:4])[H:5]>>[O:1]([C+:2]=[C:3]=[N-:4])[H:5]"
O       -1.26001220      -0.58158706       0.02758350
C       -0.34168295       0.26683751       0.24371853
C        1.01851367      -0.06543167      -0.13848295
N        2.15270633      -0.22068451      -0.25242517
H       -1.56952485       0.60086574       0.11960609
5
Frame=6 idx=005841 GeodesicLength=0.17438616207046703 rxn_smarts="[O:1]=[C:2]([C:3]#[N:4])[H:5]>>[O:1]([C+:2]=[C:3]=[N-:4])[H:5]"
O       -1.25709383      -0.58291179       0.02805722
C       -0.34060036       0.25798505       0.26571052
C        1.01603061      -0.06401741      -0.13993460
N        2.14982320      -0.21858096      -0.25828540
H       -1.56815962       0.60752510       0.10445226
5
Frame=7 idx=005841 GeodesicLength=0.2031089441638845 rxn_smarts="[O:1]=[C:2]([C:3]#[N:4])[H:5]>>[O:1]([C+:2]=[C:3]=[N-:4])[H:5]"
O       -1.25442018      -0.58423522       0.02863195
C       -0.33979033       0.24903674       0.28619428
C        1.01331408      -0.06322688      -0.14056140
N        2.14683751      -0.21584340      -0.26421086
H       -1.56594107       0.61426876       0.08994603
5
Frame=8 idx=005841 GeodesicLength=0.23191485084178243 rxn_smarts="[O:1]=[C:2]([C:3]#[N:4])[H:5]>>[O:1]([C+:2]=[C:3]=[N-:4])[H:5]"
O       -1.25158765      -0.58559195       0.02929862
C       -0.33907694       0.24051301       0.30434189
C        1.01068998      -0.06204815      -0.14159136
N        2.14378044      -0.21355564      -0.26909910
H       -1.56380583       0.62068273       0.07704995
5
Frame=9 idx=005841 GeodesicLength=0.26068537124516455 rxn_smarts="[O:1]=[C:2]([C:3]#[N:4])[H:5]>>[O:1]([C+:2]=[C:3]=[N-:4])[H:5]"
O       -1.24879672      -0.58700622       0.03005864
C       -0.33851450       0.23219761       0.32104347
C        1.00805529      -0.06084089      -0.14271981
N        2.14083413      -0.21134561      -0.27346759
H       -1.56157819       0.62699511       0.06508529
5
Frame=10 idx=005841 GeodesicLength=0.28958739456476096 rxn_smarts="[O:1]=[C:2]([C:3]#[N:4])[H:5]>>[O:1]([C+:2]=[C:3]=[N-:4])[H:5]"
O       -1.24603717      -0.58847507       0.03090448
C       -0.33803132       0.22400440       0.33661489
C        1.00539116      -0.05970972      -0.14381976
N        2.13792567      -0.20910290      -0.27749676
H       -1.55924835       0.63328328       0.05379714
5
Frame=11 idx=005841 GeodesicLength=0.31849923448060746 rxn_smarts="[O:1]=[C:2]([C:3]#[N:4])[H:5]>>[O:1]([C+:2]=[C:3]=[N-:4])[H:5]"
O       -1.24331654      -0.58996873       0.03182573
C       -0.33762769       0.21589976       0.35130415
C        1.00271358      -0.05864775      -0.14483880
N        2.13503692      -0.20681964      -0.28130393
H       -1.55680627       0.63953635       0.04301286
5
Frame=12 idx=005841 GeodesicLength=0.34747986457572877 rxn_smarts="[O:1]=[C:2]([C:3]#[N:4])[H:5]>>[O:1]([C+:2]=[C:3]=[N-:4])[H:5]"
O       -1.24063421      -0.59149604       0.03282188
C       -0.33727555       0.20785037       0.36526386
C        1.00001434      -0.05765874      -0.14577953
N        2.13214863      -0.20447852      -0.28493397
H       -1.55425321       0.64578293       0.03262776
5
Frame=13 idx=005841 GeodesicLength=0.3764904346300995 rxn_smarts="[O:1]=[C:2]([C:3]#[N:4])[H:5]>>[O:1]([C+:2]=[C:3]=[N-:4])[H:5]"
O       -1.23799283      -0.59306295       0.03389524
C       -0.33697915       0.19983819       0.37860045
C        0.99728231      -0.05673876      -0.14665806
N        2.12926266      -0.20207241      -0.28841161
H       -1.55157300       0.65203593       0.02257398
5
Frame=14 idx=005841 GeodesicLength=0.40561703091519524 rxn_smarts="[O:1]=[C:2]([C:3]#[N:4])[H:5]>>[O:1]([C+:2]=[C:3]=[N-:4])[H:5]"
O       -1.23540628      -0.59467480       0.03504401
C       -0.33672672       0.19184022       0.39141057
C        0.99453702      -0.05589887      -0.14743743
N        2.12638755      -0.19958771      -0.29179534
H       -1.54879157       0.65832116       0.01277819
5
Frame=15 idx=005841 GeodesicLength=0.4348250891750306 rxn_smarts="[O:1]=[C:2]([C:3]#[N:4])[H:5]>>[O:1]([C+:2]=[C:3]=[N-:4])[H:5]"
O       -1.23292477      -0.59632656       0.03627630
C       -0.33653727       0.18384494       0.40375994
C        0.99180614      -0.05515857      -0.14812674
N        2.12358887      -0.19700841      -0.29511065
H       -1.54593297       0.66464860       0.00320115
5
Frame=16 idx=005841 GeodesicLength=0.4638296601091507 rxn_smarts="[O:1]=[C:2]([C:3]#[N:4])[H:5]>>[O:1]([C+:2]=[C:3]=[N-:4])[H:5]"
O       -1.23031241      -0.59796726       0.03755131
C       -0.33637013       0.17581824       0.41574526
C        0.98895602      -0.05432032      -0.14863978
N        2.12048803      -0.19443514      -0.29840330
H       -1.54276150       0.67090448      -0.00625349
