13
Frame=0 idx=001749 GeodesicLength=0.0 rxn_smarts="[N:1]#[C:2][C:3]1([H:7])[C:4]([H:8])([H:9])[C:5]([H:10])([H:11])[C:6]1([H:12])[H:13]>>[C:5](=[C:6]([H:12])[H:13])([H:10])[H:11].[N:1]#[C:2][C:3](=[C:4]([H:8])[H:9])[H:7]"
N        2.97529017      -0.09259140       1.00473237
C        2.11090971      -0.39051080       0.29181205
C        1.02136691      -0.69632997      -0.52288232
C       -0.32277546      -0.84490367       0.06170933
C       -1.51876614       0.61106870       0.31055969
C       -0.28671505       0.98931122      -0.24011764
H        1.15858354      -0.81053015      -1.58586390
H       -1.00139653      -1.41987886      -0.55576189
H       -0.32244037      -1.14965434       1.10124273
H       -2.37386947       0.44431782      -0.32639855
H       -1.68637019       0.68590855       1.37365496
H        0.46489044       1.45786827       0.38124834
H       -0.21870753       1.21592465      -1.29393516
13
Frame=1 idx=001749 GeodesicLength=0.09614964015977812 rxn_smarts="[N:1]#[C:2][C:3]1([H:7])[C:4]([H:8])([H:9])[C:5]([H:10])([H:11])[C:6]1([H:12])[H:13]>>[C:5](=[C:6]([H:12])[H:13])([H:10])[H:11].[N:1]#[C:2][C:3](=[C:4]([H:8])[H:9])[H:7]"
N        2.96641065      -0.08484720       1.01237604
C        2.10955328      -0.39801205       0.29797879
C        1.01898543      -0.69568745      -0.52282419
C       -0.32194670      -0.86875857       0.05360154
C       -1.51260742       0.61316936       0.31531224
C       -0.28724441       1.00198522      -0.24626651
H        1.16821617      -0.82777359      -1.58249883
H       -0.99302341      -1.45312642      -0.56353406
H       -0.32855018      -1.16422731       1.09569829
H       -2.37609332       0.45960474      -0.31435935
H       -1.67263920       0.69415601       1.37963649
H        0.46206466       1.47831269       0.37250623
H       -0.23312554       1.24520457      -1.29762669
13
Frame=2 idx=001749 GeodesicLength=0.19226484413035555 rxn_smarts="[N:1]#[C:2][C:3]1([H:7])[C:4]([H:8])([H:9])[C:5]([H:10])([H:11])[C:6]1([H:12])[H:13]>>[C:5](=[C:6]([H:12])[H:13])([H:10])[H:11].[N:1]#[C:2][C:3](=[C:4]([H:8])[H:9])[H:7]"
N        2.95739741      -0.07946940       1.02081139
C        2.10772394      -0.40471142       0.30428569
C        1.01632755      -0.69450295      -0.52278274
C       -0.32096486      -0.89304480       0.04529009
C       -1.50605167       0.61529164       0.32000318
C       -0.28805155       1.01540872      -0.25304075
H        1.17811535      -0.84517194      -1.57855456
H       -0.98355461      -1.48781567      -0.57132556
H       -0.33473355      -1.17869365       1.08997084
H       -2.37814570       0.47465180      -0.30154841
H       -1.65805714       0.70255271       1.38553482
H        0.45884816       1.49995746       0.36281968
H       -0.24885333       1.27554750      -1.30146367
13
Frame=3 idx=001749 GeodesicLength=0.28838339256680995 rxn_smarts="[N:1]#[C:2][C:3]1([H:7])[C:4]([H:8])([H:9])[C:5]([H:10])([H:11])[C:6]1([H:12])[H:13]>>[C:5](=[C:6]([H:12])[H:13])([H:10])[H:11].[N:1]#[C:2][C:3](=[C:4]([H:8])[H:9])[H:7]"
N        2.94797851      -0.07552946       1.02981373
C        2.10533270      -0.41098598       0.31076472
C        1.01328377      -0.69300293      -0.52276567
C       -0.31990078      -0.91788632       0.03673962
C       -1.49897085       0.61749617       0.32461772
C       -0.28899308       1.02956499      -0.26036742
H        1.18819624      -0.86277968      -1.57400424
H       -0.97301930      -1.52402570      -0.57917829
H       -0.34117360      -1.19321494       1.08399169
H       -2.37988648       0.48962439      -0.28799269
H       -1.64253080       0.71107237       1.39132016
H        0.45541111       1.52261218       0.35234229
H       -0.26572745       1.30705491      -1.30528162
13
Frame=4 idx=001749 GeodesicLength=0.3845319086348128 rxn_smarts="[N:1]#[C:2][C:3]1([H:7])[C:4]([H:8])([H:9])[C:5]([H:10])([H:11])[C:6]1([H:12])[H:13]>>[C:5](=[C:6]([H:12])[H:13])([H:10])[H:11].[N:1]#[C:2][C:3](=[C:4]([H:8])[H:9])[H:7]"
N        2.93796376      -0.07249696       1.03925269
C        2.10229759      -0.41704786       0.31742841
C        1.00976275      -0.69134226      -0.52277678
C       -0.31879789      -0.94337490       0.02793285
C       -1.49126282       0.61982820       0.32912639
C       -0.28997908       1.04446346      -0.26821894
H        1.19838296      -0.88057846      -1.56882709
H       -0.96138479      -1.56186824      -0.58707988
H       -0.34800351      -1.20788281       1.07771986
H       -2.38120045       0.50460751      -0.27371020
H       -1.62597026       0.71970020       1.39695371
H        0.45185807       1.54616847       0.34115681
H       -0.28366633       1.33982366      -1.30895782
13
Frame=5 idx=001749 GeodesicLength=0.4807228222185681 rxn_smarts="[N:1]#[C:2][C:3]1([H:7])[C:4]([H:8])([H:9])[C:5]([H:10])([H:11])[C:6]1([H:12])[H:13]>>[C:5](=[C:6]([H:12])[H:13])([H:10])[H:11].[N:1]#[C:2][C:3](=[C:4]([H:8])[H:9])[H:7]"
N        2.92727384      -0.07013757       1.04902205
C        2.09855935      -0.42299669       0.32426639
C        1.00568985      -0.68962510      -0.52281705
C       -0.31767289      -0.96957532       0.01888614
C       -1.48286756       0.62231725       0.33347551
C       -0.29095703       1.06012936      -0.27658437
H        1.20859000      -0.89849750      -1.56301410
H       -0.94858236      -1.60146910      -0.59495832
H       -0.35531004      -1.22272172       1.07115340
H       -2.38199695       0.51962331      -0.25875909
H       -1.60835009       0.72843247       1.40237678
H        0.44824419       1.57056770       0.32933380
H       -0.30262031       1.37395290      -1.31238113
13
Frame=6 idx=001749 GeodesicLength=0.5769792736042542 rxn_smarts="[N:1]#[C:2][C:3]1([H:7])[C:4]([H:8])([H:9])[C:5]([H:10])([H:11])[C:6]1([H:12])[H:13]>>[C:5](=[C:6]([H:12])[H:13])([H:10])[H:11].[N:1]#[C:2][C:3](=[C:4]([H:8])[H:9])[H:7]"
N        2.91580608      -0.06825306       1.05903285
C        2.09405064      -0.42891522       0.33125894
C        1.00098461      -0.68795493      -0.52288577
C       -0.31654812      -0.99655382       0.00961408
C       -1.47371686       0.62500021       0.33760414
C       -0.29187490       1.07659583      -0.28546348
H        1.21871303      -0.91645031      -1.55657564
H       -0.93449397      -1.64299420      -0.60270590
H       -0.36319071      -1.23774369       1.06428929
H       -2.38217716       0.53469014      -0.24319744
H       -1.58962697       0.73725560       1.40751482
H        0.44462573       1.59576084       0.31693689
H       -0.32255140       1.40956260      -1.31542278
13
Frame=7 idx=001749 GeodesicLength=0.6733226171216177 rxn_smarts="[N:1]#[C:2][C:3]1([H:7])[C:4]([H:8])([H:9])[C:5]([H:10])([H:11])[C:6]1([H:12])[H:13]>>[C:5](=[C:6]([H:12])[H:13])([H:10])[H:11].[N:1]#[C:2][C:3](=[C:4]([H:8])[H:9])[H:7]"
N        2.90349181      -0.06673376       1.06920644
C        2.08870902      -0.43485065       0.33838340
C        0.99556826      -0.68641831      -0.52298288
C       -0.31543810      -1.02437503       0.00014480
C       -1.46375558       0.62790840       0.34144205
C       -0.29269252       1.09389861      -0.29486292
H        1.22864225      -0.93431792      -1.54953427
H       -0.91898774      -1.68661708      -0.61019499
H       -0.37173626      -1.25294357       1.05713317
H       -2.38165490       0.54980216      -0.22709945
H       -1.56976962       0.74617054       1.41229717
H        0.44104662       1.62170887       0.30402456
H       -0.34342327       1.44676774      -1.31795709
13
Frame=8 idx=001749 GeodesicLength=0.7697621946657025 rxn_smarts="[N:1]#[C:2][C:3]1([H:7])[C:4]([H:8])([H:9])[C:5]([H:10])([H:11])[C:6]1([H:12])[H:13]>>[C:5](=[C:6]([H:12])[H:13])([H:10])[H:11].[N:1]#[C:2][C:3](=[C:4]([H:8])[H:9])[H:7]"
N        2.89027281      -0.06547461       1.07943674
C        2.08248119      -0.44084934       0.34559132
C        0.98935557      -0.68510796      -0.52310901
C       -0.31436562      -1.05309795      -0.00948056
C       -1.45294344       0.63107555       0.34490078
C       -0.29335968       1.11207677      -0.30477982
H        1.23823681      -0.95197942      -1.54194214
H       -0.90188107      -1.73254350      -0.61722328
H       -0.38104832      -1.26829607       1.04969000
H       -2.38033643       0.56496389      -0.21058293
H       -1.54879285       0.75515633       1.41662863
H        0.43755917       1.64836330       0.29068871
H       -0.36517814       1.48571302      -1.31981845
13
Frame=9 idx=001749 GeodesicLength=0.8664562786337829 rxn_smarts="[N:1]#[C:2][C:3]1([H:7])[C:4]([H:8])([H:9])[C:5]([H:10])([H:11])[C:6]1([H:12])[H:13]>>[C:5](=[C:6]([H:12])[H:13])([H:10])[H:11].[N:1]#[C:2][C:3](=[C:4]([H:8])[H:9])[H:7]"
N        2.87614480      -0.06460660       1.08952796
C        2.07527406      -0.44694718       0.35272643
C        0.98218256      -0.68406407      -0.52331768
C       -0.31339025      -1.08283960      -0.01923984
C       -1.44126557       0.63455032       0.34777545
C       -0.29382515       1.13126176      -0.31518557
H        1.24717386      -0.96930965      -1.53392410
H       -0.88250833      -1.78118722      -0.62310743
H       -0.39128353      -1.28370101       1.04190547
H       -2.37809387       0.58019737      -0.19399565
H       -1.52683320       0.76421613       1.42030406
H        0.43418506       1.67569962       0.27714219
H       -0.38776043       1.52673014      -1.32061127
13
Frame=10 idx=001749 GeodesicLength=0.963235458483211 rxn_smarts="[N:1]#[C:2][C:3]1([H:7])[C:4]([H:8])([H:9])[C:5]([H:10])([H:11])[C:6]1([H:12])[H:13]>>[C:5](=[C:6]([H:12])[H:13])([H:10])[H:11].[N:1]#[C:2][C:3](=[C:4]([H:8])[H:9])[H:7]"
N        2.86105352      -0.06388013       1.09939782
C        2.06709640      -0.45319111       0.35978301
C        0.97402515      -0.68341501      -0.52357796
C       -0.31247860      -1.11360944      -0.02906117
C       -1.42870290       0.63834855       0.35004064
C       -0.29404372       1.15141092      -0.32607143
H        1.25541901      -0.98619691      -1.52552821
H       -0.86102160      -1.83251967      -0.62791139
H       -0.40249458      -1.29916283       1.03383231
H       -2.37489524       0.59545866      -0.17736313
H       -1.50389156       0.77331903       1.42329425
H        0.43097458       1.70363255       0.26344629
H       -0.41104046       1.56980540      -1.32028103
13
Frame=11 idx=001749 GeodesicLength=1.0600981264829141 rxn_smarts="[N:1]#[C:2][C:3]1([H:7])[C:4]([H:8])([H:9])[C:5]([H:10])([H:11])[C:6]1([H:12])[H:13]>>[C:5](=[C:6]([H:12])[H:13])([H:10])[H:11].[N:1]#[C:2][C:3](=[C:4]([H:8])[H:9])[H:7]"
N        2.84501218      -0.06326021       1.10887129
C        2.05792551      -0.45961126       0.36665770
C        0.96478904      -0.68323814      -0.52390268
C       -0.31163711      -1.14546758      -0.03888242
C       -1.41527167       0.64250247       0.35157261
C       -0.29397037       1.17256924      -0.33740201
H        1.26278186      -1.00253409      -1.51686705
H       -0.83714286      -1.88672254      -0.63128110
H       -0.41478552      -1.31461405       1.02547194
H       -2.37068166       0.61073049      -0.16092038
H       -1.48009643       0.78244885       1.42547958
H        0.42795774       1.73210391       0.24977788
H       -0.43488071       1.61509290      -1.31857538
13
Frame=12 idx=001749 GeodesicLength=1.157046500790742 rxn_smarts="[N:1]#[C:2][C:3]1([H:7])[C:4]([H:8])([H:9])[C:5]([H:10])([H:11])[C:6]1([H:12])[H:13]>>[C:5](=[C:6]([H:12])[H:13])([H:10])[H:11].[N:1]#[C:2][C:3](=[C:4]([H:8])[H:9])[H:7]"
N        2.82801373      -0.06270813       1.11777094
C        2.04773788      -0.46624342       0.37322795
C        0.95437286      -0.68361118      -0.52431925
C       -0.31087983      -1.17848069      -0.04865581
C       -1.40099037       0.64704418       0.35223293
C       -0.29355523       1.19478861      -0.34914414
H        1.26905627      -1.01823448      -1.50807599
H       -0.81052440      -1.94396537      -0.63277862
H       -0.42827512      -1.32998764       1.01680151
H       -2.36540030       0.62601052      -0.14492481
H       -1.45558533       0.79157729       1.42672878
H        0.42517137       1.76105087       0.23632503
H       -0.45914153       1.66275942      -1.31518852
13
Frame=13 idx=001749 GeodesicLength=1.254030511732108 rxn_smarts="[N:1]#[C:2][C:3]1([H:7])[C:4]([H:8])([H:9])[C:5]([H:10])([H:11])[C:6]1([H:12])[H:13]>>[C:5](=[C:6]([H:12])[H:13])([H:10])[H:11].[N:1]#[C:2][C:3](=[C:4]([H:8])[H:9])[H:7]"
N        2.81013747      -0.06218766       1.12579655
C        2.03653896      -0.47312305       0.37931297
C        0.94266212      -0.68459226      -0.52487240
C       -0.31021650      -1.21271745      -0.05828387
C       -1.38592170       0.65198523       0.35184487
C       -0.29272795       1.21812411      -0.36120213
H        1.27397071      -1.03318360      -1.49932467
H       -0.78083672      -2.00437501      -0.63182892
H       -0.44305848      -1.34517872       1.00782050
H       -2.35899064       0.64125289      -0.12978063
H       -1.43065178       0.80066216       1.42687179
H        0.42263356       1.79038103       0.22340144
H       -0.48353905       1.71295233      -1.30975552
13
Frame=14 idx=001749 GeodesicLength=1.3510739854874843 rxn_smarts="[N:1]#[C:2][C:3]1([H:7])[C:4]([H:8])([H:9])[C:5]([H:10])([H:11])[C:6]1([H:12])[H:13]>>[C:5](=[C:6]([H:12])[H:13])([H:10])[H:11].[N:1]#[C:2][C:3](=[C:4]([H:8])[H:9])[H:7]"
N        2.79139472      -0.06166607       1.13273442
C        2.02430993      -0.48027936       0.38476288
C        0.92953394      -0.68625957      -0.52558763
C       -0.30966302      -1.24824554      -0.06773079
C       -1.37011759       0.65737114       0.35026531
C       -0.29143975       1.24263554      -0.37353146
H        1.27732925      -1.04733921      -1.49079734
H       -0.74760945      -2.06804508      -0.62788074
H       -0.45931327      -1.36012671       0.99844939
H       -2.35145386       0.65647374      -0.11577355
H       -1.40547076       0.80965592       1.42578734
H        0.42039631       1.82001852       0.21122452
H       -0.50789645       1.76580670      -1.30192235
13
Frame=15 idx=001749 GeodesicLength=1.448121884951223 rxn_smarts="[N:1]#[C:2][C:3]1([H:7])[C:4]([H:8])([H:9])[C:5]([H:10])([H:11])[C:6]1([H:12])[H:13]>>[C:5](=[C:6]([H:12])[H:13])([H:10])[H:11].[N:1]#[C:2][C:3](=[C:4]([H:8])[H:9])[H:7]"
N        2.77185333      -0.06108646       1.13826356
C        2.01105377      -0.48773785       0.38937443
C        0.91486296      -0.68866990      -0.52651082
C       -0.30922343      -1.28514205      -0.07692574
C       -1.35366260       0.66321361       0.34733257
C       -0.28962090       1.26837056      -0.38602206
H        1.27889445      -1.06064985      -1.48269449
H       -0.71042488      -2.13490398      -0.62027407
H       -0.47719488      -1.37475410       0.98860661
H       -2.34278112       0.67164501      -0.10330162
H       -1.38034915       0.81849219       1.42333665
H        0.41848986       1.84985794       0.20011590
H       -0.53189742       1.82136487      -1.29130091
13
Frame=16 idx=001749 GeodesicLength=1.5451973857025727 rxn_smarts="[N:1]#[C:2][C:3]1([H:7])[C:4]([H:8])([H:9])[C:5]([H:10])([H:11])[C:6]1([H:12])[H:13]>>[C:5](=[C:6]([H:12])[H:13])([H:10])[H:11].[N:1]#[C:2][C:3](=[C:4]([H:8])[H:9])[H:7]"
N        2.75163308      -0.06048424       1.14203095
C        1.99679547      -0.49554159       0.39290157
C        0.89851078      -0.69187539      -0.52770330
C       -0.30887124      -1.32348772      -0.08580004
C       -1.33667818       0.66953871       0.34286116
C       -0.28721740       1.29542437      -0.39853529
H        1.27838066      -1.07309687      -1.47527307
H       -0.66871037      -2.20479155      -0.60815141
H       -0.49688291      -1.38900007       0.97815534
H       -2.33300132       0.68675871      -0.09283688
H       -1.35567773       0.82709151       1.41936502
H        0.41692869       1.87980443       0.19046346
H       -0.55520954       1.87965969      -1.27747750
