12
Frame=0 idx=009749 GeodesicLength=0.0 rxn_smarts="[O:1]=[C:2]1[C:3]([H:8])([H:9])[C:4]([H:10])([H:11])[N:5]=[C:6]([H:12])[O:7]1>>[C:3]1([H:8])([H:9])[C:4]([H:10])([H:11])[N:5]1[C:6](=[O:7])[H:12].[O+:1]#[C-:2]"
O       -0.95644889       2.85153537      -0.18065122
C       -0.61089710       1.82428196       0.13216576
C       -1.09537185      -0.49127214       0.46069589
C       -0.13852010      -1.30473609      -0.26330021
N        1.04580875      -0.78288608       0.40876348
C        1.57812022       0.31714636      -0.09972218
O        1.10592345       1.06802885      -0.97610662
H       -1.12101965      -0.57374698       1.53912926
H       -1.91913395       0.01692133      -0.01600241
H       -0.17681417      -1.13839629      -1.34162432
H       -0.24357670      -2.37107905      -0.04319074
H        2.53192994       0.58420276       0.37984336
12
Frame=1 idx=009749 GeodesicLength=0.04997169743748299 rxn_smarts="[O:1]=[C:2]1[C:3]([H:8])([H:9])[C:4]([H:10])([H:11])[N:5]=[C:6]([H:12])[O:7]1>>[C:3]1([H:8])([H:9])[C:4]([H:10])([H:11])[N:5]1[C:6](=[O:7])[H:12].[O+:1]#[C-:2]"
O       -0.96802216       2.84652109      -0.20878385
C       -0.61065918       1.82289610       0.10833541
C       -1.07188975      -0.47738157       0.47284271
C       -0.14298720      -1.30571440      -0.27583046
N        1.04229439      -0.79260458       0.39742969
C        1.58202949       0.31048615      -0.09405602
O        1.11300781       1.07735349      -0.96152588
H       -1.09839443      -0.57634044       1.55020582
H       -1.91931605       0.00824320       0.01394976
H       -0.18981067      -1.12721943      -1.35150696
H       -0.25705859      -2.37149806      -0.06045837
H        2.52080635       0.58525845       0.40939814
12
Frame=2 idx=009749 GeodesicLength=0.09983805152594419 rxn_smarts="[O:1]=[C:2]1[C:3]([H:8])([H:9])[C:4]([H:10])([H:11])[N:5]=[C:6]([H:12])[O:7]1>>[C:3]1([H:8])([H:9])[C:4]([H:10])([H:11])[N:5]1[C:6](=[O:7])[H:12].[O+:1]#[C-:2]"
O       -0.97979175       2.84074623      -0.23660183
C       -0.61080331       1.82085684       0.08484271
C       -1.04887746      -0.46381482       0.48426070
C       -0.14754447      -1.30597537      -0.28788735
N        1.03846154      -0.80128224       0.38663881
C        1.58586307       0.30432881      -0.08809809
O        1.11992966       1.08706314      -0.94634985
H       -1.07679612      -0.57907682       1.56035650
H       -1.91851216      -0.00038621       0.04373786
H       -0.20230647      -1.11596558      -1.36086173
H       -0.27031532      -2.37110420      -0.07702315
H        2.51069280       0.58461022       0.43698542
12
Frame=3 idx=009749 GeodesicLength=0.14969096023101025 rxn_smarts="[O:1]=[C:2]1[C:3]([H:8])([H:9])[C:4]([H:10])([H:11])[N:5]=[C:6]([H:12])[O:7]1>>[C:3]1([H:8])([H:9])[C:4]([H:10])([H:11])[N:5]1[C:6](=[O:7])[H:12].[O+:1]#[C-:2]"
O       -0.99157393       2.83409679      -0.26443716
C       -0.61104264       1.81815487       0.06159456
C       -1.02617045      -0.45057246       0.49515634
C       -0.15230153      -1.30561849      -0.29965901
N        1.03447367      -0.80928619       0.37596798
C        1.58975424       0.29839263      -0.08213743
O        1.12678934       1.09695459      -0.93077607
H       -1.05560494      -0.58187868       1.56981051
H       -1.91669339      -0.00884269       0.07374446
H       -0.21468272      -1.10459236      -1.36986351
H       -0.28357630      -2.37001956      -0.09320211
H        2.50062866       0.58321155       0.46380145
12
Frame=4 idx=009749 GeodesicLength=0.1995823083728059 rxn_smarts="[O:1]=[C:2]1[C:3]([H:8])([H:9])[C:4]([H:10])([H:11])[N:5]=[C:6]([H:12])[O:7]1>>[C:3]1([H:8])([H:9])[C:4]([H:10])([H:11])[N:5]1[C:6](=[O:7])[H:12].[O+:1]#[C-:2]"
O       -1.00378679       2.82647952      -0.29261672
C       -0.61166896       1.81485729       0.03858209
C       -1.00387904      -0.43763225       0.50558121
C       -0.15720641      -1.30454465      -0.31109840
N        1.03025475      -0.81652293       0.36564808
C        1.59355237       0.29290816      -0.07570613
O        1.13357173       1.10730073      -0.91434436
H       -1.03495604      -0.58472861       1.57862141
H       -1.91397592      -0.01720804       0.10380373
H       -0.22676705      -1.09288689      -1.37846355
H       -0.29677674      -2.36817929      -0.10907199
H        2.49163808       0.58015696       0.48906462
12
Frame=5 idx=009749 GeodesicLength=0.24967255710654923 rxn_smarts="[O:1]=[C:2]1[C:3]([H:8])([H:9])[C:4]([H:10])([H:11])[N:5]=[C:6]([H:12])[O:7]1>>[C:3]1([H:8])([H:9])[C:4]([H:10])([H:11])[N:5]1[C:6](=[O:7])[H:12].[O+:1]#[C-:2]"
O       -1.01562538       2.81773476      -0.32134439
C       -0.61187105       1.81084330       0.01569327
C       -0.98149783      -0.42499425       0.51583436
C       -0.16251081      -1.30297037      -0.32257422
N        1.02614121      -0.82366721       0.35461402
C        1.59763373       0.28715798      -0.06992454
O        1.14040561       1.11746199      -0.89797987
H       -1.01355578      -0.58756531       1.58713688
H       -1.91004540      -0.02520899       0.13472760
H       -0.23941308      -1.08094227      -1.38699339
H       -0.31038917      -2.36577661      -0.12503142
H        2.48072796       0.57792699       0.51584170
12
Frame=6 idx=009749 GeodesicLength=0.29984579676195644 rxn_smarts="[O:1]=[C:2]1[C:3]([H:8])([H:9])[C:4]([H:10])([H:11])[N:5]=[C:6]([H:12])[O:7]1>>[C:3]1([H:8])([H:9])[C:4]([H:10])([H:11])[N:5]1[C:6](=[O:7])[H:12].[O+:1]#[C-:2]"
O       -1.02771704       2.80798028      -0.35042177
C       -0.61228100       1.80624407      -0.00688569
C       -0.95947977      -0.41265587       0.52569857
C       -0.16799072      -1.30077689      -0.33377818
N        1.02184892      -0.83015627       0.34374816
C        1.60168108       0.28170901      -0.06392544
O        1.14710645       1.12797729      -0.88087518
H       -0.99243141      -0.59040013       1.59512328
H       -1.90518087      -0.03298946       0.16562507
H       -0.25192530      -1.06875254      -1.39520439
H       -0.32398962      -2.36271289      -0.14071321
H        2.47035928       0.57453341       0.54160877
12
Frame=7 idx=009749 GeodesicLength=0.3500813758729302 rxn_smarts="[O:1]=[C:2]1[C:3]([H:8])([H:9])[C:4]([H:10])([H:11])[N:5]=[C:6]([H:12])[O:7]1>>[C:3]1([H:8])([H:9])[C:4]([H:10])([H:11])[N:5]1[C:6](=[O:7])[H:12].[O+:1]#[C-:2]"
O       -1.04002394       2.79736439      -0.37944367
C       -0.61301554       1.80107352      -0.02904696
C       -0.93802391      -0.40062536       0.53506400
C       -0.17354762      -1.29801930      -0.34457803
N        1.01726299      -0.83579952       0.33338736
C        1.60556545       0.27667079      -0.05754230
O        1.15351659       1.13892682      -0.86284273
H       -0.97205908      -0.59318642       1.60248719
H       -1.89951490      -0.04057653       0.19594702
H       -0.26405333      -1.05649541      -1.40301967
H       -0.33738128      -2.35903187      -0.15588321
H        2.46127458       0.56969889       0.56547101
12
Frame=8 idx=009749 GeodesicLength=0.40044426394286325 rxn_smarts="[O:1]=[C:2]1[C:3]([H:8])([H:9])[C:4]([H:10])([H:11])[N:5]=[C:6]([H:12])[O:7]1>>[C:3]1([H:8])([H:9])[C:4]([H:10])([H:11])[N:5]1[C:6](=[O:7])[H:12].[O+:1]#[C-:2]"
O       -1.05240929       2.78574572      -0.40876720
C       -0.61382612       1.79534805      -0.05082723
C       -0.91691919      -0.38888196       0.54410374
C       -0.17928712      -1.29474141      -0.35514093
N        1.01252354      -0.84086777       0.32309041
C        1.60941710       0.27183276      -0.05113301
O        1.15970307       1.15017468      -0.84411131
H       -0.95184851      -0.59593440       1.60942122
H       -1.89297650      -0.04788256       0.22609637
H       -0.27614644      -1.04409043      -1.41057635
H       -0.35077294      -2.35479342      -0.17078527
H        2.45254242       0.56409073       0.58862956
12
Frame=9 idx=009749 GeodesicLength=0.4510379202651979 rxn_smarts="[O:1]=[C:2]1[C:3]([H:8])([H:9])[C:4]([H:10])([H:11])[N:5]=[C:6]([H:12])[O:7]1>>[C:3]1([H:8])([H:9])[C:4]([H:10])([H:11])[N:5]1[C:6](=[O:7])[H:12].[O+:1]#[C-:2]"
O       -1.06478131       2.77291721      -0.43872108
C       -0.61452348       1.78905660      -0.07222616
C       -0.89599009      -0.37741492       0.55295199
C       -0.18529028      -1.29093516      -0.36559520
N        1.00772179      -0.84554663       0.31254776
C        1.61333062       0.26704492      -0.04487051
O        1.16572967       1.16161266      -0.82475639
H       -0.93135196      -0.59864263       1.61606700
H       -1.88551190      -0.05484752       0.25637598
H       -0.28845235      -1.03141982      -1.41797354
H       -0.36433224      -2.34998770      -0.18562844
H        2.44345152       0.55816299       0.61182859
12
Frame=10 idx=009749 GeodesicLength=0.5017816296935151 rxn_smarts="[O:1]=[C:2]1[C:3]([H:8])([H:9])[C:4]([H:10])([H:11])[N:5]=[C:6]([H:12])[O:7]1>>[C:3]1([H:8])([H:9])[C:4]([H:10])([H:11])[N:5]1[C:6](=[O:7])[H:12].[O+:1]#[C-:2]"
O       -1.07735721       2.75901873      -0.46905245
C       -0.61543045       1.78228174      -0.09311788
C       -0.87556216      -0.36621692       0.56147349
C       -0.19140735      -1.28659313      -0.37573993
N        1.00268282      -0.84951401       0.30232731
C        1.61709814       0.26258994      -0.03832558
O        1.17142545       1.17352690      -0.80431199
H       -0.91132036      -0.60130709       1.62230196
H       -1.87737180      -0.06156049       0.28612877
H       -0.30054012      -1.01858876      -1.42507374
H       -0.37776926      -2.34462227      -0.20014249
H        2.43555231       0.55098537       0.63353255
12
Frame=11 idx=009749 GeodesicLength=0.5527884086855231 rxn_smarts="[O:1]=[C:2]1[C:3]([H:8])([H:9])[C:4]([H:10])([H:11])[N:5]=[C:6]([H:12])[O:7]1>>[C:3]1([H:8])([H:9])[C:4]([H:10])([H:11])[N:5]1[C:6](=[O:7])[H:12].[O+:1]#[C-:2]"
O       -1.08994475       2.74380090      -0.50014910
C       -0.61623923       1.77503153      -0.11348298
C       -0.85536686      -0.35527254       0.56982854
C       -0.19776109      -1.28172575      -0.38575014
N        0.99754476      -0.85302074       0.29194801
C        1.62087806       0.25824713      -0.03187818
O        1.17686174       1.18573800      -0.78300615
H       -0.89110206      -0.60396896       1.62826638
H       -1.86843806      -0.06792264       0.31582684
H       -0.31279668      -1.00548320      -1.43200417
H       -0.39131273      -2.33870385      -0.21457302
H        2.42767690       0.54328012       0.65497397
12
Frame=12 idx=009749 GeodesicLength=0.6039924645631349 rxn_smarts="[O:1]=[C:2]1[C:3]([H:8])([H:9])[C:4]([H:10])([H:11])[N:5]=[C:6]([H:12])[O:7]1>>[C:3]1([H:8])([H:9])[C:4]([H:10])([H:11])[N:5]1[C:6](=[O:7])[H:12].[O+:1]#[C-:2]"
O       -1.10258953       2.72740705      -0.53170948
C       -0.61715240       1.76735394      -0.13323457
C       -0.83564828      -0.34457796       0.57791249
C       -0.20423719      -1.27636082      -0.39548037
N        0.99218868      -0.85584036       0.28181173
C        1.62451617       0.25418521      -0.02529840
O        1.18188603       1.19840917      -0.76054751
H       -0.87128716      -0.60659263       1.63388467
H       -1.85892237      -0.07401388       0.34494007
H       -0.32492040      -0.99224636      -1.43867822
H       -0.40474251      -2.33226560      -0.22869708
H        2.42090896       0.53454223       0.67509667
12
Frame=13 idx=009749 GeodesicLength=0.6554905544038313 rxn_smarts="[O:1]=[C:2]1[C:3]([H:8])([H:9])[C:4]([H:10])([H:11])[N:5]=[C:6]([H:12])[O:7]1>>[C:3]1([H:8])([H:9])[C:4]([H:10])([H:11])[N:5]1[C:6](=[O:7])[H:12].[O+:1]#[C-:2]"
O       -1.11522351       2.70954496      -0.56420826
C       -0.61799259       1.75930401      -0.15229421
C       -0.81623437      -0.33411801       0.58586293
C       -0.21092145      -1.27046160      -0.40504971
N        0.98669176      -0.85811614       0.27162260
C        1.62810582       0.25031018      -0.01875551
O        1.18655255       1.21149142      -0.73694445
H       -0.85145634      -0.60926602       1.63927477
H       -1.84876930      -0.07977319       0.37382638
H       -0.33715545      -0.97871288      -1.44517538
H       -0.41821397      -2.32528033      -0.24272236
H        2.41461683       0.52507760       0.69456320
12
Frame=14 idx=009749 GeodesicLength=0.7072297993742902 rxn_smarts="[O:1]=[C:2]1[C:3]([H:8])([H:9])[C:4]([H:10])([H:11])[N:5]=[C:6]([H:12])[O:7]1>>[C:3]1([H:8])([H:9])[C:4]([H:10])([H:11])[N:5]1[C:6](=[O:7])[H:12].[O+:1]#[C-:2]"
O       -1.12780795       2.69029271      -0.59744926
C       -0.61887014       1.75093926      -0.17058683
C       -0.79729656      -0.32388798       0.59362101
C       -0.21773917      -1.26406352      -0.41436164
N        0.98097937      -0.85969656       0.26163815
C        1.63154268       0.24673338      -0.01215980
O        1.19072841       1.22509657      -0.71199477
H       -0.83201306      -0.61197530       1.64437955
H       -1.83815734      -0.08526050       0.40212796
H       -0.34932461      -0.96499652      -1.45143828
H       -0.43157317      -2.31779289      -0.25649302
H        2.40953156       0.51461137       0.71271693
12
Frame=15 idx=009749 GeodesicLength=0.7593100557696136 rxn_smarts="[O:1]=[C:2]1[C:3]([H:8])([H:9])[C:4]([H:10])([H:11])[N:5]=[C:6]([H:12])[O:7]1>>[C:3]1([H:8])([H:9])[C:4]([H:10])([H:11])[N:5]1[C:6](=[O:7])[H:12].[O+:1]#[C-:2]"
O       -1.14025708       2.66934850      -0.63184345
C       -0.61967932       1.74230454      -0.18802782
C       -0.77871101      -0.31387410       0.60129142
C       -0.22475076      -1.25710850      -0.42349949
N        0.97510522      -0.86066814       0.25165371
C        1.63488116       0.24340034      -0.00559291
O        1.19443617       1.23918008      -0.68560884
H       -0.81266841      -0.61479133       1.64927869
H       -1.82705724      -0.09044268       0.43011798
H       -0.36160370      -0.95093232      -1.45751196
H       -0.44492558      -2.30974814      -0.27017849
H        2.40523054       0.50333175       0.72992115
12
Frame=16 idx=009749 GeodesicLength=0.8117062051673799 rxn_smarts="[O:1]=[C:2]1[C:3]([H:8])([H:9])[C:4]([H:10])([H:11])[N:5]=[C:6]([H:12])[O:7]1>>[C:3]1([H:8])([H:9])[C:4]([H:10])([H:11])[N:5]1[C:6](=[O:7])[H:12].[O+:1]#[C-:2]"
O       -1.15242653       2.64677641      -0.66720115
C       -0.62046678       1.73346748      -0.20455050
C       -0.76059641      -0.30407650       0.60883845
C       -0.23190436      -1.24965064      -0.43239794
N        0.96901624      -0.86092182       0.24183581
C        1.63803538       0.24039629       0.00093567
O        1.19754784       1.25379919      -0.65767756
H       -0.79371052      -0.61770916       1.65394158
H       -1.81561001      -0.09537063       0.45752722
H       -0.37389096      -0.93664203      -1.46336562
H       -0.45814896      -2.30121141      -0.28365470
H        2.40215508       0.49114281       0.74576873
