11
Frame=0 idx=010682 GeodesicLength=0.0 rxn_smarts="[C:1](#[C:2][c:3]1[c:4]([H:9])[c:5]([H:10])[c:6]([H:11])[o:7]1)[H:8]>>[C:1](#[C:2][C:3]#[C:4][C:5]([C:6](=[O:7])[H:11])([H:9])[H:10])[H:8]"
C        3.08983087      -0.26557120      -0.04476170
C        1.90349281      -0.11002753       0.01987820
C        0.50156281       0.08019292       0.09740700
C       -0.25540117       1.11251058       0.59828144
C       -1.63908270       0.56586239       0.30855986
C       -1.50397221      -0.73490512      -0.20310278
O       -0.24800674      -1.01790807      -0.34551015
H        4.14452364      -0.39656181      -0.09865446
H       -1.21098281       1.27716048      -0.52462363
H       -2.56529430       0.98648063       0.67325313
H       -2.21667023      -1.49723331      -0.48072693
11
Frame=1 idx=010682 GeodesicLength=0.11047279931141717 rxn_smarts="[C:1](#[C:2][c:3]1[c:4]([H:9])[c:5]([H:10])[c:6]([H:11])[o:7]1)[H:8]>>[C:1](#[C:2][C:3]#[C:4][C:5]([C:6](=[O:7])[H:11])([H:9])[H:10])[H:8]"
C        3.10063398      -0.25658077      -0.04786944
C        1.91282344      -0.11433292       0.02229804
C        0.51128675       0.07125951       0.10186234
C       -0.25349931       1.09831973       0.58530133
C       -1.63872842       0.56582054       0.30253940
C       -1.51726503      -0.74113730      -0.20152228
O       -0.26672430      -1.04404948      -0.33864818
H        4.15746346      -0.37375818      -0.09142748
H       -1.20271150       1.29487545      -0.53248427
H       -2.55740931       0.98604066       0.68634450
H       -2.24586977      -1.48645722      -0.48639395
11
Frame=2 idx=010682 GeodesicLength=0.2209996621452171 rxn_smarts="[C:1](#[C:2][c:3]1[c:4]([H:9])[c:5]([H:10])[c:6]([H:11])[o:7]1)[H:8]>>[C:1](#[C:2][C:3]#[C:4][C:5]([C:6](=[O:7])[H:11])([H:9])[H:10])[H:8]"
C        3.11140555      -0.25007170      -0.04621881
C        1.92229237      -0.11953002       0.02657151
C        0.52115746       0.06180082       0.10719279
C       -0.25165319       1.08369299       0.57199243
C       -1.63839087       0.56578361       0.29588253
C       -1.53103399      -0.74747410      -0.19985299
O       -0.28635752      -1.07082472      -0.33132567
H        4.17040163      -0.34725797      -0.08971655
H       -1.19343578       1.31295260      -0.54048871
H       -2.54907571       0.98587957       0.69862610
H       -2.27530995      -1.47495108      -0.49266263
11
Frame=3 idx=010682 GeodesicLength=0.33154939889460594 rxn_smarts="[C:1](#[C:2][c:3]1[c:4]([H:9])[c:5]([H:10])[c:6]([H:11])[o:7]1)[H:8]>>[C:1](#[C:2][C:3]#[C:4][C:5]([C:6](=[O:7])[H:11])([H:9])[H:10])[H:8]"
C        3.12213928      -0.24569688      -0.04129805
C        1.93189291      -0.12611298       0.03330520
C        0.53119153       0.05157019       0.11361915
C       -0.24968809       1.06834662       0.55855737
C       -1.63797411       0.56579133       0.28845169
C       -1.54535768      -0.75377895      -0.19846742
O       -0.30690351      -1.09839604      -0.32371411
H        4.18282756      -0.31659282      -0.09273482
H       -1.18275840       1.33153111      -0.54848199
H       -2.54016901       0.98612473       0.70986018
H       -2.30520048      -1.46278631      -0.49909719
11
Frame=4 idx=010682 GeodesicLength=0.4421297244041495 rxn_smarts="[C:1](#[C:2][c:3]1[c:4]([H:9])[c:5]([H:10])[c:6]([H:11])[o:7]1)[H:8]>>[C:1](#[C:2][C:3]#[C:4][C:5]([C:6](=[O:7])[H:11])([H:9])[H:10])[H:8]"
C        3.13319846      -0.23796976      -0.03852236
C        1.94187659      -0.13008848       0.03868143
C        0.54150054       0.04273056       0.11923709
C       -0.24829193       1.05346922       0.54403446
C       -1.63779586       0.56520142       0.28118973
C       -1.55950433      -0.76055553      -0.19653668
O       -0.32764498      -1.12562249      -0.31633453
H        4.19483801      -0.29181722      -0.09243075
H       -1.17306352       1.35061767      -0.55608587
H       -2.53104279       0.98497089       0.72210358
H       -2.33407018      -1.45093628      -0.50533608
11
Frame=5 idx=010682 GeodesicLength=0.5526483398206657 rxn_smarts="[C:1](#[C:2][c:3]1[c:4]([H:9])[c:5]([H:10])[c:6]([H:11])[o:7]1)[H:8]>>[C:1](#[C:2][C:3]#[C:4][C:5]([C:6](=[O:7])[H:11])([H:9])[H:10])[H:8]"
C        3.14449971      -0.22997055      -0.03525692
C        1.95213841      -0.13234395       0.04114704
C        0.55209290       0.03482757       0.12309703
C       -0.24695683       1.03868620       0.52796019
C       -1.63766454       0.56415746       0.27416839
C       -1.57386995      -0.76760502      -0.19427721
O       -0.34902127      -1.15276048      -0.30985535
H        4.20690892      -0.26897100      -0.08900153
H       -1.16431750       1.37045410      -0.56321626
H       -2.52110756       0.98277577       0.73582597
H       -2.36270230      -1.43925011      -0.51059136
11
Frame=6 idx=010682 GeodesicLength=0.6630868698059807 rxn_smarts="[C:1](#[C:2][c:3]1[c:4]([H:9])[c:5]([H:10])[c:6]([H:11])[o:7]1)[H:8]>>[C:1](#[C:2][C:3]#[C:4][C:5]([C:6](=[O:7])[H:11])([H:9])[H:10])[H:8]"
C        3.15576469      -0.21993801      -0.03777062
C        1.96262660      -0.13439256       0.04388343
C        0.56292083       0.02700289       0.12698696
C       -0.24570079       1.02351277       0.51119639
C       -1.63757313       0.56280670       0.26700691
C       -1.58858502      -0.77483728      -0.19189158
O       -0.37130220      -1.18034376      -0.30307026
H        4.21897798      -0.24750025      -0.08079581
H       -1.15531584       1.39097903      -0.56976967
H       -2.51053481       0.98013002       0.74969519
H       -2.39127830      -1.42741955      -0.51547093
11
Frame=7 idx=010682 GeodesicLength=0.7734716637796845 rxn_smarts="[C:1](#[C:2][c:3]1[c:4]([H:9])[c:5]([H:10])[c:6]([H:11])[o:7]1)[H:8]>>[C:1](#[C:2][C:3]#[C:4][C:5]([C:6](=[O:7])[H:11])([H:9])[H:10])[H:8]"
C        3.16748592      -0.21123580      -0.03290136
C        1.97341559      -0.13464482       0.04478217
C        0.57404242       0.02016556       0.12966935
C       -0.24471966       1.00839812       0.49298856
C       -1.63764898       0.56104442       0.25967271
C       -1.60346140      -0.78225654      -0.18964994
O       -0.39415120      -1.20790766      -0.29681560
H        4.23091128      -0.22676001      -0.07633929
H       -1.14697413       1.41250179      -0.57581277
H       -2.49934380       0.97651907       0.76414748
H       -2.41955606      -1.41582412      -0.51974132
11
Frame=8 idx=010682 GeodesicLength=0.8838257606995239 rxn_smarts="[C:1](#[C:2][c:3]1[c:4]([H:9])[c:5]([H:10])[c:6]([H:11])[o:7]1)[H:8]>>[C:1](#[C:2][C:3]#[C:4][C:5]([C:6](=[O:7])[H:11])([H:9])[H:10])[H:8]"
C        3.17936869      -0.20148797      -0.02956912
C        1.98448321      -0.13411050       0.04497747
C        0.58545145       0.01368317       0.13190036
C       -0.24387111       0.99296167       0.47364730
C       -1.63781410       0.55891202       0.25218562
C       -1.61868181      -0.78984993      -0.18745277
O       -0.41794727      -1.23586217      -0.29043200
H        4.24294927      -0.20719982      -0.06957747
H       -1.13867680       1.43493440      -0.58110252
H       -2.48742232       0.97227495       0.77885803
H       -2.44783919      -1.40425583      -0.52343491
11
Frame=9 idx=010682 GeodesicLength=0.9942938112225079 rxn_smarts="[C:1](#[C:2][c:3]1[c:4]([H:9])[c:5]([H:10])[c:6]([H:11])[o:7]1)[H:8]>>[C:1](#[C:2][C:3]#[C:4][C:5]([C:6](=[O:7])[H:11])([H:9])[H:10])[H:8]"
C        3.19145683      -0.19062630      -0.02926080
C        1.99588799      -0.13286394       0.04435603
C        0.59721302       0.00749811       0.13351668
C       -0.24310417       0.97703755       0.45303395
C       -1.63807595       0.55639867       0.24446150
C       -1.63445770      -0.79760190      -0.18545890
O       -0.44286406      -1.26455246      -0.28338245
H        4.25551806      -0.18850414      -0.05919910
H       -1.13038571       1.45835937      -0.58534364
H       -2.47466867       0.96747187       0.79387701
H       -2.47651965      -1.39261683      -0.52660029
11
Frame=10 idx=010682 GeodesicLength=1.1046270846792998 rxn_smarts="[C:1](#[C:2][c:3]1[c:4]([H:9])[c:5]([H:10])[c:6]([H:11])[o:7]1)[H:8]>>[C:1](#[C:2][C:3]#[C:4][C:5]([C:6](=[O:7])[H:11])([H:9])[H:10])[H:8]"
C        3.20378402      -0.17937399      -0.02758727
C        2.00757561      -0.13065662       0.04341242
C        0.60929364       0.00177330       0.13489460
C       -0.24253657       0.96075847       0.43104072
C       -1.63848515       0.55351309       0.23637664
C       -1.65057104      -0.80548530      -0.18377362
O       -0.46866319      -1.29369884      -0.27604784
H        4.26800820      -0.17060573      -0.04927872
H       -1.12202370       1.48288259      -0.58855645
H       -2.46116578       0.96197842       0.80878830
H       -2.50521602      -1.38108540      -0.52926879
11
Frame=11 idx=010682 GeodesicLength=1.214994961768087 rxn_smarts="[C:1](#[C:2][c:3]1[c:4]([H:9])[c:5]([H:10])[c:6]([H:11])[o:7]1)[H:8]>>[C:1](#[C:2][C:3]#[C:4][C:5]([C:6](=[O:7])[H:11])([H:9])[H:10])[H:8]"
C        3.21634507      -0.16891172      -0.02251785
C        2.01951939      -0.12852585       0.04430262
C        0.62162451      -0.00409684       0.13737957
C       -0.24215355       0.94377357       0.40805033
C       -1.63898586       0.55037007       0.22756557
C       -1.66720553      -0.81342398      -0.18264099
O       -0.49581871      -1.32366844      -0.26753376
H        4.28049873      -0.15102842      -0.04396076
H       -1.11272443       1.50843015      -0.59073920
H       -2.44709797       0.95630546       0.82264846
H       -2.53400165      -1.36922401      -0.53255400
11
Frame=12 idx=010682 GeodesicLength=1.3253106258018854 rxn_smarts="[C:1](#[C:2][c:3]1[c:4]([H:9])[c:5]([H:10])[c:6]([H:11])[o:7]1)[H:8]>>[C:1](#[C:2][C:3]#[C:4][C:5]([C:6](=[O:7])[H:11])([H:9])[H:10])[H:8]"
C        3.22914397      -0.15778648      -0.01718713
C        2.03175773      -0.12548152       0.04487235
C        0.63430454      -0.00956756       0.13983753
C       -0.24191189       0.92626632       0.38323714
C       -1.63958123       0.54680477       0.21835181
C       -1.68425566      -0.82152423      -0.18187835
O       -0.52418841      -1.35418774      -0.25850179
H        4.29307874      -0.13218172      -0.03817946
H       -1.10328393       1.53514672      -0.59161907
H       -2.43209538       0.94996511       0.83640848
H       -2.56296847      -1.35745367      -0.53534151
11
Frame=13 idx=010682 GeodesicLength=1.4356891915221364 rxn_smarts="[C:1](#[C:2][c:3]1[c:4]([H:9])[c:5]([H:10])[c:6]([H:11])[o:7]1)[H:8]>>[C:1](#[C:2][C:3]#[C:4][C:5]([C:6](=[O:7])[H:11])([H:9])[H:10])[H:8]"
C        3.24205520      -0.14655369      -0.01188434
C        2.04423651      -0.12249299       0.04717393
C        0.64726246      -0.01516952       0.14357953
C       -0.24177967       0.90787244       0.35685125
C       -1.64018628       0.54290653       0.20844207
C       -1.70192782      -0.82973140      -0.18165646
O       -0.55413396      -1.38565996      -0.24820960
H        4.30584526      -0.11216471      -0.03397410
H       -1.09290132       1.56294384      -0.59109962
H       -2.41623996       0.94342875       0.84933422
H       -2.59223042      -1.34537929      -0.53855688
11
Frame=14 idx=010682 GeodesicLength=1.546034964114346 rxn_smarts="[C:1](#[C:2][c:3]1[c:4]([H:9])[c:5]([H:10])[c:6]([H:11])[o:7]1)[H:8]>>[C:1](#[C:2][C:3]#[C:4][C:5]([C:6](=[O:7])[H:11])([H:9])[H:10])[H:8]"
C        3.25527297      -0.13434926      -0.00502693
C        2.05703851      -0.11811349       0.04912859
C        0.66058196      -0.02006197       0.14736196
C       -0.24184366       0.88889059       0.32771475
C       -1.64090909       0.53848397       0.19803934
C       -1.72003518      -0.83817688      -0.18186166
O       -0.58538250      -1.41761942      -0.23758482
H        4.31869879      -0.09356151      -0.03003900
H       -1.08252496       1.59200976      -0.58893885
H       -2.39914702       0.93603525       0.86231458
H       -2.62174983      -1.33353703      -0.54110797
11
Frame=15 idx=010682 GeodesicLength=1.6564023318427603 rxn_smarts="[C:1](#[C:2][c:3]1[c:4]([H:9])[c:5]([H:10])[c:6]([H:11])[o:7]1)[H:8]>>[C:1](#[C:2][C:3]#[C:4][C:5]([C:6](=[O:7])[H:11])([H:9])[H:10])[H:8]"
C        3.26855778      -0.12105205       0.00090093
C        2.07010050      -0.11339849       0.05366673
C        0.67416169      -0.02472876       0.15288967
C       -0.24205458       0.86888235       0.29594874
C       -1.64168561       0.53361493       0.18676587
C       -1.73875788      -0.84681160      -0.18273663
O       -0.61826592      -1.45042521      -0.22593147
H        4.33164641      -0.07494068      -0.02730683
H       -1.07117221       1.62223822      -0.58488385
H       -2.38088394       0.92820449       0.87452685
H       -2.65164624      -1.32158319      -0.54384002
11
Frame=16 idx=010682 GeodesicLength=1.766739912011819 rxn_smarts="[C:1](#[C:2][c:3]1[c:4]([H:9])[c:5]([H:10])[c:6]([H:11])[o:7]1)[H:8]>>[C:1](#[C:2][C:3]#[C:4][C:5]([C:6](=[O:7])[H:11])([H:9])[H:10])[H:8]"
C        3.28195518      -0.10604228       0.00496067
C        2.08345172      -0.10730042       0.05822373
C        0.68806989      -0.02841846       0.15842789
C       -0.24238888       0.84795695       0.25971682
C       -1.64251549       0.52811792       0.17494688
C       -1.75817640      -0.85580057      -0.18388278
O       -0.65267877      -1.48379370      -0.21457453
H        4.34496274      -0.05801455      -0.02137784
H       -1.05986687       1.65377309      -0.57864571
H       -2.36046218       0.91944133       0.88733122
H       -2.68235092      -1.30991931      -0.54512635
