15
Frame=0 idx=009119 GeodesicLength=0.0 rxn_smarts="[C:1]([C:2](=[O:3])[C:4]1([O:5][H:11])[C:6]([H:12])([H:13])[C:7]1([H:14])[H:15])([H:8])([H:9])[H:10]>>[C:1](=[C:2]([O:3][H:8])[C:4]1([O:5][H:11])[C:6]([H:12])([H:13])[C:7]1([H:14])[H:15])([H:9])[H:10]"
C        1.44638711       0.21816194      -1.28382625
C        0.94135555      -0.33046160      -0.07997844
O        1.90024467      -0.91905201       0.54447599
C       -0.39381726      -0.35630730       0.51380399
O       -0.58890195      -1.28074922       1.53016921
C       -1.59668307      -0.05924291      -0.32936850
C       -1.11283744       0.98056233       0.62134276
H        2.39544101      -0.69542833      -0.58015827
H        0.81783470       0.37058023      -2.15360075
H        2.14901968       1.02959569      -1.09958551
H        0.25189350      -1.39558144       1.98385688
H       -2.47369689      -0.62651833      -0.04879260
H       -1.46007429       0.09503114      -1.39036507
H       -0.61919904       1.85736656       0.22559933
H       -1.65696628       1.11204326       1.54642719
15
Frame=1 idx=009119 GeodesicLength=0.044851732648339956 rxn_smarts="[C:1]([C:2](=[O:3])[C:4]1([O:5][H:11])[C:6]([H:12])([H:13])[C:7]1([H:14])[H:15])([H:8])([H:9])[H:10]>>[C:1](=[C:2]([O:3][H:8])[C:4]1([O:5][H:11])[C:6]([H:12])([H:13])[C:7]1([H:14])[H:15])([H:9])[H:10]"
C        1.45116249       0.23896470      -1.26876118
C        0.94372676      -0.32702915      -0.07393879
O        1.88926770      -0.97121338       0.51550232
C       -0.39164036      -0.34858625       0.52161237
O       -0.58512223      -1.25367330       1.55568920
C       -1.59690452      -0.07498883      -0.32699250
C       -1.11876699       0.98345331       0.60704972
H        2.39025379      -0.72453393      -0.61273117
H        0.81455862       0.43270182      -2.12421307
H        2.17483408       1.02944585      -1.07559331
H        0.26411551      -1.39386954       1.98566144
H       -2.47223120      -0.64062453      -0.03789228
H       -1.46357125       0.06334257      -1.39061067
H       -0.63425025       1.85855148       0.19651743
H       -1.66543214       1.12805917       1.52870050
15
Frame=2 idx=009119 GeodesicLength=0.08942446155091903 rxn_smarts="[C:1]([C:2](=[O:3])[C:4]1([O:5][H:11])[C:6]([H:12])([H:13])[C:7]1([H:14])[H:15])([H:8])([H:9])[H:10]>>[C:1](=[C:2]([O:3][H:8])[C:4]1([O:5][H:11])[C:6]([H:12])([H:13])[C:7]1([H:14])[H:15])([H:9])[H:10]"
C        1.45620799       0.25886591      -1.25324048
C        0.94655690      -0.32279625      -0.06687710
O        1.87601063      -1.02152895       0.48538431
C       -0.38934346      -0.34011767       0.52972096
O       -0.58063107      -1.22548257       1.58121423
C       -1.59659023      -0.09041547      -0.32429841
C       -1.12485184       0.98649304       0.59291698
H        2.38397170      -0.75149151      -0.64559717
H        0.81221198       0.49210494      -2.09302629
H        2.20007586       1.02842014      -1.05298058
H        0.27581260      -1.39474306       1.98539278
H       -2.47005010      -0.65466526      -0.02696672
H       -1.46572662       0.03190200      -1.39019481
H       -0.64925968       1.85951270       0.16779404
H       -1.67439466       1.14394200       1.51075826
15
Frame=3 idx=009119 GeodesicLength=0.13406742642763886 rxn_smarts="[C:1]([C:2](=[O:3])[C:4]1([O:5][H:11])[C:6]([H:12])([H:13])[C:7]1([H:14])[H:15])([H:8])([H:9])[H:10]>>[C:1](=[C:2]([O:3][H:8])[C:4]1([O:5][H:11])[C:6]([H:12])([H:13])[C:7]1([H:14])[H:15])([H:9])[H:10]"
C        1.46162185       0.27855032      -1.23704462
C        0.95009471      -0.31710269      -0.05842915
O        1.85994767      -1.07075437       0.45348600
C       -0.38679806      -0.33060601       0.53830910
O       -0.57511810      -1.19567734       1.60713679
C       -1.59570149      -0.10585964      -0.32116507
C       -1.13141863       0.98970525       0.57880055
H        2.37575618      -0.77729760      -0.67959377
H        0.81110095       0.55018226      -2.05995808
H        2.22612458       1.02605248      -1.03164873
H        0.28676358      -1.39796853       1.98335781
H       -2.46685822      -0.66932455      -0.01572137
H       -1.46639855       0.00000418      -1.38903559
H       -0.66482428       1.86035453       0.13910628
H       -1.68429218       1.15974173       1.49239985
15
Frame=4 idx=009119 GeodesicLength=0.17858903511161842 rxn_smarts="[C:1]([C:2](=[O:3])[C:4]1([O:5][H:11])[C:6]([H:12])([H:13])[C:7]1([H:14])[H:15])([H:8])([H:9])[H:10]>>[C:1](=[C:2]([O:3][H:8])[C:4]1([O:5][H:11])[C:6]([H:12])([H:13])[C:7]1([H:14])[H:15])([H:9])[H:10]"
C        1.46728722       0.29718259      -1.22073352
C        0.95417989      -0.31092166      -0.04910850
O        1.84181719      -1.11699663       0.42126593
C       -0.38412326      -0.32048693       0.54705111
O       -0.56882873      -1.16511676       1.63279582
C       -1.59439746      -0.12086946      -0.31760411
C       -1.13789780       0.99303259       0.56489410
H        2.36698352      -0.80049030      -0.71312404
H        0.81095865       0.60488550      -2.02606274
H        2.25116880       1.02326339      -1.01207379
H        0.29603097      -1.40443868       1.97910695
H       -2.46310105      -0.68374128      -0.00412202
H       -1.46597813      -0.03151801      -1.38714031
H       -0.67990074       1.86087741       0.11078808
H       -1.69419908       1.17533824       1.47406704
15
Frame=5 idx=009119 GeodesicLength=0.2227420550368308 rxn_smarts="[C:1]([C:2](=[O:3])[C:4]1([O:5][H:11])[C:6]([H:12])([H:13])[C:7]1([H:14])[H:15])([H:8])([H:9])[H:10]>>[C:1](=[C:2]([O:3][H:8])[C:4]1([O:5][H:11])[C:6]([H:12])([H:13])[C:7]1([H:14])[H:15])([H:9])[H:10]"
C        1.47298911       0.31429144      -1.20461277
C        0.95861253      -0.30483343      -0.03926907
O        1.82243067      -1.15908075       0.38977955
C       -0.38136627      -0.31005043       0.55572298
O       -0.56182528      -1.13423513       1.65779114
C       -1.59269877      -0.13524298      -0.31362854
C       -1.14386065       0.99640627       0.55130346
H        2.35846033      -0.82057354      -0.74528342
H        0.81133617       0.65516797      -1.99192286
H        2.27410448       1.02065904      -0.99429903
H        0.30287079      -1.41450397       1.97213201
H       -2.45894176      -0.69738994       0.00781942
H       -1.46475000      -0.06223309      -1.38450082
H       -0.69390838       1.86091402       0.08299853
H       -1.70345297       1.19070451       1.45596943
15
Frame=6 idx=009119 GeodesicLength=0.26688810316807887 rxn_smarts="[C:1]([C:2](=[O:3])[C:4]1([O:5][H:11])[C:6]([H:12])([H:13])[C:7]1([H:14])[H:15])([H:8])([H:9])[H:10]>>[C:1](=[C:2]([O:3][H:8])[C:4]1([O:5][H:11])[C:6]([H:12])([H:13])[C:7]1([H:14])[H:15])([H:9])[H:10]"
C        1.47882591       0.33044737      -1.18858565
C        0.96360168      -0.29834273      -0.02871052
O        1.80162311      -1.19775076       0.35865576
C       -0.37837887      -0.29900824       0.56449118
O       -0.55378585      -1.10248458       1.68256071
C       -1.59061445      -0.14923836      -0.30907583
C       -1.14955800       0.99991072       0.53787730
H        2.34981876      -0.83825663      -0.77660943
H        0.81242398       0.70217132      -1.95762785
H        2.29593080       1.01806471      -0.97822468
H        0.30667799      -1.42848966       1.96246021
H       -2.45415294      -0.71081628       0.02050558
H       -1.46269254      -0.09282138      -1.38100330
H       -0.70734274       1.86059923       0.05535647
H       -1.71237686       1.20601526       1.43793005
15
Frame=7 idx=009119 GeodesicLength=0.31094038780486366 rxn_smarts="[C:1]([C:2](=[O:3])[C:4]1([O:5][H:11])[C:6]([H:12])([H:13])[C:7]1([H:14])[H:15])([H:8])([H:9])[H:10]>>[C:1](=[C:2]([O:3][H:8])[C:4]1([O:5][H:11])[C:6]([H:12])([H:13])[C:7]1([H:14])[H:15])([H:9])[H:10]"
C        1.48474112       0.34541236      -1.17295187
C        0.96897937      -0.29196235      -0.01786676
O        1.78013103      -1.23257935       0.32856459
C       -0.37525119      -0.28771368       0.57307639
O       -0.54466223      -1.07063305       1.70659126
C       -1.58831321      -0.16272659      -0.30402793
C       -1.15479503       1.00339441       0.52473347
H        2.34166876      -0.85351643      -0.80668984
H        0.81399744       0.74566066      -1.92362797
H        2.31618087       1.01583907      -0.96378951
H        0.30689530      -1.44538735       1.95047670
H       -2.44901670      -0.72371259       0.03387180
H       -1.46016850      -0.12287346      -1.37673650
H       -0.71985674       1.85979359       0.02811261
H       -1.72053029       1.22100474       1.42026357
15
Frame=8 idx=009119 GeodesicLength=0.35516046053648676 rxn_smarts="[C:1]([C:2](=[O:3])[C:4]1([O:5][H:11])[C:6]([H:12])([H:13])[C:7]1([H:14])[H:15])([H:8])([H:9])[H:10]>>[C:1](=[C:2]([O:3][H:8])[C:4]1([O:5][H:11])[C:6]([H:12])([H:13])[C:7]1([H:14])[H:15])([H:9])[H:10]"
C        1.49077119       0.35953966      -1.15753032
C        0.97481412      -0.28550407      -0.00662516
O        1.75808477      -1.26386738       0.29938337
C       -0.37186721      -0.27595751       0.58162458
O       -0.53405213      -1.03806721       1.73034900
C       -1.58572429      -0.17595995      -0.29832386
C       -1.15965543       1.00690599       0.51169335
H        2.33359849      -0.86689612      -0.83602219
H        0.81606865       0.78650930      -1.88964927
H        2.33539510       1.01386557      -0.95071356
H        0.30282975      -1.46559158       1.93555517
H       -2.44329591      -0.73642732       0.04828191
H       -1.45712546      -0.15295514      -1.37153141
H       -0.73179288       1.85850028       0.00080837
H       -1.72804873       1.23590549       1.40270002
15
Frame=9 idx=009119 GeodesicLength=0.399489345595876 rxn_smarts="[C:1]([C:2](=[O:3])[C:4]1([O:5][H:11])[C:6]([H:12])([H:13])[C:7]1([H:14])[H:15])([H:8])([H:9])[H:10]>>[C:1](=[C:2]([O:3][H:8])[C:4]1([O:5][H:11])[C:6]([H:12])([H:13])[C:7]1([H:14])[H:15])([H:9])[H:10]"
C        1.49686263       0.37267311      -1.14262236
C        0.98103026      -0.27915778       0.00471480
O        1.73601830      -1.29150920       0.27162840
C       -0.36827371      -0.26399357       0.58987256
O       -0.52190285      -1.00555687       1.75323919
C       -1.58297507      -0.18879059      -0.29207636
C       -1.16405902       1.01031760       0.49893498
H        2.32604778      -0.87842097      -0.86430071
H        0.81850751       0.82453917      -1.85615082
H        2.35331998       1.01234467      -0.93912733
H        0.29396987      -1.48798001       1.91833600
H       -2.43713214      -0.74879219       0.06359027
H       -1.45380980      -0.18270688      -1.36551059
H       -0.74294680       1.85665825      -0.02615791
H       -1.73465694       1.25037525       1.38562987
15
Frame=10 idx=009119 GeodesicLength=0.44382248460888035 rxn_smarts="[C:1]([C:2](=[O:3])[C:4]1([O:5][H:11])[C:6]([H:12])([H:13])[C:7]1([H:14])[H:15])([H:8])([H:9])[H:10]>>[C:1](=[C:2]([O:3][H:8])[C:4]1([O:5][H:11])[C:6]([H:12])([H:13])[C:7]1([H:14])[H:15])([H:9])[H:10]"
C        1.50297662       0.38469894      -1.12836006
C        0.98734887      -0.27338705       0.01572445
O        1.71429512      -1.31586808       0.24540851
C       -0.36471236      -0.25239967       0.59744630
O       -0.50866099      -0.97464270       1.77432117
C       -1.58026833      -0.20109450      -0.28568230
C       -1.16799278       1.01329111       0.48669796
H        2.31900709      -0.88855339      -0.89174765
H        0.82126795       0.86007937      -1.82315412
H        2.36998017       1.01110469      -0.92873766
H        0.28156224      -1.50910548       1.90074541
H       -2.43094261      -0.76056785       0.07905988
H       -1.45051101      -0.21139220      -1.35908299
H       -0.75312370       1.85411805      -0.05212315
H       -1.74022628       1.26371874       1.36948426
15
Frame=11 idx=009119 GeodesicLength=0.4884098545942064 rxn_smarts="[C:1]([C:2](=[O:3])[C:4]1([O:5][H:11])[C:6]([H:12])([H:13])[C:7]1([H:14])[H:15])([H:8])([H:9])[H:10]>>[C:1](=[C:2]([O:3][H:8])[C:4]1([O:5][H:11])[C:6]([H:12])([H:13])[C:7]1([H:14])[H:15])([H:9])[H:10]"
C        1.50912025       0.39584842      -1.11465016
C        0.99381768      -0.26802409       0.02647829
O        1.69286833      -1.33742141       0.22052423
C       -0.36111106      -0.24102674       0.60444080
O       -0.49424988      -0.94493310       1.79386980
C       -1.57756231      -0.21298967      -0.27909372
C       -1.17154453       1.01590827       0.47487286
H        2.31227995      -0.89752048      -0.91862025
H        0.82440148       0.89362963      -1.79054058
H        2.38563868       1.01014227      -0.91939918
H        0.26553266      -1.52935785       1.88271616
H       -2.42457021      -0.77196867       0.09482785
H       -1.44716607      -0.23938579      -1.35221177
H       -0.76253944       1.85096577      -0.07731995
H       -1.74491552       1.27613345       1.35410562
15
Frame=12 idx=009119 GeodesicLength=0.5332398845262298 rxn_smarts="[C:1]([C:2](=[O:3])[C:4]1([O:5][H:11])[C:6]([H:12])([H:13])[C:7]1([H:14])[H:15])([H:8])([H:9])[H:10]>>[C:1](=[C:2]([O:3][H:8])[C:4]1([O:5][H:11])[C:6]([H:12])([H:13])[C:7]1([H:14])[H:15])([H:9])[H:10]"
C        1.51530966       0.40621804      -1.10133746
C        1.00021033      -0.26336041       0.03679660
O        1.67161498      -1.35683108       0.19655480
C       -0.35768415      -0.23023881       0.61072562
O       -0.47936638      -0.91734142       1.81146391
C       -1.57496783      -0.22449789      -0.27266082
C       -1.17481970       1.01794868       0.46351571
H        2.30531750      -0.90586134      -0.94559158
H        0.82804220       0.92593566      -1.75787126
H        2.40067249       1.00902877      -0.91062587
H        0.24803811      -1.54613117       1.86601317
H       -2.41833641      -0.78292990       0.11021119
H       -1.44384206      -0.26633326      -1.34526879
H       -0.77124497       1.84713306      -0.10146194
H       -1.74894375       1.28726109       1.33953671
15
Frame=13 idx=009119 GeodesicLength=0.5783978208144597 rxn_smarts="[C:1]([C:2](=[O:3])[C:4]1([O:5][H:11])[C:6]([H:12])([H:13])[C:7]1([H:14])[H:15])([H:8])([H:9])[H:10]>>[C:1](=[C:2]([O:3][H:8])[C:4]1([O:5][H:11])[C:6]([H:12])([H:13])[C:7]1([H:14])[H:15])([H:9])[H:10]"
C        1.52149035       0.41585972      -1.08847183
C        1.00658734      -0.25923249       0.04675181
O        1.65071947      -1.37416868       0.17366779
C       -0.35434150      -0.21987630       0.61640411
O       -0.46389628      -0.89129263       1.82748991
C       -1.57246156      -0.23562081      -0.26626353
C       -1.17778325       1.01957956       0.45255043
H        2.29846500      -0.91333303      -0.97235395
H        0.83207361       0.95671040      -1.72542884
H        2.41488847       1.00809284      -0.90249831
H        0.22851439      -1.56094821       1.84992043
H       -2.41214888      -0.79346153       0.12547069
H       -1.44058334      -0.29248631      -1.33815658
H       -0.77925623       1.84274246      -0.12476817
H       -1.75226759       1.29743502       1.32568605
15
Frame=14 idx=009119 GeodesicLength=0.6237415119987939 rxn_smarts="[C:1]([C:2](=[O:3])[C:4]1([O:5][H:11])[C:6]([H:12])([H:13])[C:7]1([H:14])[H:15])([H:8])([H:9])[H:10]>>[C:1](=[C:2]([O:3][H:8])[C:4]1([O:5][H:11])[C:6]([H:12])([H:13])[C:7]1([H:14])[H:15])([H:9])[H:10]"
C        1.52762688       0.42478726      -1.07596415
C        1.01280792      -0.25578451       0.05629601
O        1.63013475      -1.38983849       0.15163599
C       -0.35122724      -0.21016051       0.62145025
O       -0.44846976      -0.86725284       1.84180768
C       -1.57010130      -0.24634976      -0.26012230
C       -1.18047346       1.02072141       0.44199776
H        2.29151263      -0.92014928      -0.99918584
H        0.83648260       0.98620245      -1.69299903
H        2.42840313       1.00714936      -0.89477870
H        0.20859666      -1.57265935       1.83540123
H       -2.40625954      -0.80344447       0.14014637
H       -1.43743950      -0.31759746      -1.33112733
H       -0.78655176       1.83781437      -0.14707837
H       -1.75504201       1.30656182       1.31252042
15
Frame=15 idx=009119 GeodesicLength=0.6692089033315844 rxn_smarts="[C:1]([C:2](=[O:3])[C:4]1([O:5][H:11])[C:6]([H:12])([H:13])[C:7]1([H:14])[H:15])([H:8])([H:9])[H:10]>>[C:1](=[C:2]([O:3][H:8])[C:4]1([O:5][H:11])[C:6]([H:12])([H:13])[C:7]1([H:14])[H:15])([H:9])[H:10]"
C        1.53372787       0.43311570      -1.06370537
C        1.01883215      -0.25300415       0.06545755
O        1.60980002      -1.40410778       0.13028880
C       -0.34837226      -0.20109835       0.62591648
O       -0.43334416      -0.84507415       1.85459048
C       -1.56790206      -0.25674419      -0.25428750
C       -1.18294445       1.02139904       0.43177720
H        2.28422878      -0.92640929      -1.02634005
H        0.84134037       1.01467401      -1.66043635
H        2.44137119       1.00611649      -0.88728375
H        0.18900322      -1.58135477       1.82271551
H       -2.40073539      -0.81289993       0.15415775
H       -1.43440376      -0.34177158      -1.32425462
H       -0.79320961       1.83239846      -0.16849939
H       -1.75739190       1.31476047       1.29990326
15
Frame=16 idx=009119 GeodesicLength=0.7147984590644305 rxn_smarts="[C:1]([C:2](=[O:3])[C:4]1([O:5][H:11])[C:6]([H:12])([H:13])[C:7]1([H:14])[H:15])([H:8])([H:9])[H:10]>>[C:1](=[C:2]([O:3][H:8])[C:4]1([O:5][H:11])[C:6]([H:12])([H:13])[C:7]1([H:14])[H:15])([H:9])[H:10]"
C        1.53976284       0.44088799      -1.05170182
C        1.02470023      -0.25077828       0.07429098
O        1.58977926      -1.41704101       0.10967536
C       -0.34570775      -0.19256302       0.62988581
O       -0.41836648      -0.82433179       1.86611488
C       -1.56584587      -0.26681935      -0.24865528
C       -1.18516786       1.02172141       0.42183025
H        2.27685198      -0.93193293      -1.05359632
H        0.84655463       1.04192562      -1.62792066
H        2.45368963       1.00519787      -0.88002554
H        0.16927086      -1.58802505       1.81127591
H       -2.39549869      -0.82186239       0.16771603
H       -1.43151084      -0.36519103      -1.31744102
H       -0.79924361       1.82655725      -0.18920376
H       -1.75926832       1.32225473       1.28775516
