14
Frame=0 idx=007377 GeodesicLength=0.0 rxn_smarts="[C:1]1([H:8])([H:9])[C@@:2]2([H:10])[C:3]([H:11])([H:12])[O:4][C:5]([H:13])=[N:6][C@@:7]12[H:14]>>[C:1]1([H:8])([H:9])[C@@:2]2([H:10])[C:3]([H:11])([H:12])[O:4][C@@:5]2([H:13])[N:6]=[C:7]1[H:14]"
C       -1.36208119      -0.33033821       0.25626542
C       -0.30824684       0.45230590      -0.44880484
C        0.58841268       1.39847566       0.34714930
O        1.47229088       0.47935972       0.97326083
C        1.20518878      -0.59306715       0.09198090
N        0.71125341      -1.76563298       0.52105525
C       -0.39939397      -1.38372708      -0.19703768
H       -1.41257805      -0.20014432       1.33221336
H       -2.33287784      -0.35996677      -0.22663891
H       -0.49190481       0.68627496      -1.48980635
H        0.05235330       1.98463041       1.09740582
H        1.12882404       2.07501948      -0.32458158
H        1.83101274      -0.54121786      -0.80603658
H       -0.68225313      -1.90197178      -1.12642494
14
Frame=1 idx=007377 GeodesicLength=0.057236214464543175 rxn_smarts="[C:1]1([H:8])([H:9])[C@@:2]2([H:10])[C:3]([H:11])([H:12])[O:4][C:5]([H:13])=[N:6][C@@:7]12[H:14]>>[C:1]1([H:8])([H:9])[C@@:2]2([H:10])[C:3]([H:11])([H:12])[O:4][C@@:5]2([H:13])[N:6]=[C:7]1[H:14]"
C       -1.36371904      -0.32772473       0.25449380
C       -0.30570182       0.44993308      -0.45142364
C        0.58471163       1.39857315       0.34699365
O        1.47633898       0.48209796       0.96763034
C        1.21882580      -0.59024847       0.08684402
N        0.71018790      -1.75897607       0.50956506
C       -0.40595785      -1.38488371      -0.19928644
H       -1.41695811      -0.19950987       1.33062999
H       -2.33465784      -0.35350375      -0.22872398
H       -0.49558556       0.69640597      -1.48867933
H        0.04976170       1.97805402       1.10311551
H        1.12026751       2.08280025      -0.32058654
H        1.86301675      -0.55029732      -0.79805219
H       -0.70053005      -1.92272052      -1.11252025
14
Frame=2 idx=007377 GeodesicLength=0.11446603589914615 rxn_smarts="[C:1]1([H:8])([H:9])[C@@:2]2([H:10])[C:3]([H:11])([H:12])[O:4][C:5]([H:13])=[N:6][C@@:7]12[H:14]>>[C:1]1([H:8])([H:9])[C@@:2]2([H:10])[C:3]([H:11])([H:12])[O:4][C@@:5]2([H:13])[N:6]=[C:7]1[H:14]"
C       -1.36537270      -0.32509670       0.25263888
C       -0.30321929       0.44758880      -0.45416974
C        0.58096359       1.39862103       0.34677054
O        1.48028149       0.48482760       0.96192574
C        1.23260352      -0.58725757       0.08141813
N        0.70929866      -1.75218743       0.49716191
C       -0.41266715      -1.38603078      -0.20181070
H       -1.42128373      -0.19902164       1.32897696
H       -2.33648356      -0.34695287      -0.23080999
H       -0.49945099       0.70675269      -1.48742152
H        0.04719545       1.97139932       1.10872680
H        1.11162716       2.09050333      -0.31656812
H        1.89587247      -0.55946201      -0.78908860
H       -0.71936492      -1.94368376      -1.09775029
14
Frame=3 idx=007377 GeodesicLength=0.17168596237500944 rxn_smarts="[C:1]1([H:8])([H:9])[C@@:2]2([H:10])[C:3]([H:11])([H:12])[O:4][C:5]([H:13])=[N:6][C@@:7]12[H:14]>>[C:1]1([H:8])([H:9])[C@@:2]2([H:10])[C:3]([H:11])([H:12])[O:4][C@@:5]2([H:13])[N:6]=[C:7]1[H:14]"
C       -1.36704046      -0.32245604       0.25069790
C       -0.30080885       0.44528227      -0.45705274
C        0.57716771       1.39861823       0.34647453
O        1.48411005       0.48753744       0.95613966
C        1.24652608      -0.58408211       0.07566951
N        0.70858814      -1.74526131       0.48377111
C       -0.41952755      -1.38716533      -0.20463664
H       -1.42554167      -0.19869428       1.32725306
H       -2.33835807      -0.34031363      -0.23288723
H       -0.50350970       0.71731816      -1.48603259
H        0.04465641       1.96466396       1.11423679
H        1.10290568       2.09812753      -0.31252713
H        1.92959406      -0.56872239      -0.77905698
H       -0.73876181      -1.96485251      -1.08204926
14
Frame=4 idx=007377 GeodesicLength=0.2288949753247232 rxn_smarts="[C:1]1([H:8])([H:9])[C@@:2]2([H:10])[C:3]([H:11])([H:12])[O:4][C:5]([H:13])=[N:6][C@@:7]12[H:14]>>[C:1]1([H:8])([H:9])[C@@:2]2([H:10])[C:3]([H:11])([H:12])[O:4][C@@:5]2([H:13])[N:6]=[C:7]1[H:14]"
C       -1.36872034      -0.31980511       0.24866729
C       -0.29848162       0.44302530      -0.46008375
C        0.57332332       1.39856375       0.34610003
O        1.48781586       0.49021383       0.95026198
C        1.26059808      -0.58070800       0.06955698
N        0.70805902      -1.73818997       0.46930664
C       -0.42654447      -1.38828283      -0.20779479
H       -1.42971727      -0.19854475       1.32545666
H       -2.34028447      -0.33358525      -0.23494569
H       -0.50777149       0.72810766      -1.48451357
H        0.04214740       1.95784430       1.11964376
H        1.09410603       2.10567277      -0.30846319
H        1.96419522      -0.57809057      -0.76785353
H       -0.75872526      -1.98622113      -1.06533882
14
Frame=5 idx=007377 GeodesicLength=0.2860897453123462 rxn_smarts="[C:1]1([H:8])([H:9])[C@@:2]2([H:10])[C:3]([H:11])([H:12])[O:4][C:5]([H:13])=[N:6][C@@:7]12[H:14]>>[C:1]1([H:8])([H:9])[C@@:2]2([H:10])[C:3]([H:11])([H:12])[O:4][C@@:5]2([H:13])[N:6]=[C:7]1[H:14]"
C       -1.37041016      -0.31714676       0.24654277
C       -0.29625044       0.44083031      -0.46327390
C        0.56943027       1.39845579       0.34564034
O        1.49139083       0.49284066       0.94427954
C        1.27482458      -0.57712214       0.06303481
N        0.70771151      -1.73095987       0.45368008
C       -0.43372500      -1.38937984      -0.21132121
H       -1.43379171      -0.19859413       1.32358683
H       -2.34226845      -0.32676920      -0.23697453
H       -0.51224866       0.73912725      -1.48286524
H        0.03967308       1.95093569       1.12494654
H        1.08523252       2.11313841      -0.30437785
H        1.99967564      -0.58758471      -0.75536333
H       -0.77924402      -2.00777145      -1.04753484
14
Frame=6 idx=007377 GeodesicLength=0.34326496255401157 rxn_smarts="[C:1]1([H:8])([H:9])[C@@:2]2([H:10])[C:3]([H:11])([H:12])[O:4][C:5]([H:13])=[N:6][C@@:7]12[H:14]>>[C:1]1([H:8])([H:9])[C@@:2]2([H:10])[C:3]([H:11])([H:12])[O:4][C@@:5]2([H:13])[N:6]=[C:7]1[H:14]"
C       -1.37210707      -0.31448498       0.24432017
C       -0.29412889       0.43871313      -0.46663617
C        0.56548831       1.39829379       0.34508983
O        1.49482658       0.49540060       0.93817654
C        1.28921131      -0.57330606       0.05604920
N        0.70754822      -1.72355884       0.43679012
C       -0.44107264      -1.39044963      -0.21525219
H       -1.43774868      -0.19886183       1.32163924
H       -2.34431238      -0.31986583      -0.23896139
H       -0.51695441       0.75038651      -1.48108965
H        0.03723879       1.94393135       1.13014592
H        1.07628786       2.12052656      -0.30026848
H        2.03603170      -0.59723013      -0.74145974
H       -0.80030871      -2.02949465      -1.02854340
14
Frame=7 idx=007377 GeodesicLength=0.40041658619214654 rxn_smarts="[C:1]1([H:8])([H:9])[C@@:2]2([H:10])[C:3]([H:11])([H:12])[O:4][C:5]([H:13])=[N:6][C@@:7]12[H:14]>>[C:1]1([H:8])([H:9])[C@@:2]2([H:10])[C:3]([H:11])([H:12])[O:4][C@@:5]2([H:13])[N:6]=[C:7]1[H:14]"
C       -1.37380821      -0.31182353       0.24199400
C       -0.29213224       0.43669057      -0.47018349
C        0.56149817       1.39807586       0.34444192
O        1.49811363       0.49787436       0.93193554
C        1.30376422      -0.56924267       0.04854071
N        0.70756814      -1.71596620       0.41852527
C       -0.44859309      -1.39148608      -0.21963170
H       -1.44156719      -0.19937176       1.31960756
H       -2.34642039      -0.31287818      -0.24089062
H       -0.52190357       0.76189599      -1.47918820
H        0.03485155       1.93682361       1.13524179
H        1.06727704       2.12783750      -0.29613195
H        2.07324694      -0.60705664      -0.72600294
H       -0.82189498      -2.05137284      -1.00825789
14
Frame=8 idx=007377 GeodesicLength=0.45754625600239324 rxn_smarts="[C:1]1([H:8])([H:9])[C@@:2]2([H:10])[C:3]([H:11])([H:12])[O:4][C:5]([H:13])=[N:6][C@@:7]12[H:14]>>[C:1]1([H:8])([H:9])[C@@:2]2([H:10])[C:3]([H:11])([H:12])[O:4][C@@:5]2([H:13])[N:6]=[C:7]1[H:14]"
C       -1.37551026      -0.30916655       0.23955697
C       -0.29027837       0.43478479      -0.47393049
C        0.55746082       1.39780054       0.34369022
O        1.50124406       0.50023833       0.92553016
C        1.31849009      -0.56490917       0.04043538
N        0.70776634      -1.70815069       0.39876088
C       -0.45629114      -1.39247965      -0.22451007
H       -1.44522444      -0.20015187       1.31748385
H       -2.34859694      -0.30581043      -0.24274771
H       -0.52711490       0.77367226      -1.47716202
H        0.03252162       1.92959924       1.14023877
H        1.05820455       2.13507524      -0.29196215
H        2.11129073      -0.61711071      -0.70883091
H       -0.84396215      -2.07339133      -0.98655288
14
Frame=9 idx=007377 GeodesicLength=0.5146835786659173 rxn_smarts="[C:1]1([H:8])([H:9])[C@@:2]2([H:10])[C:3]([H:11])([H:12])[O:4][C:5]([H:13])=[N:6][C@@:7]12[H:14]>>[C:1]1([H:8])([H:9])[C@@:2]2([H:10])[C:3]([H:11])([H:12])[O:4][C@@:5]2([H:13])[N:6]=[C:7]1[H:14]"
C       -1.37720666      -0.30651753       0.23699834
C       -0.28859063       0.43302537      -0.47790606
C        0.55338343       1.39746240       0.34281989
O        1.50420803       0.50243701       0.91892318
C        1.33340953      -0.56028290       0.03161810
N        0.70814332      -1.70006306       0.37731014
C       -0.46416727      -1.39341618      -0.22994265
H       -1.44868021      -0.20124197       1.31527987
H       -2.35085161      -0.29867447      -0.24453801
H       -0.53263179       0.78575588      -1.47502273
H        0.03027058       1.92223908       1.14514659
H        1.04908566       2.14224354      -0.28776338
H        2.15009195      -0.62742270      -0.68967106
H       -0.86646432      -2.09554446      -0.96325221
14
Frame=10 idx=007377 GeodesicLength=0.5717892050348866 rxn_smarts="[C:1]1([H:8])([H:9])[C@@:2]2([H:10])[C:3]([H:11])([H:12])[O:4][C:5]([H:13])=[N:6][C@@:7]12[H:14]>>[C:1]1([H:8])([H:9])[C@@:2]2([H:10])[C:3]([H:11])([H:12])[O:4][C@@:5]2([H:13])[N:6]=[C:7]1[H:14]"
C       -1.37889366      -0.30388321       0.23431065
C       -0.28708384       0.43143434      -0.48211833
C        0.54926237       1.39706502       0.34183242
O        1.50699852       0.50446707       0.91209775
C        1.34852045      -0.55533983       0.02204152
N        0.70869240      -1.69168193       0.35407632
C       -0.47222842      -1.39428850      -0.23598724
H       -1.45191961      -0.20266751       1.31297258
H       -2.35318379      -0.29146830      -0.24623175
H       -0.53845699       0.79815595      -1.47276395
H        0.02809908       1.91473476       1.14996710
H        1.03991856       2.14934843      -0.28351797
H        2.18957726      -0.63808670      -0.66843790
H       -0.88930233      -2.11778958      -0.93824121
14
Frame=11 idx=007377 GeodesicLength=0.628842571553054 rxn_smarts="[C:1]1([H:8])([H:9])[C@@:2]2([H:10])[C:3]([H:11])([H:12])[O:4][C:5]([H:13])=[N:6][C@@:7]12[H:14]>>[C:1]1([H:8])([H:9])[C@@:2]2([H:10])[C:3]([H:11])([H:12])[O:4][C@@:5]2([H:13])[N:6]=[C:7]1[H:14]"
C       -1.38056258      -0.30127156       0.23148383
C       -0.28577528       0.43003833      -0.48658629
C        0.54510332       1.39660584       0.34072138
O        1.50960720       0.50629374       0.90502592
C        1.36383886      -0.55005764       0.01162008
N        0.70940871      -1.68296373       0.32891205
C       -0.48047372      -1.39508769      -0.24269895
H       -1.45491228      -0.20446068       1.31055432
H       -2.35559364      -0.28420502      -0.24782113
H       -0.54461285       0.81089858      -1.47038775
H        0.02602305       1.90707059       1.15470594
H        1.03071559       2.15639240      -0.27921679
H        2.22958817      -0.64917423      -0.64494670
H       -0.91235453      -2.14007893      -0.91136592
14
Frame=12 idx=007377 GeodesicLength=0.6858240880968836 rxn_smarts="[C:1]1([H:8])([H:9])[C@@:2]2([H:10])[C:3]([H:11])([H:12])[O:4][C:5]([H:13])=[N:6][C@@:7]12[H:14]>>[C:1]1([H:8])([H:9])[C@@:2]2([H:10])[C:3]([H:11])([H:12])[O:4][C@@:5]2([H:13])[N:6]=[C:7]1[H:14]"
C       -1.38220188      -0.29869269       0.22850584
C       -0.28468169       0.42886418      -0.49133067
C        0.54091427       1.39608029       0.33947960
O        1.51202453       0.50787941       0.89767518
C        1.37938479      -0.54441148       0.00026057
N        0.71028476      -1.67384966       0.30166028
C       -0.48889894      -1.39580646      -0.25013633
H       -1.45762386      -0.20665581       1.30801256
H       -2.35807876      -0.27690210      -0.24929073
H       -0.55112467       0.82401288      -1.46789433
H        0.02406233       1.89922704       1.15936734
H        1.02149202       2.16337651      -0.27484895
H        2.26990685      -0.66077442      -0.61899381
H       -0.93545976      -2.16234767      -0.88246656
14
Frame=13 idx=007377 GeodesicLength=0.7427202852087076 rxn_smarts="[C:1]1([H:8])([H:9])[C@@:2]2([H:10])[C:3]([H:11])([H:12])[O:4][C:5]([H:13])=[N:6][C@@:7]12[H:14]>>[C:1]1([H:8])([H:9])[C@@:2]2([H:10])[C:3]([H:11])([H:12])[O:4][C@@:5]2([H:13])[N:6]=[C:7]1[H:14]"
C       -1.38379984      -0.29616067       0.22536664
C       -0.28382384       0.42793292      -0.49636602
C        0.53670573       1.39547582       0.33809450
O        1.51424860       0.50918167       0.88999510
C        1.39518388      -0.53837960      -0.01213970
N        0.71130204      -1.66426435       0.27218248
C       -0.49750500      -1.39644533      -0.25835360
H       -1.46001765      -0.20928733       1.30533582
H       -2.36063981      -0.26959441      -0.25062741
H       -0.55802241       0.83751742      -1.46527510
H        0.02224373       1.89117318       1.16395511
H        1.01226382       2.17029268      -0.27041109
H        2.31021732      -0.67300416      -0.59036379
H       -0.95835657      -2.18443785      -0.85139294
14
Frame=14 idx=007377 GeodesicLength=0.7995104471395466 rxn_smarts="[C:1]1([H:8])([H:9])[C@@:2]2([H:10])[C:3]([H:11])([H:12])[O:4][C:5]([H:13])=[N:6][C@@:7]12[H:14]>>[C:1]1([H:8])([H:9])[C@@:2]2([H:10])[C:3]([H:11])([H:12])[O:4][C@@:5]2([H:13])[N:6]=[C:7]1[H:14]"
C       -1.38533918      -0.29368623       0.22205041
C       -0.28320931       0.42727620      -0.50171493
C        0.53249101       1.39478933       0.33656509
O        1.51626902       0.51015918       0.88196018
C        1.41126102      -0.53193641      -0.02565653
N        0.71244661      -1.65413322       0.24030457
C       -0.50627829      -1.39699194      -0.26740049
H       -1.46206155      -0.21238850       1.30250015
H       -2.36326229      -0.26230462      -0.25182530
H       -0.56531563       0.85144365      -1.46253001
H        0.02059237       1.88288451       1.16847366
H        1.00305657       2.17714280      -0.26587711
H        2.35015372      -0.68596593      -0.55889035
H       -0.98080407      -2.20628881      -0.81795932
14
Frame=15 idx=007377 GeodesicLength=0.8561681160854827 rxn_smarts="[C:1]1([H:8])([H:9])[C@@:2]2([H:10])[C:3]([H:11])([H:12])[O:4][C:5]([H:13])=[N:6][C@@:7]12[H:14]>>[C:1]1([H:8])([H:9])[C@@:2]2([H:10])[C:3]([H:11])([H:12])[O:4][C@@:5]2([H:13])[N:6]=[C:7]1[H:14]"
C       -1.38680100      -0.29128276       0.21854186
C       -0.28284009       0.42691077      -0.50738807
C        0.52829104       1.39400480       0.33488966
O        1.51808327       0.51076884       0.87354806
C        1.42764993      -0.52507276      -0.04033064
N        0.71369105      -1.64336711       0.20589734
C       -0.51520762      -1.39744550      -0.27729807
H       -1.46372654      -0.21598074       1.29947994
H       -2.36593021      -0.25507326      -0.25288726
H       -0.57299520       0.86579007      -1.45965366
H        0.01913964       1.87432956       1.17292166
H        0.99390749       2.18390662      -0.26122595
H        2.38919938      -0.69973798      -0.52447248
H       -1.00246114      -2.22775055      -0.78202238
14
Frame=16 idx=007377 GeodesicLength=0.9127118379492027 rxn_smarts="[C:1]1([H:8])([H:9])[C@@:2]2([H:10])[C:3]([H:11])([H:12])[O:4][C:5]([H:13])=[N:6][C@@:7]12[H:14]>>[C:1]1([H:8])([H:9])[C@@:2]2([H:10])[C:3]([H:11])([H:12])[O:4][C@@:5]2([H:13])[N:6]=[C:7]1[H:14]"
C       -1.38817380      -0.28895400       0.21482957
C       -0.28271995       0.42686674      -0.51340025
C        0.52411707       1.39312005       0.33307576
O        1.51969220       0.51096247       0.86475352
C        1.44438065      -0.51778860      -0.05617260
N        0.71499522      -1.63187747       0.16884305
C       -0.52428168      -1.39780612      -0.28806083
H       -1.46500227      -0.22007759       1.29628034
H       -2.36863702      -0.24792350      -0.25383896
H       -0.58105072       0.88057630      -1.45665333
H        0.01789762       1.86549497       1.17732011
H        0.98484359       2.19058750      -0.25643877
H        2.42683607      -0.71447654      -0.48709902
H       -1.02289699      -2.24870423      -0.74343858
