16
Frame=0 idx=001287 GeodesicLength=0.0 rxn_smarts="[C:1]([C:2]([C@@:3]([O:4][H:13])([C:5]([O:6][H:16])([H:14])[H:15])[H:12])([H:10])[H:11])([H:7])([H:8])[H:9]>>[C:1]([C:2]([C:3][H:12])([H:10])[H:11])([H:7])([H:8])[H:9].[O:4]([C:5]([O:6][H:16])([H:14])[H:15])[H:13]"
C       -2.16650234      -0.60296748      -0.30255426
C       -1.26581006       0.28814097       0.55718586
C        0.14262827      -0.19445803       0.75171025
O        0.76116264      -0.31454275      -0.68928250
C        1.94388743       0.63710793       0.19800163
O        2.94928362       0.56220916      -0.75658772
H       -3.16631928      -0.17635255      -0.41619273
H       -1.74802158      -0.72916518      -1.30380005
H       -2.27443675      -1.59483660       0.14450395
H       -1.25642162       1.30156852       0.13630633
H       -1.69422205       0.39022478       1.56022905
H        0.16005131      -1.22187388       1.13460339
H        1.10985327      -1.19997276      -0.83498063
H        2.36449187       0.23946252       1.10839574
H        1.47918187       1.61004222       0.27225202
H        2.66119342       1.00541318      -1.55979033
16
Frame=1 idx=001287 GeodesicLength=0.043224095742024925 rxn_smarts="[C:1]([C:2]([C@@:3]([O:4][H:13])([C:5]([O:6][H:16])([H:14])[H:15])[H:12])([H:10])[H:11])([H:7])([H:8])[H:9]>>[C:1]([C:2]([C:3][H:12])([H:10])[H:11])([H:7])([H:8])[H:9].[O:4]([C:5]([O:6][H:16])([H:14])[H:15])[H:13]"
C       -2.17099776      -0.59424119      -0.29885934
C       -1.25783534       0.28022096       0.56409179
C        0.14611221      -0.21836318       0.74386655
O        0.76038444      -0.32911715      -0.70425494
C        1.92302893       0.64545627       0.18917948
O        2.95493189       0.54687078      -0.73604484
H       -3.16877856      -0.15968677      -0.39896520
H       -1.76081287      -0.71041841      -1.30468809
H       -2.28209074      -1.59087092       0.13656014
H       -1.24574048       1.29906414       0.15718502
H       -1.67573921       0.37303246       1.57271560
H        0.15772319      -1.24905562       1.11769233
H        1.13260927      -1.20697122      -0.83657879
H        2.33444264       0.30298970       1.12708796
H        1.45173954       1.61854442       0.22011617
H        2.70102285       0.99254573      -1.54910384
16
Frame=2 idx=001287 GeodesicLength=0.08632058111659971 rxn_smarts="[C:1]([C:2]([C@@:3]([O:4][H:13])([C:5]([O:6][H:16])([H:14])[H:15])[H:12])([H:10])[H:11])([H:7])([H:8])[H:9]>>[C:1]([C:2]([C:3][H:12])([H:10])[H:11])([H:7])([H:8])[H:9].[O:4]([C:5]([O:6][H:16])([H:14])[H:15])[H:13]"
C       -2.17515947      -0.58559510      -0.29472693
C       -1.24960167       0.27244565       0.57078871
C        0.14968768      -0.24176893       0.73569212
O        0.75959424      -0.34381349      -0.71952292
C        1.90203743       0.65314099       0.17994807
O        2.96002071       0.53203059      -0.71419703
H       -3.17082101      -0.14345085      -0.38116832
H       -1.77341299      -0.69178070      -1.30500334
H       -2.28934753      -1.58673841       0.12926222
H       -1.23481352       1.29637741       0.17758193
H       -1.65692307       0.35610766       1.58478942
H        0.15542066      -1.27552360       1.10074460
H        1.15485671      -1.21341196      -0.83850878
H        2.30182516       0.36644780       1.14254984
H        1.42536224       1.62501486       0.16742248
H        2.74127442       0.98051808      -1.53565207
16
Frame=3 idx=001287 GeodesicLength=0.12941214366859793 rxn_smarts="[C:1]([C:2]([C@@:3]([O:4][H:13])([C:5]([O:6][H:16])([H:14])[H:15])[H:12])([H:10])[H:11])([H:7])([H:8])[H:9]>>[C:1]([C:2]([C:3][H:12])([H:10])[H:11])([H:7])([H:8])[H:9].[O:4]([C:5]([O:6][H:16])([H:14])[H:15])[H:13]"
C       -2.17896599      -0.57697469      -0.29020132
C       -1.24109654       0.26479942       0.57733690
C        0.15336768      -0.26471832       0.72725063
O        0.75880417      -0.35871213      -0.73504468
C        1.88087408       0.66024819       0.17025954
O        2.96447141       0.51768522      -0.69105210
H       -3.17243092      -0.12758210      -0.36278644
H       -1.78580020      -0.67307632      -1.30481060
H       -2.29616297      -1.58244940       0.12245444
H       -1.22362259       1.29354485       0.19763346
H       -1.63777263       0.33935952       1.59652745
H        0.15314922      -1.30134095       1.08381095
H        1.17664620      -1.21938986      -0.84070553
H        2.26667799       0.42983753       1.15469958
H        1.39999850       1.62952034       0.11402506
H        2.78186260       0.96924871      -1.51939735
16
Frame=4 idx=001287 GeodesicLength=0.1725814855285785 rxn_smarts="[C:1]([C:2]([C@@:3]([O:4][H:13])([C:5]([O:6][H:16])([H:14])[H:15])[H:12])([H:10])[H:11])([H:7])([H:8])[H:9]>>[C:1]([C:2]([C:3][H:12])([H:10])[H:11])([H:7])([H:8])[H:9].[O:4]([C:5]([O:6][H:16])([H:14])[H:15])[H:13]"
C       -2.18238698      -0.56833145      -0.28531266
C       -1.23231010       0.25725798       0.58376941
C        0.15714784      -0.28723157       0.71859614
O        0.75804066      -0.37387380      -0.75074961
C        1.85951046       0.66685418       0.16006770
O        2.96820136       0.50391625      -0.66666665
H       -3.17356342      -0.11202440      -0.34383867
H       -1.79790240      -0.65417288      -1.30411350
H       -2.30253644      -1.57797550       0.11602487
H       -1.21211960       1.29055876       0.21743580
H       -1.61832027       0.32270161       1.60793787
H        0.15086595      -1.32652222       1.06693251
H        1.19805262      -1.22494718      -0.84304094
H        2.22910132       0.49300763       1.16341481
H        1.37561124       1.63210638       0.05988707
H        2.82260778       0.95867620      -1.50034417
16
Frame=5 idx=001287 GeodesicLength=0.2157729336550957 rxn_smarts="[C:1]([C:2]([C@@:3]([O:4][H:13])([C:5]([O:6][H:16])([H:14])[H:15])[H:12])([H:10])[H:11])([H:7])([H:8])[H:9]>>[C:1]([C:2]([C:3][H:12])([H:10])[H:11])([H:7])([H:8])[H:9].[O:4]([C:5]([O:6][H:16])([H:14])[H:15])[H:13]"
C       -2.18541862      -0.55970269      -0.28007979
C       -1.22323044       0.24990758       0.58998432
C        0.16104417      -0.30926267       0.70978874
O        0.75730673      -0.38932221      -0.76656846
C        1.83803291       0.67287669       0.14942538
O        2.97104305       0.49088535      -0.64129016
H       -3.17419547      -0.09676668      -0.32452018
H       -1.80968179      -0.63535696      -1.30288364
H       -2.30852954      -1.57326787       0.11015168
H       -1.20027542       1.28745142       0.23672273
H       -1.59856219       0.30641186       1.61889725
H        0.14856393      -1.35101389       1.05020530
H        1.21905395      -1.23012689      -0.84544807
H        2.18943049       0.55525605       1.16859528
H        1.35236946       1.63275761       0.00548315
H        2.86304878       0.94927328      -1.47846352
16
Frame=6 idx=001287 GeodesicLength=0.25911796534426984 rxn_smarts="[C:1]([C:2]([C@@:3]([O:4][H:13])([C:5]([O:6][H:16])([H:14])[H:15])[H:12])([H:10])[H:11])([H:7])([H:8])[H:9]>>[C:1]([C:2]([C:3][H:12])([H:10])[H:11])([H:7])([H:8])[H:9].[O:4]([C:5]([O:6][H:16])([H:14])[H:15])[H:13]"
C       -2.18804483      -0.55105643      -0.27453361
C       -1.21385646       0.24274139       0.59602458
C        0.16503068      -0.33084647       0.70088548
O        0.75661619      -0.40513085      -0.78247057
C        1.81642848       0.67836313       0.13828737
O        2.97296345       0.47863872      -0.61499617
H       -3.17429520      -0.08176088      -0.30482679
H       -1.82108749      -0.61651681      -1.30116853
H       -2.31415363      -1.56834409       0.10474612
H       -1.18804170       1.28426367       0.25557228
H       -1.57853235       0.29043677       1.62946753
H        0.14617190      -1.37487594       1.03368417
H        1.23968274      -1.23500526      -0.84788417
H        2.14779100       0.61651312       1.17022515
H        1.33023020       1.63150613      -0.04922865
H        2.90309701       0.94107382      -1.45378419
16
Frame=7 idx=001287 GeodesicLength=0.302689898244001 rxn_smarts="[C:1]([C:2]([C@@:3]([O:4][H:13])([C:5]([O:6][H:16])([H:14])[H:15])[H:12])([H:10])[H:11])([H:7])([H:8])[H:9]>>[C:1]([C:2]([C:3][H:12])([H:10])[H:11])([H:7])([H:8])[H:9].[O:4]([C:5]([O:6][H:16])([H:14])[H:15])[H:13]"
C       -2.19024612      -0.54235155      -0.26872926
C       -1.20419924       0.23576038       0.60191205
C        0.16913675      -0.35195746       0.69195187
O        0.75598895      -0.42134263      -0.79837969
C        1.79468287       0.68336672       0.12660810
O        2.97385320       0.46718347      -0.58790128
H       -3.17387273      -0.06699831      -0.28479914
H       -1.83209209      -0.59751457      -1.29900126
H       -2.31933603      -1.56319101       0.09965227
H       -1.17545773       1.28100342       0.27405733
H       -1.55826197       0.27473566       1.63964993
H        0.14374090      -1.39806823       1.01744073
H        1.26001205      -1.23960534      -0.85020213
H        2.10443077       0.67650863       1.16830165
H        1.30914439       1.62844226      -0.10422895
H        2.94247603       0.93402857      -1.42633223
16
Frame=8 idx=001287 GeodesicLength=0.3464508184103143 rxn_smarts="[C:1]([C:2]([C@@:3]([O:4][H:13])([C:5]([O:6][H:16])([H:14])[H:15])[H:12])([H:10])[H:11])([H:7])([H:8])[H:9]>>[C:1]([C:2]([C:3][H:12])([H:10])[H:11])([H:7])([H:8])[H:9].[O:4]([C:5]([O:6][H:16])([H:14])[H:15])[H:13]"
C       -2.19202552      -0.53363510      -0.26267286
C       -1.19425459       0.22905642       0.60755317
C        0.17330557      -0.37261177       0.68304861
O        0.75541987      -0.43801864      -0.81426590
C        1.77291698       0.68772652       0.11446509
O        2.97363105       0.45668760      -0.56031300
H       -3.17286814      -0.05240825      -0.26462766
H       -1.84262559      -0.57870582      -1.29639537
H       -2.32422087      -1.55778557       0.09515087
H       -1.16243540       1.27774951       0.29185377
H       -1.53777870       0.25962009       1.64938625
H        0.14113488      -1.42063610       1.00158154
H        1.27996278      -1.24402877      -0.85245437
H        2.05972175       0.73469074       1.16284784
H        1.28926177       1.62345254      -0.15900475
H        2.98085415       0.92884660      -1.39615325
16
Frame=9 idx=001287 GeodesicLength=0.39046026110459164 rxn_smarts="[C:1]([C:2]([C@@:3]([O:4][H:13])([C:5]([O:6][H:16])([H:14])[H:15])[H:12])([H:10])[H:11])([H:7])([H:8])[H:9]>>[C:1]([C:2]([C:3][H:12])([H:10])[H:11])([H:7])([H:8])[H:9].[O:4]([C:5]([O:6][H:16])([H:14])[H:15])[H:13]"
C       -2.19336205      -0.52486637      -0.25641917
C       -1.18407238       0.22259431       0.61298032
C        0.17755728      -0.39274473       0.67421110
O        0.75494105      -0.45512016      -0.83004188
C        1.75110864       0.69153543       0.10180117
O        2.97226088       0.44712566      -0.53237846
H       -3.17132258      -0.03804959      -0.24430245
H       -1.85264495      -0.55985758      -1.29336335
H       -2.32868009      -1.55211127       0.09098645
H       -1.14908422       1.27444925       0.30911490
H       -1.51718074       0.24495284       1.65865212
H        0.13842644      -1.44246281       0.98611663
H        1.29962913      -1.24818871      -0.85447703
H        2.01400377       0.79089336       1.15403055
H        1.27047146       1.61675531      -0.21350770
H        3.01794836       0.92509505      -1.36340320
16
Frame=10 idx=001287 GeodesicLength=0.4347371975602708 rxn_smarts="[C:1]([C:2]([C@@:3]([O:4][H:13])([C:5]([O:6][H:16])([H:14])[H:15])[H:12])([H:10])[H:11])([H:7])([H:8])[H:9]>>[C:1]([C:2]([C:3][H:12])([H:10])[H:11])([H:7])([H:8])[H:9].[O:4]([C:5]([O:6][H:16])([H:14])[H:15])[H:13]"
C       -2.19427748      -0.51610270      -0.25001354
C       -1.17363844       0.21649910       0.61813125
C        0.18183761      -0.41240724       0.66555047
O        0.75452205      -0.47276692      -0.84569733
C        1.72940350       0.69462224       0.08874786
O        2.96971657       0.43857194      -0.50445566
H       -3.16919164      -0.02381559      -0.22404855
H       -1.86213291      -0.54132941      -1.29002958
H       -2.33287151      -1.54624006       0.08741736
H       -1.13529842       1.27129554       0.32552392
H       -1.49645717       0.23108182       1.66749109
H        0.13547408      -1.46370015       0.97124071
H        1.31886919      -1.25231841      -0.85635821
H        1.96761492       0.84459319       1.14203512
H        1.25292295       1.60830605      -0.26729659
H        3.05350670       0.92371059      -1.32823831
16
Frame=11 idx=001287 GeodesicLength=0.47916982703083844 rxn_smarts="[C:1]([C:2]([C@@:3]([O:4][H:13])([C:5]([O:6][H:16])([H:14])[H:15])[H:12])([H:10])[H:11])([H:7])([H:8])[H:9]>>[C:1]([C:2]([C:3][H:12])([H:10])[H:11])([H:7])([H:8])[H:9].[O:4]([C:5]([O:6][H:16])([H:14])[H:15])[H:13]"
C       -2.19476540      -0.50729915      -0.24343340
C       -1.16300467       0.21064852       0.62295507
C        0.18616058      -0.43148880       0.65696968
O        0.75419240      -0.49080053      -0.86108131
C        1.70780398       0.69701471       0.07525026
O        2.96599956       0.43094256      -0.47665911
H       -3.16652528      -0.00985094      -0.20377738
H       -1.87105933      -0.52289739      -1.28617080
H       -2.33670303      -1.53998500       0.08424250
H       -1.12118938       1.26797750       0.34119500
H       -1.47570022       0.21776841       1.67564476
H        0.13234143      -1.48402967       0.95676837
H        1.33775198      -1.25608329      -0.85787273
H        1.92090060       0.89574403       1.12695591
H        1.23653932       1.59820759      -0.32032030
H        3.08725746       0.92413144      -1.29066652
16
Frame=12 idx=001287 GeodesicLength=0.5240450435803796 rxn_smarts="[C:1]([C:2]([C@@:3]([O:4][H:13])([C:5]([O:6][H:16])([H:14])[H:15])[H:12])([H:10])[H:11])([H:7])([H:8])[H:9]>>[C:1]([C:2]([C:3][H:12])([H:10])[H:11])([H:7])([H:8])[H:9].[O:4]([C:5]([O:6][H:16])([H:14])[H:15])[H:13]"
C       -2.19482509      -0.49847365      -0.23679342
C       -1.15216985       0.20513171       0.62759237
C        0.19052826      -0.45007831       0.64861062
O        0.75391321      -0.50928555      -0.87632998
C        1.68631272       0.69883446       0.06130769
O        2.96119441       0.42424861      -0.44901380
H       -3.16331730       0.00396117      -0.18357226
H       -1.87944791      -0.50452751      -1.28213501
H       -2.34014857      -1.53361309       0.08137107
H       -1.10678541       1.26485958       0.35623366
H       -1.45487496       0.20506108       1.68349665
H        0.12906934      -1.50377509       0.94288778
H        1.35620721      -1.25975541      -0.85925963
H        1.87396217       0.94445861       1.10926175
H        1.22112972       1.58668767      -0.37267318
H        3.11925203       0.92626571      -1.25098429
16
Frame=13 idx=001287 GeodesicLength=0.5691439906980162 rxn_smarts="[C:1]([C:2]([C@@:3]([O:4][H:13])([C:5]([O:6][H:16])([H:14])[H:15])[H:12])([H:10])[H:11])([H:7])([H:8])[H:9]>>[C:1]([C:2]([C:3][H:12])([H:10])[H:11])([H:7])([H:8])[H:9].[O:4]([C:5]([O:6][H:16])([H:14])[H:15])[H:13]"
C       -2.19449626      -0.48964639      -0.23006817
C       -1.14117881       0.19994928       0.63191606
C        0.19489930      -0.46813836       0.64044877
O        0.75370007      -0.52819289      -0.89132681
C        1.66505801       0.69989338       0.04702092
O        2.95528390       0.41842204      -0.42190537
H       -3.15960690       0.01759158      -0.16353420
H       -1.88727930      -0.48643490      -1.27778184
H       -2.34330493      -1.52698131       0.07895942
H       -1.09210416       1.26179020       0.37040279
H       -1.43406599       0.19311007       1.69081554
H        0.12558295      -1.52277926       0.92956705
H        1.37420395      -1.26324067      -0.86042949
H        1.82726364       0.99032661       1.08898768
H        1.20688659       1.57371363      -0.42390544
H        3.14915794       0.93061700      -1.20916691
16
Frame=14 idx=001287 GeodesicLength=0.6144067361967407 rxn_smarts="[C:1]([C:2]([C@@:3]([O:4][H:13])([C:5]([O:6][H:16])([H:14])[H:15])[H:12])([H:10])[H:11])([H:7])([H:8])[H:9]>>[C:1]([C:2]([C:3][H:12])([H:10])[H:11])([H:7])([H:8])[H:9].[O:4]([C:5]([O:6][H:16])([H:14])[H:15])[H:13]"
C       -2.19379379      -0.48085126      -0.22329355
C       -1.13006485       0.19512378       0.63589207
C        0.19923588      -0.48565381       0.63251775
O        0.75353415      -0.54747911      -0.90603685
C        1.64414178       0.70015550       0.03248390
O        2.94834011       0.41340095      -0.39563650
H       -3.15540609       0.03102843      -0.14378598
H       -1.89453254      -0.46874138      -1.27315940
H       -2.34621520      -1.52011580       0.07704892
H       -1.07716734       1.25879726       0.38360165
H       -1.41333767       0.18199782       1.69757749
H        0.12183106      -1.54102817       0.91686181
H        1.39166038      -1.26656310      -0.86138692
H        1.78120663       1.03313458       1.06651586
H        1.19379784       1.55946116      -0.47374332
H        3.17676964       0.93733315      -1.16545694
16
Frame=15 idx=001287 GeodesicLength=0.659921967335029 rxn_smarts="[C:1]([C:2]([C@@:3]([O:4][H:13])([C:5]([O:6][H:16])([H:14])[H:15])[H:12])([H:10])[H:11])([H:7])([H:8])[H:9]>>[C:1]([C:2]([C:3][H:12])([H:10])[H:11])([H:7])([H:8])[H:9].[O:4]([C:5]([O:6][H:16])([H:14])[H:15])[H:13]"
C       -2.19271985      -0.47209463      -0.21649582
C       -1.11883927       0.19066995       0.63956566
C        0.20356107      -0.50264413       0.62480352
O        0.75340836      -0.56705531      -0.92051857
C        1.62354163       0.69970557       0.01770913
O        2.94044743       0.40912016      -0.37014121
H       -3.15073749       0.04429240      -0.12429984
H       -1.90124852      -0.45141842      -1.26835682
H       -2.34880789      -1.51309337       0.07559430
H       -1.06207071       1.25597575       0.39589991
H       -1.39264675       0.17169768       1.70390059
H        0.11792938      -1.55860440       0.90471756
H        1.40856661      -1.26970128      -0.86230516
H        1.73578360       1.07304116       1.04216188
H        1.18175490       1.54409867      -0.52225299
H        3.20207748       0.94601019      -1.11998215
16
Frame=16 idx=001287 GeodesicLength=0.7055643660209587 rxn_smarts="[C:1]([C:2]([C@@:3]([O:4][H:13])([C:5]([O:6][H:16])([H:14])[H:15])[H:12])([H:10])[H:11])([H:7])([H:8])[H:9]>>[C:1]([C:2]([C:3][H:12])([H:10])[H:11])([H:7])([H:8])[H:9].[O:4]([C:5]([O:6][H:16])([H:14])[H:15])[H:13]"
C       -2.19132251      -0.46342043      -0.20968837
C       -1.10753123       0.18658689       0.64288657
C        0.20784158      -0.51909675       0.61730562
O        0.75329186      -0.58685408      -0.93475391
C        1.60336573       0.69850860       0.00278429
O        2.93169407       0.40548403      -0.34570499
H       -3.14564960       0.05734253      -0.10516658
H       -1.90746170      -0.43460426      -1.26337334
H       -2.35116404      -1.50591910       0.07465452
H       -1.04682464       1.25329288       0.40719100
H       -1.37203131       0.16227146       1.70971688
H        0.11382529      -1.57546350       0.89314225
H        1.42483283      -1.27263310      -0.86317943
H        1.69140631       1.10993963       1.01620531
H        1.17079640       1.52778789      -0.56919760
H        3.22493096       0.95677731      -1.07282222
