12
Frame=0 idx=010072 GeodesicLength=0.0 rxn_smarts="[N:1]([C:2](=[O:3])[C:4]([O:5][C:6](=[O:7])[H:12])([H:10])[H:11])([H:8])[H:9]>>[N:1]([C:2]12[O:3][C:6]([H:12])([O:5][C:4]1([H:10])[H:11])[O:7]2)([H:8])[H:9]"
N       -1.56739805      -0.83212147       0.28010938
C       -0.34636499      -0.32850392       0.18928617
O        0.70230114      -1.04108875       0.59362694
C       -0.00381982       1.14983471       0.29396558
O        1.38919147       1.06103933       0.07446379
C        1.46574592      -0.24191244      -0.48831747
O        0.59977157      -0.39713828      -1.45324978
H       -2.35718127      -0.25956442       0.04281938
H       -1.66794675      -1.82893169       0.19149468
H       -0.52185230       1.75124348      -0.45447545
H       -0.19680971       1.52727218       1.30089899
H        2.50436279      -0.56012873      -0.57062221
12
Frame=1 idx=010072 GeodesicLength=0.08881712752209972 rxn_smarts="[N:1]([C:2](=[O:3])[C:4]([O:5][C:6](=[O:7])[H:12])([H:10])[H:11])([H:8])[H:9]>>[N:1]([C:2]12[O:3][C:6]([H:12])([O:5][C:4]1([H:10])[H:11])[O:7]2)([H:8])[H:9]"
N       -1.57177122      -0.83385408       0.26660186
C       -0.34755931      -0.32984781       0.21471704
O        0.69903593      -1.04026492       0.62709775
C       -0.00255125       1.14924375       0.30335522
O        1.38872063       1.06260177       0.06064022
C        1.46573297      -0.23997010      -0.49527069
O        0.58610317      -0.40215426      -1.44701581
H       -2.34814390      -0.25930935      -0.00752366
H       -1.66978322      -1.83265899       0.20280882
H       -0.52666892       1.74762698      -0.44305098
H       -0.17813510       1.53000462       1.31178470
H        2.50502022      -0.55141761      -0.59414448
12
Frame=2 idx=010072 GeodesicLength=0.17752832770985935 rxn_smarts="[N:1]([C:2](=[O:3])[C:4]([O:5][C:6](=[O:7])[H:12])([H:10])[H:11])([H:8])[H:9]>>[N:1]([C:2]12[O:3][C:6]([H:12])([O:5][C:4]1([H:10])[H:11])[O:7]2)([H:8])[H:9]"
N       -1.57530687      -0.83577815       0.25276122
C       -0.34911503      -0.33116748       0.23920312
O        0.69504108      -1.03925775       0.66091738
C       -0.00145762       1.14849948       0.31251099
O        1.38786285       1.06372970       0.04761622
C        1.46564847      -0.23799025      -0.50239385
O        0.57300425      -0.40675801      -1.44115701
H       -2.33728010      -0.25940389      -0.05598264
H       -1.67241549      -1.83585146       0.21403043
H       -0.53116487       1.74411769      -0.43196457
H       -0.16013642       1.53254867       1.32209254
H        2.50531974      -0.54268855      -0.61763383
12
Frame=3 idx=010072 GeodesicLength=0.26617880618639955 rxn_smarts="[N:1]([C:2](=[O:3])[C:4]([O:5][C:6](=[O:7])[H:12])([H:10])[H:11])([H:8])[H:9]>>[N:1]([C:2]12[O:3][C:6]([H:12])([O:5][C:4]1([H:10])[H:11])[O:7]2)([H:8])[H:9]"
N       -1.57802622      -0.83793020       0.23860117
C       -0.35101010      -0.33249397       0.26270869
O        0.69026929      -1.03806871       0.69511316
C       -0.00051650       1.14758098       0.32142579
O        1.38668630       1.06443829       0.03540343
C        1.46555344      -0.23595401      -0.50971458
O        0.56051620      -0.41093525      -1.43572736
H       -2.32481044      -0.25979532      -0.10255283
H       -1.67586660      -1.83851500       0.22525526
H       -0.53532376       1.74069598      -0.42121900
H       -0.14281661       1.53484687       1.33183516
H        2.50534498      -0.53386967      -0.64112889
12
Frame=4 idx=010072 GeodesicLength=0.35479897509294855 rxn_smarts="[N:1]([C:2](=[O:3])[C:4]([O:5][C:6](=[O:7])[H:12])([H:10])[H:11])([H:8])[H:9]>>[N:1]([C:2]12[O:3][C:6]([H:12])([O:5][C:4]1([H:10])[H:11])[O:7]2)([H:8])[H:9]"
N       -1.57994921      -0.84035096       0.22412040
C       -0.35322113      -0.33385620       0.28521344
O        0.68468176      -1.03669802       0.72973132
C        0.00028822       1.14647544       0.33008156
O        1.38526075       1.06474076       0.02400357
C        1.46550933      -0.23384673      -0.51725503
O        0.54867559      -0.41469069      -1.43076544
H       -2.31095202      -0.26040531      -0.14710193
H       -1.68013811      -1.84066845       0.23645404
H       -0.53913805       1.73733137      -0.41084248
H       -0.12619883       1.53687782       1.34101252
H        2.50518170      -0.52490904      -0.66465195
12
Frame=5 idx=010072 GeodesicLength=0.44344290527058833 rxn_smarts="[N:1]([C:2](=[O:3])[C:4]([O:5][C:6](=[O:7])[H:12])([H:10])[H:11])([H:8])[H:9]>>[N:1]([C:2]12[O:3][C:6]([H:12])([O:5][C:4]1([H:10])[H:11])[O:7]2)([H:8])[H:9]"
N       -1.58109190      -0.84307615       0.20937159
C       -0.35571620      -0.33528321       0.30674577
O        0.67822970      -1.03513025       0.76485963
C        0.00098281       1.14516759       0.33847499
O        1.38365341       1.06464133       0.01341142
C        1.46556403      -0.23166120      -0.52503904
O        0.53748510      -0.41805425      -1.42628332
H       -2.29590139      -0.26117858      -0.18961948
H       -1.68522141      -1.84231703       0.24756939
H       -0.54259848       1.73398684      -0.40084604
H       -0.11027451       1.53863039       1.34963040
H        2.50488883      -0.51572548      -0.68827531
12
Frame=6 idx=010072 GeodesicLength=0.532119332369425 rxn_smarts="[N:1]([C:2](=[O:3])[C:4]([O:5][C:6](=[O:7])[H:12])([H:10])[H:11])([H:8])[H:9]>>[N:1]([C:2]12[O:3][C:6]([H:12])([O:5][C:4]1([H:10])[H:11])[O:7]2)([H:8])[H:9]"
N       -1.58143606      -0.84618587       0.19427737
C       -0.35845163      -0.33682815       0.32726657
O        0.67086870      -1.03338973       0.80049250
C        0.00158839       1.14361919       0.34662163
O        1.38193693       1.06415379       0.00366458
C        1.46578674      -0.22936260      -0.53311520
O        0.52699299      -0.42096664      -1.42235072
H       -2.27981761      -0.26213394      -0.23029279
H       -1.69126259      -1.84333923       0.25897797
H       -0.54569144       1.73063847      -0.39120643
H       -0.09506286       1.54001100       1.35773982
H        2.50454845      -0.50621629      -0.71207531
12
Frame=7 idx=010072 GeodesicLength=0.6208607823926987 rxn_smarts="[N:1]([C:2](=[O:3])[C:4]([O:5][C:6](=[O:7])[H:12])([H:10])[H:11])([H:8])[H:9]>>[N:1]([C:2]12[O:3][C:6]([H:12])([O:5][C:4]1([H:10])[H:11])[O:7]2)([H:8])[H:9]"
N       -1.58101196      -0.84968312       0.17890218
C       -0.36140886      -0.33849431       0.34683442
O        0.66254048      -1.03144068       0.83676541
C        0.00212469       1.14184069       0.35449690
O        1.38017090       1.06327071      -0.00527517
C        1.46620602      -0.22694928      -0.54149627
O        0.51717468      -0.42349713      -1.41894270
H       -2.26286663      -0.26320732      -0.26886446
H       -1.69815674      -1.84381240       0.27031458
H       -0.54841523       1.72724811      -0.38197730
H       -0.08055612       1.54109014       1.36532207
H        2.50419877      -0.49636541      -0.73607965
12
Frame=8 idx=010072 GeodesicLength=0.7096551606460331 rxn_smarts="[N:1]([C:2](=[O:3])[C:4]([O:5][C:6](=[O:7])[H:12])([H:10])[H:11])([H:8])[H:9]>>[N:1]([C:2]12[O:3][C:6]([H:12])([O:5][C:4]1([H:10])[H:11])[O:7]2)([H:8])[H:9]"
N       -1.57982275      -0.85359392       0.16336053
C       -0.36454701      -0.34029294       0.36553706
O        0.65318883      -1.02922859       0.87380063
C        0.00262528       1.13983207       0.36210999
O        1.37841707       1.06201157      -0.01342878
C        1.46683559      -0.22442361      -0.55020699
O        0.50798059      -0.42568818      -1.41604126
H       -2.24518699      -0.26439230      -0.30539631
H       -1.70585510      -1.84375487       0.28141281
H       -0.55077223       1.72379252      -0.37317346
H       -0.06670567       1.54187900       1.37239814
H        2.50384240      -0.48614073      -0.76037235
12
Frame=9 idx=010072 GeodesicLength=0.7986415890427295 rxn_smarts="[N:1]([C:2](=[O:3])[C:4]([O:5][C:6](=[O:7])[H:12])([H:10])[H:11])([H:8])[H:9]>>[N:1]([C:2]12[O:3][C:6]([H:12])([O:5][C:4]1([H:10])[H:11])[O:7]2)([H:8])[H:9]"
N       -1.57782160      -0.85806616       0.14710735
C       -0.36777116      -0.34241087       0.38315372
O        0.64268346      -1.02692778       0.91137417
C        0.00307892       1.13743774       0.36950446
O        1.37670475       1.06026252      -0.02067734
C        1.46786270      -0.22163194      -0.55936496
O        0.49962418      -0.42731746      -1.41381632
H       -2.22674825      -0.26584516      -0.34032163
H       -1.71497957      -1.84265134       0.29370415
H       -0.55273803       1.72016346      -0.36470008
H       -0.05361915       1.54215592       1.37910920
H        2.50372376      -0.47516893      -0.78507273
12
Frame=10 idx=010072 GeodesicLength=0.887682713049029 rxn_smarts="[N:1]([C:2](=[O:3])[C:4]([O:5][C:6](=[O:7])[H:12])([H:10])[H:11])([H:8])[H:9]>>[N:1]([C:2]12[O:3][C:6]([H:12])([O:5][C:4]1([H:10])[H:11])[O:7]2)([H:8])[H:9]"
N       -1.57499734      -0.86308661       0.13065910
C       -0.37108329      -0.34475925       0.39993711
O        0.63101272      -1.02436475       0.94982749
C        0.00353677       1.13474693       0.37665671
O        1.37511589       1.05811694      -0.02711534
C        1.46919723      -0.21867142      -0.56893754
O        0.49191378      -0.42859989      -1.41213968
H       -2.20775916      -0.26745894      -0.37339599
H       -1.72511492      -1.84078105       0.30601139
H       -0.55432495       1.71638123      -0.35663559
H       -0.04119288       1.54208307       1.38537619
H        2.50369616      -0.46360625      -0.81024384
12
Frame=11 idx=010072 GeodesicLength=0.9767744870612703 rxn_smarts="[N:1]([C:2](=[O:3])[C:4]([O:5][C:6](=[O:7])[H:12])([H:10])[H:11])([H:8])[H:9]>>[N:1]([C:2]12[O:3][C:6]([H:12])([O:5][C:4]1([H:10])[H:11])[O:7]2)([H:8])[H:9]"
N       -1.57136444      -0.86866164       0.11414920
C       -0.37445598      -0.34733936       0.41598429
O        0.61808574      -1.02146973       0.98931222
C        0.00402445       1.13176303       0.38357513
O        1.37369987       1.05553958      -0.03277538
C        1.47083960      -0.21554936      -0.57895731
O        0.48478546      -0.42959623      -1.41096791
H       -2.18831797      -0.26922882      -0.40460623
H       -1.73612996      -1.83817350       0.31803344
H       -0.55552531       1.71240558      -0.34898018
H       -0.02938991       1.54174286       1.39121172
H        2.50374846      -0.45143241      -0.83597898
12
Frame=12 idx=010072 GeodesicLength=1.0659007538343956 rxn_smarts="[N:1]([C:2](=[O:3])[C:4]([O:5][C:6](=[O:7])[H:12])([H:10])[H:11])([H:8])[H:9]>>[N:1]([C:2]12[O:3][C:6]([H:12])([O:5][C:4]1([H:10])[H:11])[O:7]2)([H:8])[H:9]"
N       -1.56685726      -0.87490509       0.09745336
C       -0.37781823      -0.35024306       0.43124814
O        0.60381480      -1.01827253       1.02981927
C        0.00456178       1.12841126       0.39029016
O        1.37252088       1.05251963      -0.03759375
C        1.47286574      -0.21221436      -0.58949302
O        0.47830356      -0.43023680      -1.41037287
H       -2.16843664      -0.27125085      -0.43426652
H       -1.74833231      -1.83456459       0.33033145
H       -0.55632492       1.70818749      -0.34169688
H       -0.01823942       1.54101178       1.39669389
H        2.50394201      -0.43844288      -0.86241321
12
Frame=13 idx=010072 GeodesicLength=1.1550318988484984 rxn_smarts="[N:1]([C:2](=[O:3])[C:4]([O:5][C:6](=[O:7])[H:12])([H:10])[H:11])([H:8])[H:9]>>[N:1]([C:2]12[O:3][C:6]([H:12])([O:5][C:4]1([H:10])[H:11])[O:7]2)([H:8])[H:9]"
N       -1.56162987      -0.88160369       0.08115148
C       -0.38120108      -0.35331359       0.44608320
O        0.58800869      -1.01448368       1.07179754
C        0.00521083       1.12482146       0.39678517
O        1.37161452       1.04897724      -0.04172973
C        1.47512499      -0.20880795      -0.60051188
O        0.47216820      -0.43079384      -1.41010965
H       -2.14830753      -0.27338643      -0.46189735
H       -1.76080818      -1.83054237       0.34117734
H       -0.55669924       1.70373914      -0.33486341
H       -0.00754375       1.54027408       1.40173256
H        2.50406243      -0.42488037      -0.88961527
12
Frame=14 idx=010072 GeodesicLength=1.244109722146907 rxn_smarts="[N:1]([C:2](=[O:3])[C:4]([O:5][C:6](=[O:7])[H:12])([H:10])[H:11])([H:8])[H:9]>>[N:1]([C:2]12[O:3][C:6]([H:12])([O:5][C:4]1([H:10])[H:11])[O:7]2)([H:8])[H:9]"
N       -1.55572968      -0.88871086       0.06535551
C       -0.38458963      -0.35652970       0.46058216
O        0.57049988      -1.00998852       1.11538716
C        0.00601379       1.12100522       0.40308013
O        1.37103295       1.04485717      -0.04518810
C        1.47759203      -0.20536399      -0.61204364
O        0.46630104      -0.43130310      -1.41013786
H       -2.12800752      -0.27561982      -0.48755653
H       -1.77330911      -1.82626936       0.35033630
H       -0.55660797       1.69906269      -0.32847384
H        0.00276512       1.53959486       1.40635092
H        2.50403909      -0.41073460      -0.91769220
12
Frame=15 idx=010072 GeodesicLength=1.3331284252189806 rxn_smarts="[N:1]([C:2](=[O:3])[C:4]([O:5][C:6](=[O:7])[H:12])([H:10])[H:11])([H:8])[H:9]>>[N:1]([C:2]12[O:3][C:6]([H:12])([O:5][C:4]1([H:10])[H:11])[O:7]2)([H:8])[H:9]"
N       -1.54911077      -0.89630099       0.04992098
C       -0.38791830      -0.35997565       0.47468840
O        0.55109933      -1.00476761       1.16058639
C        0.00699832       1.11689004       0.40920643
O        1.37084165       1.04011336      -0.04788675
C        1.48033324      -0.20182802      -0.62417030
O        0.46076330      -0.43168649      -1.41053102
H       -2.10751655      -0.27803421      -0.51151471
H       -1.78605249      -1.82158754       0.35835681
H       -0.55600841       1.69412668      -0.32248662
H        0.01266739       1.53886397       1.41061641
H        2.50390329      -0.39581352      -0.94678603
12
Frame=16 idx=010072 GeodesicLength=1.4220325834088043 rxn_smarts="[N:1]([C:2](=[O:3])[C:4]([O:5][C:6](=[O:7])[H:12])([H:10])[H:11])([H:8])[H:9]>>[N:1]([C:2]12[O:3][C:6]([H:12])([O:5][C:4]1([H:10])[H:11])[O:7]2)([H:8])[H:9]"
N       -1.54196135      -0.90411060       0.03529145
C       -0.39123783      -0.36348688       0.48868886
O        0.52950370      -0.99851100       1.20776046
C        0.00824465       1.11259614       0.41516667
O        1.37108962       1.03462194      -0.04991997
C        1.48319491      -0.19834205      -0.63687692
O        0.45528171      -0.43213395      -1.41109392
H       -2.08703117      -0.28044087      -0.53344999
H       -1.79804968      -1.81725013       0.36388941
H       -0.55481671       1.68899818      -0.31694273
H        0.02236510       1.53840005       1.41446108
H        2.50341705      -0.38034084      -0.97697440
