15
Frame=0 idx=010868 GeodesicLength=0.0 rxn_smarts="[C:1]([C@@:2]12[C:3]([H:11])([H:12])[C@:4]1([O:5][H:13])[C:6]([H:14])([H:15])[O:7]2)([H:8])([H:9])[H:10]>>[C:1]([C:2](=[C:3]([H:11])[H:12])[C+:4]([O:5][H:13])[C:6]([O-:7])([H:14])[H:15])([H:8])([H:9])[H:10]"
C        1.72913075      -0.35975966       0.69029330
C        0.52859266      -0.09265295      -0.15820248
C        0.31434263      -0.76659129      -1.36554160
C       -0.80114679      -0.04163751       0.36566997
O       -1.29881264      -0.77286275       1.32227243
C       -1.23370227       1.25150834      -0.23881605
O        0.08449216       1.69776026      -0.38388991
H        2.57962342      -0.63255048       0.06734647
H        1.53243185      -1.16563665       1.40022302
H        1.96986296       0.54220980       1.25119178
H       -0.52163433      -0.54111878      -2.00889917
H        1.01044676      -1.53517685      -1.67451662
H       -2.22853926      -0.56296885       1.46337715
H       -1.79231290       1.14949841      -1.18428815
H       -1.87277499       1.82997890       0.45377991
15
Frame=1 idx=010868 GeodesicLength=0.05696385397311349 rxn_smarts="[C:1]([C@@:2]12[C:3]([H:11])([H:12])[C@:4]1([O:5][H:13])[C:6]([H:14])([H:15])[O:7]2)([H:8])([H:9])[H:10]>>[C:1]([C:2](=[C:3]([H:11])[H:12])[C+:4]([O:5][H:13])[C:6]([O-:7])([H:14])[H:15])([H:8])([H:9])[H:10]"
C        1.73304507      -0.35744182       0.69539143
C        0.53692352      -0.08763893      -0.15794717
C        0.30502880      -0.77543322      -1.35490292
C       -0.79978222      -0.04575094       0.35170845
O       -1.29260208      -0.76260924       1.32473252
C       -1.23406657       1.25249691      -0.24159553
O        0.07568120       1.69904186      -0.42860879
H        2.58718154      -0.62373468       0.07446332
H        1.53794645      -1.16968037       1.39838698
H        1.96630009       0.54091676       1.26537866
H       -0.49797994      -0.50961378      -2.02491051
H        0.98849578      -1.55977754      -1.65263318
H       -2.23223324      -0.58090849       1.43682012
H       -1.83017298       1.14814242      -1.16392504
H       -1.84376542       1.83199104       0.47764166
15
Frame=2 idx=010868 GeodesicLength=0.1139517517732574 rxn_smarts="[C:1]([C@@:2]12[C:3]([H:11])([H:12])[C@:4]1([O:5][H:13])[C:6]([H:14])([H:15])[O:7]2)([H:8])([H:9])[H:10]>>[C:1]([C:2](=[C:3]([H:11])[H:12])[C+:4]([O:5][H:13])[C:6]([O-:7])([H:14])[H:15])([H:8])([H:9])[H:10]"
C        1.73637070      -0.35530106       0.70043219
C        0.54488779      -0.08244404      -0.15796782
C        0.29596806      -0.78290015      -1.34503051
C       -0.79863953      -0.04990304       0.33761198
O       -1.28721705      -0.75275404       1.32604561
C       -1.23447322       1.25336636      -0.24483912
O        0.06581829       1.69961855      -0.47325442
H        2.59444289      -0.61433547       0.08170490
H        1.54289348      -1.17444162       1.39573700
H        1.96174652       0.53886751       1.28029075
H       -0.47374283      -0.48117405      -2.03917929
H        0.96707910      -1.58208915      -1.63154881
H       -2.23433598      -0.59748707       1.41260225
H       -1.86719603       1.14720353      -1.14255909
H       -1.81360217       1.83377374       0.49995438
15
Frame=3 idx=010868 GeodesicLength=0.1710288955886888 rxn_smarts="[C:1]([C@@:2]12[C:3]([H:11])([H:12])[C@:4]1([O:5][H:13])[C:6]([H:14])([H:15])[O:7]2)([H:8])([H:9])[H:10]>>[C:1]([C:2](=[C:3]([H:11])[H:12])[C+:4]([O:5][H:13])[C:6]([O-:7])([H:14])[H:15])([H:8])([H:9])[H:10]"
C        1.73919403      -0.35323775       0.70543342
C        0.55255925      -0.07701140      -0.15825846
C        0.28730803      -0.78905251      -1.33594529
C       -0.79763984      -0.05408478       0.32337869
O       -1.28248511      -0.74340421       1.32625285
C       -1.23487790       1.25417038      -0.24846884
O        0.05494900       1.69957174      -0.51779031
H        2.60150130      -0.60418420       0.08910664
H        1.54743428      -1.17983312       1.39227662
H        1.95622514       0.53613710       1.29597675
H       -0.44935985      -0.45568654      -2.05191236
H        0.94598388      -1.60262972      -1.61100661
H       -2.23520115      -0.61292618       1.39025236
H       -1.90335701       1.14684031      -1.12011569
H       -1.78223404       1.83533088       0.52082022
15
Frame=4 idx=010868 GeodesicLength=0.22822106224875757 rxn_smarts="[C:1]([C@@:2]12[C:3]([H:11])([H:12])[C@:4]1([O:5][H:13])[C:6]([H:14])([H:15])[O:7]2)([H:8])([H:9])[H:10]>>[C:1]([C:2](=[C:3]([H:11])[H:12])[C+:4]([O:5][H:13])[C:6]([O-:7])([H:14])[H:15])([H:8])([H:9])[H:10]"
C        1.74152850      -0.35123471       0.71040449
C        0.55995279      -0.07138960      -0.15880168
C        0.27911548      -0.79406625      -1.32755104
C       -0.79678469      -0.05833173       0.30898216
O       -1.27834135      -0.73463549       1.32534563
C       -1.23527444       1.25484968      -0.25244905
O        0.04308926       1.69877318      -0.56229480
H        2.60843258      -0.59306057       0.09673711
H        1.55167817      -1.18588273       1.38787865
H        1.94957168       0.53262510       1.31252548
H       -0.42511295      -0.43304058      -2.06328331
H        0.92547789      -1.62136440      -1.59104600
H       -2.23509586      -0.62689602       1.36971968
H       -1.93873700       1.14699272      -1.09642108
H       -1.74950006       1.83666140       0.54025374
15
Frame=5 idx=010868 GeodesicLength=0.28544440161098195 rxn_smarts="[C:1]([C@@:2]12[C:3]([H:11])([H:12])[C@:4]1([O:5][H:13])[C:6]([H:14])([H:15])[O:7]2)([H:8])([H:9])[H:10]>>[C:1]([C:2](=[C:3]([H:11])[H:12])[C+:4]([O:5][H:13])[C:6]([O-:7])([H:14])[H:15])([H:8])([H:9])[H:10]"
C        1.74343677      -0.34923256       0.71534644
C        0.56711059      -0.06555616      -0.15955847
C        0.27142475      -0.79806683      -1.31978707
C       -0.79600618      -0.06259567       0.29451909
O       -1.27467104      -0.72631193       1.32359456
C       -1.23560342       1.25546796      -0.25668112
O        0.03029577       1.69727608      -0.60667916
H        2.61520807      -0.58118615       0.10461149
H        1.55566406      -1.19230378       1.38279986
H        1.94203920       0.52849734       1.32966049
H       -0.40139876      -0.41312329      -2.07337998
H        0.90551916      -1.63850759      -1.57162855
H       -2.23433909      -0.64000037       1.35034502
H       -1.97317281       1.14790192      -1.07143839
H       -1.71550706       1.83774101       0.55827578
15
Frame=6 idx=010868 GeodesicLength=0.342807691788084 rxn_smarts="[C:1]([C@@:2]12[C:3]([H:11])([H:12])[C@:4]1([O:5][H:13])[C:6]([H:14])([H:15])[O:7]2)([H:8])([H:9])[H:10]>>[C:1]([C:2](=[C:3]([H:11])[H:12])[C+:4]([O:5][H:13])[C:6]([O-:7])([H:14])[H:15])([H:8])([H:9])[H:10]"
C        1.74493909      -0.34721110       0.72029724
C        0.57403110      -0.05954863      -0.16052566
C        0.26421657      -0.80126294      -1.31260391
C       -0.79531689      -0.06691808       0.27996235
O       -1.27139740      -0.71846319       1.32107659
C       -1.23588076       1.25603078      -0.26116084
O        0.01654200       1.69505711      -0.65103292
H        2.62188662      -0.56833644       0.11280310
H        1.55952637      -1.19917602       1.37695844
H        1.93347716       0.52369902       1.34753336
H       -0.37827931      -0.39569396      -2.08251151
H        0.88618994      -1.65422625      -1.55274352
H       -2.23305740      -0.65213882       1.33211672
H       -2.00675898       1.14955389      -1.04504939
H       -1.68011809       1.83863465       0.57487996
15
Frame=7 idx=010868 GeodesicLength=0.4003476566148485 rxn_smarts="[C:1]([C@@:2]12[C:3]([H:11])([H:12])[C@:4]1([O:5][H:13])[C:6]([H:14])([H:15])[O:7]2)([H:8])([H:9])[H:10]>>[C:1]([C:2](=[C:3]([H:11])[H:12])[C+:4]([O:5][H:13])[C:6]([O-:7])([H:14])[H:15])([H:8])([H:9])[H:10]"
C        1.74607097      -0.34511240       0.72523181
C        0.58074596      -0.05334011      -0.16170722
C        0.25752684      -0.80372722      -1.30596377
C       -0.79469494      -0.07130014       0.26530209
O       -1.26844103      -0.71106259       1.31785716
C       -1.23610985       1.25653938      -0.26584086
O        0.00181039       1.69212299      -0.69530695
H        2.62847669      -0.55449724       0.12131622
H        1.56334057      -1.20636335       1.37037377
H        1.92391489       0.51826842       1.36603735
H       -0.35562094      -0.38034936      -2.09091913
H        0.86718384      -1.66892353      -1.53409344
H       -2.23137492      -0.66351303       1.31479120
H       -2.03944810       1.15200266      -1.01715518
H       -1.64338039       1.83925552       0.59007695
15
Frame=8 idx=010868 GeodesicLength=0.4580876879878176 rxn_smarts="[C:1]([C@@:2]12[C:3]([H:11])([H:12])[C@:4]1([O:5][H:13])[C:6]([H:14])([H:15])[O:7]2)([H:8])([H:9])[H:10]>>[C:1]([C:2](=[C:3]([H:11])[H:12])[C+:4]([O:5][H:13])[C:6]([O-:7])([H:14])[H:15])([H:8])([H:9])[H:10]"
C        1.74680769      -0.34291140       0.73017641
C        0.58723108      -0.04697670      -0.16307808
C        0.25125703      -0.80564080      -1.29975413
C       -0.79411524      -0.07570313       0.25059343
O       -1.26574784      -0.70391764       1.31410746
C       -1.23622260       1.25699984      -0.27068294
O       -0.01389050       1.68833951      -0.73961375
H        2.63493799      -0.53948895       0.13021428
H        1.56717513      -1.21384300       1.36299943
H        1.91322018       0.51213461       1.38523200
H       -0.33369587      -0.36710820      -2.09862348
H        0.84867461      -1.68252150      -1.51577716
H       -2.22936453      -0.67439023       1.29798963
H       -2.07118370       1.15533251      -0.98758074
H       -1.60508342       1.83969507       0.60379764
15
Frame=9 idx=010868 GeodesicLength=0.5159891533628923 rxn_smarts="[C:1]([C@@:2]12[C:3]([H:11])([H:12])[C@:4]1([O:5][H:13])[C:6]([H:14])([H:15])[O:7]2)([H:8])([H:9])[H:10]>>[C:1]([C:2](=[C:3]([H:11])[H:12])[C+:4]([O:5][H:13])[C:6]([O-:7])([H:14])[H:15])([H:8])([H:9])[H:10]"
C        1.74717308      -0.34061817       0.73511096
C        0.59349856      -0.04045861      -0.16462804
C        0.24543789      -0.80703161      -1.29398663
C       -0.79359334      -0.08018215       0.23581898
O       -1.26327353      -0.69713339       1.30983379
C       -1.23629027       1.25736381      -0.27568899
O       -0.03060695       1.68377834      -0.78371938
H        2.64122476      -0.52357719       0.13951518
H        1.57102325      -1.22146874       1.35496816
H        1.90155645       0.50535371       1.40488956
H       -0.31224317      -0.35554736      -2.10586366
H        0.83057161      -1.69515308      -1.49775772
H       -2.22707956      -0.68454390       1.28195671
H       -2.10183570       1.15946003      -0.95640432
H       -1.56556308       1.83975829       0.61595539
15
Frame=10 idx=010868 GeodesicLength=0.5741016521090052 rxn_smarts="[C:1]([C@@:2]12[C:3]([H:11])([H:12])[C@:4]1([O:5][H:13])[C:6]([H:14])([H:15])[O:7]2)([H:8])([H:9])[H:10]>>[C:1]([C:2](=[C:3]([H:11])[H:12])[C+:4]([O:5][H:13])[C:6]([O-:7])([H:14])[H:15])([H:8])([H:9])[H:10]"
C        1.74720371      -0.33823545       0.74003678
C        0.59955724      -0.03381836      -0.16635110
C        0.24003196      -0.80803320      -1.28859311
C       -0.79314262      -0.08471506       0.22102967
O       -1.26102823      -0.69059518       1.30521032
C       -1.23632486       1.25768414      -0.28084476
O       -0.04834273       1.67841789      -0.82770366
H        2.64738957      -0.50664063       0.14923481
H        1.57499408      -1.22927640       1.34624707
H        1.88886970       0.49785877       1.42502114
H       -0.29131581      -0.34557765      -2.11270001
H        0.81295250      -1.70691382      -1.48003176
H       -2.22463924      -0.69422166       1.26650353
H       -2.13136859       1.16451449      -0.92353345
H       -1.52483666       1.83955211       0.62647452
15
Frame=11 idx=010868 GeodesicLength=0.6325003904725721 rxn_smarts="[C:1]([C@@:2]12[C:3]([H:11])([H:12])[C@:4]1([O:5][H:13])[C:6]([H:14])([H:15])[O:7]2)([H:8])([H:9])[H:10]>>[C:1]([C:2](=[C:3]([H:11])[H:12])[C+:4]([O:5][H:13])[C:6]([O-:7])([H:14])[H:15])([H:8])([H:9])[H:10]"
C        1.74687603      -0.33573021       0.74496649
C        0.60538346      -0.02706836      -0.16822932
C        0.23493063      -0.80871547      -1.28351146
C       -0.79274116      -0.08927870       0.20623445
O       -1.25892852      -0.68415990       1.30028700
C       -1.23628536       1.25792778      -0.28613393
O       -0.06712487       1.67217221      -0.87153462
H        2.65336309      -0.48851333       0.15943786
H        1.57915567      -1.23722525       1.33674348
H        1.87506379       0.48956630       1.44567506
H       -0.27091540      -0.33706306      -2.11918134
H        0.79567692      -1.71787482      -1.46253420
H       -2.22198861      -0.70357332       1.25142113
H       -2.15964622       1.17048785      -0.88888741
H       -1.48281946       1.83904827       0.63524680
15
Frame=12 idx=010868 GeodesicLength=0.6910938348331027 rxn_smarts="[C:1]([C@@:2]12[C:3]([H:11])([H:12])[C@:4]1([O:5][H:13])[C:6]([H:14])([H:15])[O:7]2)([H:8])([H:9])[H:10]>>[C:1]([C:2](=[C:3]([H:11])[H:12])[C+:4]([O:5][H:13])[C:6]([O-:7])([H:14])[H:15])([H:8])([H:9])[H:10]"
C        1.74619825      -0.33313995       0.74987200
C        0.61099094      -0.02022179      -0.17025148
C        0.23016822      -0.80908619      -1.27875267
C       -0.79239107      -0.09388997       0.19147097
O       -1.25696194      -0.67786378       1.29514799
C       -1.23624154       1.25806946      -0.29156288
O       -0.08697124       1.66510149      -0.91503858
H        2.65908543      -0.46943669       0.17010176
H        1.58349252      -1.24522700       1.32656532
H        1.86024992       0.48047829       1.46664703
H       -0.25082496      -0.32972234      -2.12542788
H        0.77877059      -1.72806297      -1.44531892
H       -2.21916924      -0.71243542       1.23693661
H       -2.18649812       1.17728420      -0.85258522
H       -1.43989775       1.83815266       0.64219592
15
Frame=13 idx=010868 GeodesicLength=0.7499024963652786 rxn_smarts="[C:1]([C@@:2]12[C:3]([H:11])([H:12])[C@:4]1([O:5][H:13])[C:6]([H:14])([H:15])[O:7]2)([H:8])([H:9])[H:10]>>[C:1]([C:2](=[C:3]([H:11])[H:12])[C+:4]([O:5][H:13])[C:6]([O-:7])([H:14])[H:15])([H:8])([H:9])[H:10]"
C        1.74521871      -0.33049118       0.75476538
C        0.61638029      -0.01330631      -0.17238186
C        0.22566496      -0.80919614      -1.27425724
C       -0.79210285      -0.09853646       0.17678889
O       -1.25512165      -0.67162347       1.28989480
C       -1.23621971       1.25811521      -0.29713574
O       -0.10787554       1.65721104      -0.95813974
H        2.66456420      -0.44947079       0.18126947
H        1.58806413      -1.25325493       1.31575881
H        1.84454934       0.47055768       1.48785137
H       -0.23111595      -0.32344092      -2.13142160
H        0.76229222      -1.73745412      -1.42845494
H       -2.21622279      -0.72093217       1.22297231
H       -2.21179934       1.18494097      -0.81471564
H       -1.39627601       1.83688159       0.64720574
15
Frame=14 idx=010868 GeodesicLength=0.8088844027696381 rxn_smarts="[C:1]([C@@:2]12[C:3]([H:11])([H:12])[C@:4]1([O:5][H:13])[C:6]([H:14])([H:15])[O:7]2)([H:8])([H:9])[H:10]>>[C:1]([C:2](=[C:3]([H:11])[H:12])[C+:4]([O:5][H:13])[C:6]([O-:7])([H:14])[H:15])([H:8])([H:9])[H:10]"
C        1.74393699      -0.32781128       0.75964021
C        0.62154634      -0.00634173      -0.17459255
C        0.22137838      -0.80905534      -1.27000855
C       -0.79186678      -0.10321249       0.16223022
O       -1.25336218      -0.66538444       1.28460528
C       -1.23625287       1.25802803      -0.30285983
O       -0.12983661       1.64851177      -1.00070577
H        2.66973190      -0.42870592       0.19294488
H        1.59288729      -1.26127192       1.30433942
H        1.82801113       0.45975375       1.50920534
H       -0.21168530      -0.31802803      -2.13719811
H        0.74623905      -1.74604246      -1.41200384
H       -2.21312964      -0.72898562       1.20962173
H       -2.23538175       1.19334535      -0.77541860
H       -1.35221592       1.83520032       0.65020018
15
Frame=15 idx=010868 GeodesicLength=0.8680093120816325 rxn_smarts="[C:1]([C@@:2]12[C:3]([H:11])([H:12])[C@:4]1([O:5][H:13])[C:6]([H:14])([H:15])[O:7]2)([H:8])([H:9])[H:10]>>[C:1]([C:2](=[C:3]([H:11])[H:12])[C+:4]([O:5][H:13])[C:6]([O-:7])([H:14])[H:15])([H:8])([H:9])[H:10]"
C        1.74238048      -0.32513247       0.76449208
C        0.62649498       0.00065356      -0.17685192
C        0.21726517      -0.80867103      -1.26597738
C       -0.79167869      -0.10790677       0.14784609
O       -1.25166556      -0.65909455       1.27936047
C       -1.23637835       1.25779244      -0.30874053
O       -0.15283560       1.63902733      -1.04263048
H        2.67455993      -0.40725674       0.20513170
H        1.59798359      -1.26924241       1.29235013
H        1.81074501       0.44803512       1.53060397
H       -0.19248633      -0.31332038      -2.14275138
H        0.73062468      -1.75382398      -1.39601941
H       -2.20990134      -0.73659863       1.19692014
H       -2.25710822       1.20242960      -0.73485925
H       -1.30799973       1.83310891       0.65112579
15
Frame=16 idx=010868 GeodesicLength=0.9272410409686501 rxn_smarts="[C:1]([C@@:2]12[C:3]([H:11])([H:12])[C@:4]1([O:5][H:13])[C:6]([H:14])([H:15])[O:7]2)([H:8])([H:9])[H:10]>>[C:1]([C:2](=[C:3]([H:11])[H:12])[C+:4]([O:5][H:13])[C:6]([O-:7])([H:14])[H:15])([H:8])([H:9])[H:10]"
C        1.74057854      -0.32248644       0.76931698
C        0.63123400       0.00766463      -0.17912623
C        0.21328641      -0.80803700      -1.26214200
C       -0.79153041      -0.11260796       0.13368623
O       -1.25001182      -0.65271390       1.27422860
C       -1.23663577       1.25739100      -0.31478160
O       -0.17684605       1.62879027      -1.08380416
H        2.67901795      -0.38526176       0.21782486
H        1.60336476      -1.27712508       1.27984579
H        1.79287973       0.43538833       1.55193679
H       -0.17346130      -0.30914644      -2.14807033
H        0.71543796      -1.76080345      -1.38054436
H       -2.20654232      -0.74376364       1.18490584
H       -2.27685467       1.21210054      -0.69323898
H       -1.26391700       1.83061089       0.64996256
