16
Frame=0 idx=004081 GeodesicLength=0.0 rxn_smarts="[C:1]([C@@:2]1([H:10])[C:3]([H:11])([H:12])[C@:4]1([C:5]([H:13])([H:14])[H:15])[O:6][H:16])([H:7])([H:8])[H:9]>>[C:1]([C@@:2]1([H:10])[C:3]([H:11])([H:12])[C:4]1)([H:7])([H:8])[H:9].[C:5]([O:6][H:16])([H:13])([H:14])[H:15]"
C        2.00449208      -0.43933132       0.93370943
C        1.11119273      -0.09097322      -0.22778274
C        0.21721853      -1.11648673      -0.87282626
C       -0.36926887      -0.02800769      -0.03336072
C       -2.25205091       0.72931010       0.27059192
O       -1.01818909       1.02989495      -0.97669832
H        2.93992885      -0.89171624       0.59488557
H        2.24825849       0.44666527       1.52587438
H        1.50595794      -1.15064035       1.59444788
H        1.52748340       0.63411343      -0.92619520
H        0.09879996      -1.05776215      -1.94929518
H        0.19000574      -2.12409619      -0.47157154
H       -2.64377942      -0.27224376       0.17766999
H       -2.90386054       1.46560725      -0.21193011
H       -2.01499402       0.98571819       1.29213704
H       -0.64119491       1.87994847      -0.71965614
16
Frame=1 idx=004081 GeodesicLength=0.03407073900392465 rxn_smarts="[C:1]([C@@:2]1([H:10])[C:3]([H:11])([H:12])[C@:4]1([C:5]([H:13])([H:14])[H:15])[O:6][H:16])([H:7])([H:8])[H:9]>>[C:1]([C@@:2]1([H:10])[C:3]([H:11])([H:12])[C:4]1)([H:7])([H:8])[H:9].[C:5]([O:6][H:16])([H:13])([H:14])[H:15]"
C        2.00320755      -0.43451643       0.93409657
C        1.11543934      -0.09168160      -0.23335496
C        0.21159966      -1.11547602      -0.86696153
C       -0.36326387      -0.01382359      -0.03700598
C       -2.24178172       0.71880861       0.26731939
O       -1.01316788       1.03961504      -0.98413576
H        2.93541076      -0.89805071       0.60145242
H        2.25451215       0.45574226       1.51660207
H        1.49830475      -1.13429032       1.60230598
H        1.53423788       0.62612331      -0.93723333
H        0.08837210      -1.06526487      -1.94318267
H        0.17537999      -2.11844194      -0.45502957
H       -2.64565316      -0.27442369       0.13771101
H       -2.89309880       1.47663402      -0.18113265
H       -2.01821707       0.93874188       1.30111294
H       -0.64128169       1.89030405      -0.72256393
16
Frame=2 idx=004081 GeodesicLength=0.0682898547655522 rxn_smarts="[C:1]([C@@:2]1([H:10])[C:3]([H:11])([H:12])[C@:4]1([C:5]([H:13])([H:14])[H:15])[O:6][H:16])([H:7])([H:8])[H:9]>>[C:1]([C@@:2]1([H:10])[C:3]([H:11])([H:12])[C:4]1)([H:7])([H:8])[H:9].[C:5]([O:6][H:16])([H:13])([H:14])[H:15]"
C        2.00171684      -0.42959141       0.93456422
C        1.11952309      -0.09250834      -0.23886741
C        0.20598652      -1.11443373      -0.86115805
C       -0.35732751       0.00014711      -0.04090063
C       -2.23130945       0.70846741       0.26413990
O       -1.00828744       1.04919225      -0.99165713
H        2.93062730      -0.90418066       0.60832519
H        2.26053796       0.46479732       1.50733225
H        1.49049520      -1.11766415       1.61011293
H        1.54081479       0.61798177      -0.94813262
H        0.07792765      -1.07262670      -1.93703560
H        0.16081102      -2.11255854      -0.43858823
H       -2.64738755      -0.27489092       0.09812415
H       -2.88165024       1.48664289      -0.14928230
H       -2.02099358       0.89071523       1.30877158
H       -0.64148460       1.90051046      -0.72574825
16
Frame=3 idx=004081 GeodesicLength=0.10271437705244899 rxn_smarts="[C:1]([C@@:2]1([H:10])[C:3]([H:11])([H:12])[C@:4]1([C:5]([H:13])([H:14])[H:15])[O:6][H:16])([H:7])([H:8])[H:9]>>[C:1]([C@@:2]1([H:10])[C:3]([H:11])([H:12])[C:4]1)([H:7])([H:8])[H:9].[C:5]([O:6][H:16])([H:13])([H:14])[H:15]"
C        2.00005137      -0.42452949       0.93509434
C        1.12345652      -0.09345752      -0.24432794
C        0.20036191      -1.11336977      -0.85537273
C       -0.35144209       0.01392770      -0.04501298
C       -2.22066468       0.69822575       0.26102234
O       -1.00351284       1.05867874      -0.99921272
H        2.92555853      -0.91018275       0.61549855
H        2.26645591       0.47388688       1.49795741
H        1.48253343      -1.10063299       1.61792511
H        1.54722227       0.60964791      -0.95893799
H        0.06740362      -1.07987919      -1.93080766
H        0.14626368      -2.10643738      -0.42216608
H       -2.64904817      -0.27363711       0.05874246
H       -2.86943497       1.49567655      -0.11632982
H       -2.02341139       0.84147352       1.31501143
H       -0.64179310       1.91060915      -0.72908371
16
Frame=4 idx=004081 GeodesicLength=0.1372966898156504 rxn_smarts="[C:1]([C@@:2]1([H:10])[C:3]([H:11])([H:12])[C@:4]1([C:5]([H:13])([H:14])[H:15])[O:6][H:16])([H:7])([H:8])[H:9]>>[C:1]([C@@:2]1([H:10])[C:3]([H:11])([H:12])[C:4]1)([H:7])([H:8])[H:9].[C:5]([O:6][H:16])([H:13])([H:14])[H:15]"
C        1.99816227      -0.41934978       0.93572597
C        1.12722525      -0.09452346      -0.24972100
C        0.19477810      -1.11230164      -0.84969175
C       -0.34564326       0.02744845      -0.04939791
C       -2.20982486       0.68814074       0.25802781
O       -0.99892036       1.06797243      -1.00688412
H        2.92023537      -0.91592238       0.62301501
H        2.27208005       0.48295585       1.48864755
H        1.47440782      -1.08335742       1.62566707
H        1.55344637       0.60118877      -0.96957804
H        0.05692284      -1.08700270      -1.92460121
H        0.13182239      -2.10013000      -0.40591410
H       -2.65073612      -0.27062453       0.01999110
H       -2.85644428       1.50367967      -0.08234099
H       -2.02526135       0.79130647       1.31979520
H       -0.64225023       1.92051953      -0.73274060
16
Frame=5 idx=004081 GeodesicLength=0.1721054564852798 rxn_smarts="[C:1]([C@@:2]1([H:10])[C:3]([H:11])([H:12])[C@:4]1([C:5]([H:13])([H:14])[H:15])[O:6][H:16])([H:7])([H:8])[H:9]>>[C:1]([C@@:2]1([H:10])[C:3]([H:11])([H:12])[C:4]1)([H:7])([H:8])[H:9].[C:5]([O:6][H:16])([H:13])([H:14])[H:15]"
C        1.99610381      -0.41403614       0.93640245
C        1.13084803      -0.09570475      -0.25504929
C        0.18918729      -1.11120256      -0.84401265
C       -0.33989544       0.04077388      -0.05397580
C       -2.19883118       0.67811025       0.25508185
O       -0.99441144       1.07716944      -1.01456111
H        2.91463404      -0.92150440       0.63080669
H        2.27759419       0.49203100       1.47922709
H        1.46613989      -1.06568965       1.63337428
H        1.55951239       0.59253977      -0.98010832
H        0.04637129      -1.09400169      -1.91829007
H        0.11739647      -2.09356810      -0.38967451
H       -2.65245934      -0.26584992      -0.01832149
H       -2.84258588       1.51055050      -0.04732568
H       -2.02679805       0.74007332       1.32291337
H       -0.64280606       1.93030906      -0.73648680
16
Frame=6 idx=004081 GeodesicLength=0.2070814736374919 rxn_smarts="[C:1]([C@@:2]1([H:10])[C:3]([H:11])([H:12])[C@:4]1([C:5]([H:13])([H:14])[H:15])[O:6][H:16])([H:7])([H:8])[H:9]>>[C:1]([C@@:2]1([H:10])[C:3]([H:11])([H:12])[C:4]1)([H:7])([H:8])[H:9].[C:5]([O:6][H:16])([H:13])([H:14])[H:15]"
C        1.99380773      -0.40861478       0.93719266
C        1.13430347      -0.09699416      -0.26029427
C        0.18366308      -1.11010859      -0.83846989
C       -0.33425008       0.05380594      -0.05883172
C       -2.18765544       0.66821500       0.25227403
O       -0.99011394       1.08613229      -1.02236757
H        2.90878545      -0.92678146       0.63894834
H        2.28275744       0.50105865       1.46993543
H        1.45770547      -1.04783985       1.64097765
H        1.56539033       0.58380647      -0.99043093
H        0.03592527      -1.10086231      -1.91204319
H        0.10311288      -2.08684622      -0.37367024
H       -2.65433522      -0.25931844      -0.05569217
H       -2.82788570       1.51629330      -0.01135670
H       -2.02766888       0.68817981       1.32439876
H       -0.64354184       1.93987435      -0.74057021
16
Frame=7 idx=004081 GeodesicLength=0.24229015082446728 rxn_smarts="[C:1]([C@@:2]1([H:10])[C:3]([H:11])([H:12])[C@:4]1([C:5]([H:13])([H:14])[H:15])[O:6][H:16])([H:7])([H:8])[H:9]>>[C:1]([C@@:2]1([H:10])[C:3]([H:11])([H:12])[C:4]1)([H:7])([H:8])[H:9].[C:5]([O:6][H:16])([H:13])([H:14])[H:15]"
C        1.99131535      -0.40305827       0.93806509
C        1.13761196      -0.09839626      -0.26546317
C        0.17818610      -1.10902325      -0.83300046
C       -0.32868272       0.06657833      -0.06392243
C       -2.17633688       0.65839635       0.24954710
O       -0.98596548       1.09492712      -1.03023567
H        2.90267066      -0.93184245       0.64742008
H        2.28772157       0.51009120       1.46062978
H        1.44910993      -1.02965370       1.64852864
H        1.57110593       0.57492895      -1.00059743
H        0.02551254      -1.10761778      -1.90578521
H        0.08892912      -2.07993667      -0.35778997
H       -2.65643918      -0.25097172      -0.09229420
H       -2.81225996       1.52087032       0.02562632
H       -2.02804993       0.63544334       1.32410153
H       -0.64442901       1.94926450      -0.74483000
16
Frame=8 idx=004081 GeodesicLength=0.27782633005802265 rxn_smarts="[C:1]([C@@:2]1([H:10])[C:3]([H:11])([H:12])[C@:4]1([C:5]([H:13])([H:14])[H:15])[O:6][H:16])([H:7])([H:8])[H:9]>>[C:1]([C@@:2]1([H:10])[C:3]([H:11])([H:12])[C:4]1)([H:7])([H:8])[H:9].[C:5]([O:6][H:16])([H:13])([H:14])[H:15]"
C        1.98866223      -0.39734426       0.93899389
C        1.14077712      -0.09990849      -0.27055766
C        0.17272317      -1.10794445      -0.82754329
C       -0.32317929       0.07911796      -0.06919942
C       -2.16490941       0.64855309       0.24683480
O       -0.98191261       1.10362446      -1.03809516
H        2.89625812      -0.93676296       0.65620020
H        2.29263081       0.51916601       1.45118167
H        1.44036578      -1.01100288       1.65607553
H        1.57665829       0.56587197      -1.01065265
H        0.01503723      -1.11428093      -1.89944493
H        0.07479247      -2.07281896      -0.34193282
H       -2.65876650      -0.24086126      -0.12828670
H       -2.79558073       1.52426510       0.06363158
H       -2.02810097       0.58179274       1.32189279
H       -0.64545571       1.95853286      -0.74909783
16
Frame=9 idx=004081 GeodesicLength=0.3136514873028511 rxn_smarts="[C:1]([C@@:2]1([H:10])[C:3]([H:11])([H:12])[C@:4]1([C:5]([H:13])([H:14])[H:15])[O:6][H:16])([H:7])([H:8])[H:9]>>[C:1]([C@@:2]1([H:10])[C:3]([H:11])([H:12])[C:4]1)([H:7])([H:8])[H:9].[C:5]([O:6][H:16])([H:13])([H:14])[H:15]"
C        1.98579160      -0.39149069       0.94002680
C        1.14379676      -0.10153015      -0.27556627
C        0.16733773      -1.10689760      -0.82220389
C       -0.31777598       0.09135185      -0.07473442
C       -2.15334407       0.63878049       0.24420754
O       -0.97803968       1.11210387      -1.04604663
H        2.88958718      -0.94140285       0.66534655
H        2.29727043       0.52823704       1.44179073
H        1.43144148      -0.99205897       1.66354003
H        1.58205344       0.55670476      -1.02051726
H        0.00465898      -1.12084475      -1.89315170
H        0.06079602      -2.06555494      -0.32627721
H       -2.66149280      -0.22889925      -0.16318927
H       -2.77784972       1.52638651       0.10260865
H       -2.02757109       0.52753485       1.31774649
H       -0.64666028       1.96757984      -0.75358014
16
Frame=10 idx=004081 GeodesicLength=0.3498666483822712 rxn_smarts="[C:1]([C@@:2]1([H:10])[C:3]([H:11])([H:12])[C@:4]1([C:5]([H:13])([H:14])[H:15])[O:6][H:16])([H:7])([H:8])[H:9]>>[C:1]([C@@:2]1([H:10])[C:3]([H:11])([H:12])[C:4]1)([H:7])([H:8])[H:9].[C:5]([O:6][H:16])([H:13])([H:14])[H:15]"
C        1.98273159      -0.38547502       0.94113665
C        1.14667275      -0.10326695      -0.28049642
C        0.16200726      -1.10589409      -0.81692570
C       -0.31244890       0.10330539      -0.08048120
C       -2.14168587       0.62897631       0.24158904
O       -0.97428935       1.12044551      -1.05401886
H        2.88261332      -0.94585254       0.67484707
H        2.30176912       0.53735207       1.43232021
H        1.42235052      -0.97267953       1.67097864
H        1.58728068       0.54738422      -1.03024026
H       -0.00571732      -1.12734032      -1.88683730
H        0.04689999      -2.05813767      -0.31072201
H       -2.66456925      -0.21514090      -0.19721509
H       -2.75899950       1.52722391       0.14259658
H       -2.02658032       0.47263066       1.31156236
H       -0.64803473       1.97646893      -0.75809371
16
Frame=11 idx=004081 GeodesicLength=0.3864245369310588 rxn_smarts="[C:1]([C@@:2]1([H:10])[C:3]([H:11])([H:12])[C@:4]1([C:5]([H:13])([H:14])[H:15])[O:6][H:16])([H:7])([H:8])[H:9]>>[C:1]([C@@:2]1([H:10])[C:3]([H:11])([H:12])[C:4]1)([H:7])([H:8])[H:9].[C:5]([O:6][H:16])([H:13])([H:14])[H:15]"
C        1.97943347      -0.37932539       0.94234774
C        1.14940825      -0.10511021      -0.28533169
C        0.15678231      -1.10492792      -0.81178468
C       -0.30722952       0.11492092      -0.08648990
C       -2.12990556       0.61921209       0.23904709
O       -0.97072066       1.12853520      -1.06208052
H        2.87537223      -0.94999323       0.68472246
H        2.30595104       0.54643696       1.42292446
H        1.41304951      -0.95303236       1.67829227
H        1.59236472       0.53797472      -1.03973822
H       -0.01592928      -1.13372753      -1.88058906
H        0.03317043      -2.05058525      -0.29541668
H       -2.66813235      -0.19951415      -0.22983238
H       -2.73900719       1.52658745       0.18347701
H       -2.02500943       0.41745260       1.30325856
H       -0.64959798       1.98509611      -0.76280647
16
Frame=12 idx=004081 GeodesicLength=0.423496484865346 rxn_smarts="[C:1]([C@@:2]1([H:10])[C:3]([H:11])([H:12])[C@:4]1([C:5]([H:13])([H:14])[H:15])[O:6][H:16])([H:7])([H:8])[H:9]>>[C:1]([C@@:2]1([H:10])[C:3]([H:11])([H:12])[C:4]1)([H:7])([H:8])[H:9].[C:5]([O:6][H:16])([H:13])([H:14])[H:15]"
C        1.97600704      -0.37303246       0.94371893
C        1.15201792      -0.10705053      -0.29011516
C        0.15158381      -1.10407768      -0.80678674
C       -0.30208450       0.12628884      -0.09272422
C       -2.11803167       0.60939925       0.23652015
O       -0.96725978       1.13664602      -1.07024480
H        2.86786287      -0.95402264       0.69504551
H        2.31012227       0.55560871       1.41355243
H        1.40363764      -0.93298134       1.68572066
H        1.59729576       0.52848981      -1.04917814
H       -0.02621196      -1.14010356      -1.87448703
H        0.01949849      -2.04303569      -0.28024759
H       -2.67220614      -0.18216646      -0.26113544
H       -2.71786447       1.52427768       0.22517403
H       -2.02304031       0.36193974       1.29270214
H       -0.65132697       1.99382032      -0.76751473
16
Frame=13 idx=004081 GeodesicLength=0.4611196286640543 rxn_smarts="[C:1]([C@@:2]1([H:10])[C:3]([H:11])([H:12])[C@:4]1([C:5]([H:13])([H:14])[H:15])[O:6][H:16])([H:7])([H:8])[H:9]>>[C:1]([C@@:2]1([H:10])[C:3]([H:11])([H:12])[C:4]1)([H:7])([H:8])[H:9].[C:5]([O:6][H:16])([H:13])([H:14])[H:15]"
C        1.97232889      -0.36649193       0.94503258
C        1.15448866      -0.10913238      -0.29476100
C        0.14649022      -1.10322090      -0.80170645
C       -0.29704161       0.13728055      -0.09909992
C       -2.10614795       0.59950069       0.23386219
O       -0.96387301       1.14440022      -1.07824490
H        2.85999032      -0.95769472       0.70560532
H        2.31406199       0.56479942       1.40388313
H        1.39396323      -0.91230603       1.69289395
H        1.60209094       0.51870428      -1.05836831
H       -0.03639576      -1.14639134      -1.86810627
H        0.00596341      -2.03514351      -0.26509939
H       -2.67670822      -0.16275090      -0.29169547
H       -2.69519561       1.52073890       0.26798285
H       -2.02078370       0.30570941       1.27991306
H       -0.65323182       2.00199824      -0.77209135
16
Frame=14 idx=004081 GeodesicLength=0.4993345747936454 rxn_smarts="[C:1]([C@@:2]1([H:10])[C:3]([H:11])([H:12])[C@:4]1([C:5]([H:13])([H:14])[H:15])[O:6][H:16])([H:7])([H:8])[H:9]>>[C:1]([C@@:2]1([H:10])[C:3]([H:11])([H:12])[C:4]1)([H:7])([H:8])[H:9].[C:5]([O:6][H:16])([H:13])([H:14])[H:15]"
C        1.96848381      -0.35978567       0.94645950
C        1.15682735      -0.11133433      -0.29931327
C        0.14146932      -1.10245926      -0.79671950
C       -0.29210031       0.14795421      -0.10571096
C       -2.09419055       0.58958852       0.23115475
O       -0.96063417       1.15202563      -1.08630125
H        2.85185385      -0.96113559       0.71660447
H        2.31786236       0.57402886       1.39419614
H        1.38415367      -0.89120500       1.70002998
H        1.60672384       0.50877421      -1.06739503
H       -0.04655403      -1.15265222      -1.86175906
H       -0.00743133      -2.02717148      -0.25009608
H       -2.68177315      -0.14134377      -0.32078300
H       -2.67121469       1.51540430       0.31166968
H       -2.01812822       0.24927920       1.26465023
H       -0.65534775       2.01003238      -0.77668659
16
Frame=15 idx=004081 GeodesicLength=0.5381083107399941 rxn_smarts="[C:1]([C@@:2]1([H:10])[C:3]([H:11])([H:12])[C@:4]1([C:5]([H:13])([H:14])[H:15])[O:6][H:16])([H:7])([H:8])[H:9]>>[C:1]([C@@:2]1([H:10])[C:3]([H:11])([H:12])[C:4]1)([H:7])([H:8])[H:9].[C:5]([O:6][H:16])([H:13])([H:14])[H:15]"
C        1.96439196      -0.35293411       0.94799787
C        1.15903488      -0.11364650      -0.30376562
C        0.13657727      -1.10179293      -0.79189653
C       -0.28727829       0.15825508      -0.11257827
C       -2.08216508       0.57968836       0.22845176
O       -0.95755141       1.15941028      -1.09445060
H        2.84343866      -0.96423521       0.72800295
H        2.32132673       0.58324658       1.38461215
H        1.37412305      -0.86983394       1.70702889
H        1.61122808       0.49876608      -1.07619762
H       -0.05651493      -1.15886140      -1.85552842
H       -0.02063025      -2.01914947      -0.23538237
H       -2.68742712      -0.11808586      -0.34801534
H       -2.64589730       1.50823416       0.35604035
H       -2.01498823       0.19312152       1.24707927
H       -0.65766802       2.01781736      -0.78139847
16
Frame=16 idx=004081 GeodesicLength=0.5774265901833534 rxn_smarts="[C:1]([C@@:2]1([H:10])[C:3]([H:11])([H:12])[C@:4]1([C:5]([H:13])([H:14])[H:15])[O:6][H:16])([H:7])([H:8])[H:9]>>[C:1]([C@@:2]1([H:10])[C:3]([H:11])([H:12])[C:4]1)([H:7])([H:8])[H:9].[C:5]([O:6][H:16])([H:13])([H:14])[H:15]"
C        1.96003570      -0.34596580       0.94965867
C        1.16110761      -0.11605605      -0.30810446
C        0.13182631      -1.10122394      -0.78727759
C       -0.28259164       0.16816024      -0.11970780
C       -2.07007723       0.56982693       0.22576495
O       -0.95465831       1.16650817      -1.10272246
H        2.83476507      -0.96694908       0.73978084
H        2.32438173       0.59241324       1.37522638
H        1.36386423      -0.84831929       1.71384627
H        1.61560555       0.48873810      -1.08472943
H       -0.06621245      -1.16500410      -1.84947193
H       -0.03360942      -2.01111360      -0.22104267
H       -2.69362415      -0.09309666      -0.37313738
H       -2.61927259       1.49916616       0.40088227
H       -2.01132501       0.13760185       1.22732111
H       -0.66021542       2.02531382      -0.78628678
