14
Frame=0 idx=006639 GeodesicLength=0.0 rxn_smarts="[O:1]=[C:2]([C@@:3]1([H:9])[C@@:4]2([H:10])[C:5]([H:11])([H:12])[C:6]([H:13])([H:14])[N:7]12)[H:8]>>[O:1]1[C:2]([H:8])=[C:3]([H:9])[C@@:4]2([H:10])[C:5]([H:11])([H:12])[C@:6]1([H:13])[N:7]2[H:14]"
O        0.92309768       0.67567521       1.48428493
C        1.23836036       1.24516284       0.41075886
C        0.89711546       0.76280117      -0.84744736
C       -0.04950301      -0.37045621      -0.97354913
C       -0.14428457      -1.34302138       0.23004958
C       -1.01268925      -0.24091164       0.78982414
N       -1.13916187       0.48715600      -0.39783490
H        1.76256753       2.21283652       0.45084011
H        1.07586894       1.36776773      -1.72537815
H       -0.20610129      -0.74024605      -1.98348478
H        0.76550842      -1.56309554       0.77480751
H       -0.69107540      -2.26079428       0.00449182
H       -1.36371038       0.07201091       1.76467842
H       -2.05599265      -0.30488532       0.01795889
14
Frame=1 idx=006639 GeodesicLength=0.05126421788125778 rxn_smarts="[O:1]=[C:2]([C@@:3]1([H:9])[C@@:4]2([H:10])[C:5]([H:11])([H:12])[C:6]([H:13])([H:14])[N:7]12)[H:8]>>[O:1]1[C:2]([H:8])=[C:3]([H:9])[C@@:4]2([H:10])[C:5]([H:11])([H:12])[C@:6]1([H:13])[N:7]2[H:14]"
O        0.90048074       0.68840681       1.48828280
C        1.23689187       1.24429062       0.41239582
C        0.88057018       0.77057566      -0.84537037
C       -0.04880471      -0.37611010      -0.97746176
C       -0.14067324      -1.34246683       0.22938986
C       -1.00548111      -0.23672349       0.79104569
N       -1.13697143       0.48509356      -0.40548052
H        1.78574612       2.19780111       0.45302556
H        1.06846594       1.37277587      -1.72319797
H       -0.20035421      -0.74655996      -1.98780260
H        0.77220010      -1.56441642       0.76896554
H       -0.69204592      -2.25858241       0.00924364
H       -1.36090568       0.06940970       1.76603685
H       -2.05911865      -0.30349413       0.02092746
14
Frame=2 idx=006639 GeodesicLength=0.10250669937645443 rxn_smarts="[O:1]=[C:2]([C@@:3]1([H:9])[C@@:4]2([H:10])[C:5]([H:11])([H:12])[C:6]([H:13])([H:14])[N:7]12)[H:8]>>[O:1]1[C:2]([H:8])=[C:3]([H:9])[C@@:4]2([H:10])[C:5]([H:11])([H:12])[C@:6]1([H:13])[N:7]2[H:14]"
O        0.87814450       0.70132894       1.49191205
C        1.23561455       1.24308048       0.41392852
C        0.86419217       0.77816917      -0.84328019
C       -0.04807520      -0.38151497      -0.98127316
C       -0.13702847      -1.34177569       0.22872860
C       -0.99830926      -0.23249864       0.79231899
N       -1.13483255       0.48312569      -0.41297765
H        1.80780971       2.18236060       0.45515239
H        1.06138976       1.37750278      -1.72095286
H       -0.19454556      -0.75259492      -1.99201419
H        0.77884039      -1.56565324       0.76317454
H       -0.69289192      -2.25621110       0.01389875
H       -1.35801662       0.06668584       1.76748117
H       -2.06229150      -0.30200495       0.02390303
14
Frame=3 idx=006639 GeodesicLength=0.15371338857417063 rxn_smarts="[O:1]=[C:2]([C@@:3]1([H:9])[C@@:4]2([H:10])[C:5]([H:11])([H:12])[C:6]([H:13])([H:14])[N:7]12)[H:8]>>[O:1]1[C:2]([H:8])=[C:3]([H:9])[C@@:4]2([H:10])[C:5]([H:11])([H:12])[C@:6]1([H:13])[N:7]2[H:14]"
O        0.85649572       0.71407054       1.49513992
C        1.23490051       1.24121685       0.41534997
C        0.84828417       0.78531958      -0.84118299
C       -0.04728024      -0.38674037      -0.98500408
C       -0.13346513      -1.34104322       0.22801203
C       -0.99101310      -0.22816489       0.79367884
N       -1.13249872       0.48139367      -0.42026402
H        1.82713735       2.16752321       0.45730838
H        1.05500778       1.38165058      -1.71864894
H       -0.18876999      -0.75834852      -1.99614819
H        0.78529478      -1.56712498       0.75731627
H       -0.69393737      -2.25364682       0.01839433
H       -1.35474760       0.06398599       1.76907216
H       -2.06540815      -0.30009163       0.02697632
14
Frame=4 idx=006639 GeodesicLength=0.204909489674365 rxn_smarts="[O:1]=[C:2]([C@@:3]1([H:9])[C@@:4]2([H:10])[C:5]([H:11])([H:12])[C:6]([H:13])([H:14])[N:7]12)[H:8]>>[O:1]1[C:2]([H:8])=[C:3]([H:9])[C@@:4]2([H:10])[C:5]([H:11])([H:12])[C@:6]1([H:13])[N:7]2[H:14]"
O        0.83516509       0.72694161       1.49799970
C        1.23433653       1.23901766       0.41669009
C        0.83260543       0.79224374      -0.83905868
C       -0.04645698      -0.39175724      -0.98864366
C       -0.12990183      -1.34021834       0.22728213
C       -0.98373457      -0.22380808       0.79509041
N       -1.13019117       0.47974761      -0.42741083
H        1.84533635       2.15258819       0.45942187
H        1.04895206       1.38549552      -1.71625437
H       -0.18294601      -0.76385088      -2.00018916
H        0.79166320      -1.56860243       0.75147940
H       -0.69492864      -2.25094567       0.02277759
H       -1.35133021       0.06120651       1.77074701
H       -2.06856926      -0.29805819       0.03006850
14
Frame=5 idx=006639 GeodesicLength=0.2561016498791524 rxn_smarts="[O:1]=[C:2]([C@@:3]1([H:9])[C@@:4]2([H:10])[C:5]([H:11])([H:12])[C:6]([H:13])([H:14])[N:7]12)[H:8]>>[O:1]1[C:2]([H:8])=[C:3]([H:9])[C@@:4]2([H:10])[C:5]([H:11])([H:12])[C@:6]1([H:13])[N:7]2[H:14]"
O        0.81411342       0.73997689       1.50049074
C        1.23385132       1.23654018       0.41795709
C        0.81714725       0.79896373      -0.83690935
C       -0.04560283      -0.39657424      -0.99219678
C       -0.12633142      -1.33930848       0.22654434
C       -0.97648659      -0.21943660       0.79655001
N       -1.12793141       0.47817040      -0.43443512
H        1.86260072       2.13748252       0.46150085
H        1.04315396       1.38909026      -1.71376024
H       -0.17705336      -0.76912045      -2.00414083
H        0.79796193      -1.57008188       0.74566353
H       -0.69585150      -2.24812740       0.02706083
H       -1.34777919       0.05835857       1.77249801
H       -2.07179230      -0.29593350       0.03317693
14
Frame=6 idx=006639 GeodesicLength=0.3073198201817997 rxn_smarts="[O:1]=[C:2]([C@@:3]1([H:9])[C@@:4]2([H:10])[C:5]([H:11])([H:12])[C:6]([H:13])([H:14])[N:7]12)[H:8]>>[O:1]1[C:2]([H:8])=[C:3]([H:9])[C@@:4]2([H:10])[C:5]([H:11])([H:12])[C@:6]1([H:13])[N:7]2[H:14]"
O        0.79291438       0.75354203       1.50264481
C        1.23298585       1.23414708       0.41917642
C        0.80161366       0.80571356      -0.83471234
C       -0.04474863      -0.40114542      -0.99564635
C       -0.12264276      -1.33821343       0.22584524
C       -0.96940444      -0.21511377       0.79801446
N       -1.12594472       0.47649422      -0.44141479
H        1.88058736       2.12116967       0.46348289
H        1.03717883       1.39274187      -1.71113072
H       -0.17099211      -0.77418038      -2.00797582
H        0.80431956      -1.57124349       0.73997008
H       -0.69639340      -2.24521332       0.03129465
H       -1.34432018       0.05535593       1.77424450
H       -2.07515338      -0.29405457       0.03620698
14
Frame=7 idx=006639 GeodesicLength=0.35854507326184937 rxn_smarts="[O:1]=[C:2]([C@@:3]1([H:9])[C@@:4]2([H:10])[C:5]([H:11])([H:12])[C:6]([H:13])([H:14])[N:7]12)[H:8]>>[O:1]1[C:2]([H:8])=[C:3]([H:9])[C@@:4]2([H:10])[C:5]([H:11])([H:12])[C@:6]1([H:13])[N:7]2[H:14]"
O        0.77207015       0.76716579       1.50442956
C        1.23223715       1.23144114       0.42033649
C        0.78639153       0.81218149      -0.83249144
C       -0.04384941      -0.40555896      -0.99902271
C       -0.11898087      -1.33707281       0.22512719
C       -0.96230871      -0.21076207       0.79953207
N       -1.12393662       0.47490721      -0.44827447
H        1.89734358       2.10495836       0.46545878
H        1.03147735       1.39612691      -1.70838904
H       -0.16487071      -0.77903326      -2.01173704
H        0.81057200      -1.57251312       0.73426338
H       -0.69696129      -2.24218847       0.03542016
H       -1.34063360       0.05235767       1.77607527
H       -2.07855055      -0.29200989       0.03927180
14
Frame=8 idx=006639 GeodesicLength=0.40975447207272625 rxn_smarts="[O:1]=[C:2]([C@@:3]1([H:9])[C@@:4]2([H:10])[C:5]([H:11])([H:12])[C:6]([H:13])([H:14])[N:7]12)[H:8]>>[O:1]1[C:2]([H:8])=[C:3]([H:9])[C@@:4]2([H:10])[C:5]([H:11])([H:12])[C@:6]1([H:13])[N:7]2[H:14]"
O        0.75173746       0.78072136       1.50581811
C        1.23170011       1.22835092       0.42144090
C        0.77159335       0.81827969      -0.83025476
C       -0.04290048      -0.40985557      -1.00233456
C       -0.11538843      -1.33592467       0.22436907
C       -0.95513878      -0.20636171       0.80110341
N       -1.12182262       0.47344334      -0.45500074
H        1.91237455       2.08920625       0.46751357
H        1.02613958       1.39915695      -1.70553310
H       -0.15873452      -0.78370594      -2.01542680
H        0.81667124      -1.57400013       0.72849027
H       -0.69767383      -2.23904699       0.03942294
H       -1.33660924       0.04943308       1.77799330
H       -2.08194839      -0.28969659       0.04239838
14
Frame=9 idx=006639 GeodesicLength=0.4610001622967499 rxn_smarts="[O:1]=[C:2]([C@@:3]1([H:9])[C@@:4]2([H:10])[C:5]([H:11])([H:12])[C:6]([H:13])([H:14])[N:7]12)[H:8]>>[O:1]1[C:2]([H:8])=[C:3]([H:9])[C@@:4]2([H:10])[C:5]([H:11])([H:12])[C@:6]1([H:13])[N:7]2[H:14]"
O        0.73161500       0.79441999       1.50686402
C        1.23108103       1.22511578       0.42251201
C        0.75702608       0.82415482      -0.82798343
C       -0.04191792      -0.41400524      -1.00557309
C       -0.11179747      -1.33471615       0.22361056
C       -0.94798980      -0.20196109       0.80270659
N       -1.11974621       0.47200233      -0.46165070
H        1.92680113       2.07328225       0.46954429
H        1.02087531       1.40206152      -1.70254232
H       -0.15250225      -0.78820657      -2.01903931
H        0.82269486      -1.57552192       0.72273313
H       -0.69833163      -2.23581164       0.04334282
H       -1.33240844       0.04650816       1.77995829
H       -2.08539968      -0.28732226       0.04551714
14
Frame=10 idx=006639 GeodesicLength=0.5122618731342362 rxn_smarts="[O:1]=[C:2]([C@@:3]1([H:9])[C@@:4]2([H:10])[C:5]([H:11])([H:12])[C:6]([H:13])([H:14])[N:7]12)[H:8]>>[O:1]1[C:2]([H:8])=[C:3]([H:9])[C@@:4]2([H:10])[C:5]([H:11])([H:12])[C@:6]1([H:13])[N:7]2[H:14]"
O        0.71166862       0.80831414       1.50753499
C        1.23031654       1.22180462       0.42354825
C        0.74267787       0.82983592      -0.82569882
C       -0.04089644      -0.41801639      -1.00874555
C       -0.10818712      -1.33343703       0.22285248
C       -0.94087172      -0.19755495       0.80433691
N       -1.11772846       0.47056667      -0.46823217
H        1.94075147       2.05698788       0.47162549
H        1.01561865       1.40489323      -1.69943023
H       -0.14615546      -0.79256067      -2.02257126
H        0.82868063      -1.57703819       0.71697531
H       -0.69890376      -2.23249170       0.04720201
H       -1.32804842       0.04361335       1.78196451
H       -2.08892238      -0.28491688       0.04863809
14
Frame=11 idx=006639 GeodesicLength=0.5635590501827812 rxn_smarts="[O:1]=[C:2]([C@@:3]1([H:9])[C@@:4]2([H:10])[C:5]([H:11])([H:12])[C:6]([H:13])([H:14])[N:7]12)[H:8]>>[O:1]1[C:2]([H:8])=[C:3]([H:9])[C@@:4]2([H:10])[C:5]([H:11])([H:12])[C@:6]1([H:13])[N:7]2[H:14]"
O        0.69182116       0.82245973       1.50785237
C        1.22932875       1.21848820       0.42455569
C        0.72849910       0.83535846      -0.82340088
C       -0.03984226      -0.42188767      -1.01184934
C       -0.10454162      -1.33207804       0.22211176
C       -0.93379837      -0.19315340       0.80598273
N       -1.11579717       0.46911111      -0.47477329
H        1.95449739       2.04014149       0.47374221
H        1.01027206       1.40773386      -1.69619135
H       -0.13967178      -0.79677568      -2.02601925
H        0.83464616      -1.57851410       0.71124215
H       -0.69934672      -2.22909404       0.05102052
H       -1.32354518       0.04073763       1.78399355
H       -2.09252151      -0.28252756       0.05173312
14
Frame=12 idx=006639 GeodesicLength=0.6148869174914579 rxn_smarts="[O:1]=[C:2]([C@@:3]1([H:9])[C@@:4]2([H:10])[C:5]([H:11])([H:12])[C:6]([H:13])([H:14])[N:7]12)[H:8]>>[O:1]1[C:2]([H:8])=[C:3]([H:9])[C@@:4]2([H:10])[C:5]([H:11])([H:12])[C@:6]1([H:13])[N:7]2[H:14]"
O        0.67201518       0.83689117       1.50780196
C        1.22809757       1.21521612       0.42553839
C        0.71447850       0.84074208      -0.82110428
C       -0.03876289      -0.42563287      -1.01489501
C       -0.10085282      -1.33064578       0.22139058
C       -0.92678254      -0.18876088       0.80764427
N       -1.11397425       0.46761390      -0.48128149
H        1.96821100       2.02267346       0.47594621
H        1.00478632       1.41064459      -1.69284273
H       -0.13304709      -0.80087556      -2.02939312
H        0.84062233      -1.57993650       0.70552991
H       -0.69964988      -2.22564445       0.05481380
H       -1.31892010       0.03790391       1.78604484
H       -2.09622131      -0.28018920       0.05480667
14
Frame=13 idx=006639 GeodesicLength=0.6662868402267781 rxn_smarts="[O:1]=[C:2]([C@@:3]1([H:9])[C@@:4]2([H:10])[C:5]([H:11])([H:12])[C:6]([H:13])([H:14])[N:7]12)[H:8]>>[O:1]1[C:2]([H:8])=[C:3]([H:9])[C@@:4]2([H:10])[C:5]([H:11])([H:12])[C@:6]1([H:13])[N:7]2[H:14]"
O        0.65198659       0.85180754       1.50741343
C        1.22626071       1.21225352       0.42650605
C        0.70040694       0.84612881      -0.81880993
C       -0.03763871      -0.42919992      -1.01786614
C       -0.09702494      -1.32903365       0.22072353
C       -0.91989534      -0.18438256       0.80930193
N       -1.11237249       0.46599739      -0.48779966
H        1.98277447       2.00365882       0.47815766
H        0.99888203       1.41379440      -1.68937723
H       -0.12615794      -0.80484374      -2.03266379
H        0.84670020      -1.58104742       0.69988991
H       -0.69957972      -2.22210709       0.05863062
H       -1.31430362       0.03505282       1.78808074
H       -2.10003820      -0.27807891       0.05781289
14
Frame=14 idx=006639 GeodesicLength=0.7177153245944574 rxn_smarts="[O:1]=[C:2]([C@@:3]1([H:9])[C@@:4]2([H:10])[C:5]([H:11])([H:12])[C:6]([H:13])([H:14])[N:7]12)[H:8]>>[O:1]1[C:2]([H:8])=[C:3]([H:9])[C@@:4]2([H:10])[C:5]([H:11])([H:12])[C@:6]1([H:13])[N:7]2[H:14]"
O        0.63218284       0.86681766       1.50665302
C        1.22432035       1.20924068       0.42745495
C        0.68662435       0.85126251      -0.81652909
C       -0.03647900      -0.43268854      -1.02079315
C       -0.09320362      -1.32740077       0.22005402
C       -0.91298444      -0.17998751       0.81098678
N       -1.11076266       0.46440008      -0.49426373
H        1.99661055       1.98447898       0.48052184
H        0.99298563       1.41689980      -1.68582274
H       -0.11917506      -0.80871016      -2.03587595
H        0.85273251      -1.58225790       0.69420644
H       -0.69951799      -2.21850886       0.06240745
H       -1.30942619       0.03231775       1.79016317
H       -2.10390728      -0.27586372       0.06083698
14
Frame=15 idx=006639 GeodesicLength=0.7691737844724306 rxn_smarts="[O:1]=[C:2]([C@@:3]1([H:9])[C@@:4]2([H:10])[C:5]([H:11])([H:12])[C:6]([H:13])([H:14])[N:7]12)[H:8]>>[O:1]1[C:2]([H:8])=[C:3]([H:9])[C@@:4]2([H:10])[C:5]([H:11])([H:12])[C@:6]1([H:13])[N:7]2[H:14]"
O        0.61267723       0.88180955       1.50553996
C        1.22231907       1.20614131       0.42839441
C        0.67317890       0.85608927      -0.81426037
C       -0.03528158      -0.43612113      -1.02367884
C       -0.08941734      -1.32577096       0.21936827
C       -0.90601979      -0.17557602       0.81270531
N       -1.10909213       0.46284381      -0.50065751
H        2.00948380       1.96541824       0.48303805
H        0.98717456       1.41988328      -1.68218616
H       -0.11212527      -0.81247918      -2.03903367
H        0.85867785      -1.58363436       0.68844384
H       -0.69952924      -2.21483960       0.06612766
H       -1.30424415       0.02971387       1.79230432
H       -2.10780191      -0.27347806       0.06389471
14
Frame=16 idx=006639 GeodesicLength=0.8206534545999082 rxn_smarts="[O:1]=[C:2]([C@@:3]1([H:9])[C@@:4]2([H:10])[C:5]([H:11])([H:12])[C:6]([H:13])([H:14])[N:7]12)[H:8]>>[O:1]1[C:2]([H:8])=[C:3]([H:9])[C@@:4]2([H:10])[C:5]([H:11])([H:12])[C@:6]1([H:13])[N:7]2[H:14]"
O        0.59355319       0.89666648       1.50409725
C        1.22032054       1.20290737       0.42933768
C        0.66012749       0.86055804      -0.81200029
C       -0.03405084      -0.43952488      -1.02652787
C       -0.08570041      -1.32418131       0.21865279
C       -0.89897457      -0.17115402       0.81446321
N       -1.10731355       0.46135309      -0.50696607
H        2.02117398       1.94683520       0.48570725
H        0.98153576       1.42266991      -1.67847511
H       -0.10504906      -0.81616184      -2.04214478
H        0.86449398      -1.58526189       0.68257141
H       -0.69969098      -2.21110495       0.06977351
H       -1.29871879       0.02725438       1.79451316
H       -2.11170674      -0.27085557       0.06699786
