10
Frame=0 idx=002355 GeodesicLength=0.0 rxn_smarts="[O:1]([C@@:2]1([H:8])[C:3]([H:9])([H:10])[O:4][C:5]1=[O:6])[H:7]>>[O:1]([C:5]([O:4][C:3]([C:2][H:8])([H:9])[H:10])=[O:6])[H:7]"
O       -0.51205980      -1.04127018       0.46238076
C       -0.51237142      -0.03331442      -0.80861091
C       -0.12353838       1.16312170      -0.00888938
O        1.04393431       0.60818016       0.65747159
C        0.98191745      -0.67309556       0.34584280
O        1.78564691      -1.53079380       0.34360925
H       -0.52924747      -1.93415146       0.09199107
H       -1.52609206      -0.06514274      -1.20680713
H       -0.80175360       1.52200422       0.77308468
H        0.19356405       1.98446208      -0.65007273
10
Frame=1 idx=002355 GeodesicLength=0.05764721803371942 rxn_smarts="[O:1]([C@@:2]1([H:8])[C:3]([H:9])([H:10])[O:4][C:5]1=[O:6])[H:7]>>[O:1]([C:5]([O:4][C:3]([C:2][H:8])([H:9])[H:10])=[O:6])[H:7]"
O       -0.52045559      -1.05031192       0.47089599
C       -0.51296606      -0.03190520      -0.80826377
C       -0.12335780       1.16257446      -0.00760288
O        1.05127684       0.61109998       0.64775024
C        0.98327362      -0.67368116       0.34481403
O        1.79379374      -1.52622825       0.34307896
H       -0.53680959      -1.94641702       0.10917173
H       -1.51840709      -0.04464611      -1.22791049
H       -0.80059395       1.51297638       0.77872251
H        0.18424588       1.98653884      -0.65065632
10
Frame=2 idx=002355 GeodesicLength=0.11527068425099847 rxn_smarts="[O:1]([C@@:2]1([H:8])[C:3]([H:9])([H:10])[O:4][C:5]1=[O:6])[H:7]>>[O:1]([C:5]([O:4][C:3]([C:2][H:8])([H:9])[H:10])=[O:6])[H:7]"
O       -0.52897513      -1.05945574       0.47966221
C       -0.51388133      -0.03049483      -0.80778283
C       -0.12328170       1.16200284      -0.00626285
O        1.05855922       0.61399659       0.63771349
C        0.98455881      -0.67425292       0.34365048
O        1.80186067      -1.52157316       0.34220362
H       -0.54440828      -1.95885444       0.12703677
H       -1.50979908      -0.02381515      -1.24965380
H       -0.79931710       1.50384054       0.78451233
H        0.17468392       1.98860627      -0.65107943
10
Frame=3 idx=002355 GeodesicLength=0.1728790564090595 rxn_smarts="[O:1]([C@@:2]1([H:8])[C:3]([H:9])([H:10])[O:4][C:5]1=[O:6])[H:7]>>[O:1]([C:5]([O:4][C:3]([C:2][H:8])([H:9])[H:10])=[O:6])[H:7]"
O       -0.53761917      -1.06871398       0.48868154
C       -0.51515240      -0.02908461      -0.80717629
C       -0.12331787       1.16140297      -0.00487506
O        1.06575237       0.61685962       0.62738476
C        0.98577395      -0.67480902       0.34232691
O        1.80985695      -1.51682320       0.34097040
H       -0.55202671      -1.97146618       0.14559376
H       -1.50022726      -0.00262564      -1.27200000
H       -0.79794182       1.49461159       0.79043804
H        0.16490196       1.99064845      -0.65134407
10
Frame=4 idx=002355 GeodesicLength=0.23047740309650758 rxn_smarts="[O:1]([C@@:2]1([H:8])[C:3]([H:9])([H:10])[O:4][C:5]1=[O:6])[H:7]>>[O:1]([C:5]([O:4][C:3]([C:2][H:8])([H:9])[H:10])=[O:6])[H:7]"
O       -0.54639418      -1.07808124       0.49798706
C       -0.51681751      -0.02766500      -0.80641980
C       -0.12348272       1.16078255      -0.00342373
O        1.07285382       0.61969025       0.61673018
C        0.98690743      -0.67535297       0.34082324
O        1.81775918      -1.51199452       0.33931648
H       -0.55967357      -1.98424915       0.16491538
H       -1.48955741       0.01889399      -1.29503624
H       -0.79646019       1.48529070       0.79652968
H        0.15486516       1.99268539      -0.65142225
10
Frame=5 idx=002355 GeodesicLength=0.2880787115792708 rxn_smarts="[O:1]([C@@:2]1([H:8])[C:3]([H:9])([H:10])[O:4][C:5]1=[O:6])[H:7]>>[O:1]([C:5]([O:4][C:3]([C:2][H:8])([H:9])[H:10])=[O:6])[H:7]"
O       -0.55530613      -1.08756552       0.50759072
C       -0.51892233      -0.02623308      -0.80551082
C       -0.12378756       1.16014404      -0.00190704
O        1.07984128       0.62248295       0.60575951
C        0.98795528      -0.67588416       0.33910895
O        1.82556858      -1.50708754       0.33721065
H       -0.56734048      -1.99720245       0.18502396
H       -1.47770929       0.04073887      -1.31875615
H       -0.79488636       1.47589494       0.80278739
H        0.14458701       1.99471196      -0.65130716
10
Frame=6 idx=002355 GeodesicLength=0.3456465733732581 rxn_smarts="[O:1]([C@@:2]1([H:8])[C:3]([H:9])([H:10])[O:4][C:5]1=[O:6])[H:7]>>[O:1]([C:5]([O:4][C:3]([C:2][H:8])([H:9])[H:10])=[O:6])[H:7]"
O       -0.56435261      -1.09717446       0.51750301
C       -0.52150613      -0.02477329      -0.80443725
C       -0.12424470       1.15948908      -0.00032435
O        1.08667765       0.62522844       0.59446972
C        0.98889805      -0.67640095       0.33714913
O        1.83325663      -1.50210005       0.33461309
H       -0.57501090      -2.01031750       0.20594654
H       -1.46456812       0.06288774      -1.34313642
H       -0.79322291       1.46642983       0.80920194
H        0.13407305       1.99673116      -0.65098541
10
Frame=7 idx=002355 GeodesicLength=0.40319850867370854 rxn_smarts="[O:1]([C@@:2]1([H:8])[C:3]([H:9])([H:10])[O:4][C:5]1=[O:6])[H:7]>>[O:1]([C:5]([O:4][C:3]([C:2][H:8])([H:9])[H:10])=[O:6])[H:7]"
O       -0.57354511      -1.10690202       0.52776005
C       -0.52462130      -0.02327487      -0.80317889
C       -0.12487509       1.15882186       0.00134036
O        1.09335404       0.62792492       0.58282999
C        0.98971921      -0.67690560       0.33491477
O        1.84080011      -1.49704149       0.33144529
H       -0.58269255      -2.02358460       0.22776345
H       -1.44995955       0.08531254      -1.36825429
H       -0.79146740       1.45689152       0.81581000
H        0.12328765       1.99875773      -0.65043074
10
Frame=8 idx=002355 GeodesicLength=0.4607506478302365 rxn_smarts="[O:1]([C@@:2]1([H:8])[C:3]([H:9])([H:10])[O:4][C:5]1=[O:6])[H:7]>>[O:1]([C:5]([O:4][C:3]([C:2][H:8])([H:9])[H:10])=[O:6])[H:7]"
O       -0.58289369      -1.11674822       0.53837560
C       -0.52832575      -0.02172315      -0.80173246
C       -0.12569704       1.15815809       0.00309625
O        1.09985262       0.63057112       0.57084270
C        0.99041039      -0.67740335       0.33237075
O        1.84819243      -1.49193233       0.32765501
H       -0.59038180      -2.03699571       0.25049887
H       -1.43375501       0.10795179      -1.39410871
H       -0.78963138       1.44731540       0.82262600
H        0.11222923       2.00080635      -0.64962401
10
Frame=9 idx=002355 GeodesicLength=0.518305691455336 rxn_smarts="[O:1]([C@@:2]1([H:8])[C:3]([H:9])([H:10])[O:4][C:5]1=[O:6])[H:7]>>[O:1]([C:5]([O:4][C:3]([C:2][H:8])([H:9])[H:10])=[O:6])[H:7]"
O       -0.59240482      -1.12671930       0.54937082
C       -0.53267729      -0.02010836      -0.80008608
C       -0.12673776       1.15749326       0.00494753
O        1.10614360       0.63315859       0.55846237
C        0.99093894      -0.67790012       0.32947423
O        1.85539649      -1.48677425       0.32317285
H       -0.59806429      -2.05055385       0.27425599
H       -1.41573339       0.13082861      -1.42072439
H       -0.78771100       1.43767996       0.82966663
H        0.10084951       2.00289546      -0.64853996
10
Frame=10 idx=002355 GeodesicLength=0.5756810974088448 rxn_smarts="[O:1]([C@@:2]1([H:8])[C:3]([H:9])([H:10])[O:4][C:5]1=[O:6])[H:7]>>[O:1]([C:5]([O:4][C:3]([C:2][H:8])([H:9])[H:10])=[O:6])[H:7]"
O       -0.60208401      -1.13678654       0.56078320
C       -0.53770122      -0.01836478      -0.79817790
C       -0.12800271       1.15680720       0.00691461
O        1.11213900       0.63567061       0.54566280
C        0.99122603      -0.67834942       0.32616747
O        1.86226900      -1.48149033       0.31783459
H       -0.60574353      -2.06415352       0.29906153
H       -1.39559627       0.15374768      -1.44805103
H       -0.78568388       1.42792178       0.83694273
H        0.08917759       2.00499734      -0.64713799
10
Frame=11 idx=002355 GeodesicLength=0.6331596222395481 rxn_smarts="[O:1]([C@@:2]1([H:8])[C:3]([H:9])([H:10])[O:4][C:5]1=[O:6])[H:7]>>[O:1]([C:5]([O:4][C:3]([C:2][H:8])([H:9])[H:10])=[O:6])[H:7]"
O       -0.61196843      -1.14695874       0.57260957
C       -0.54350630      -0.01650143      -0.79608366
C       -0.12953219       1.15616248       0.00900603
O        1.11789721       0.63812235       0.53248159
C        0.99132812      -0.67880919       0.32242953
O        1.86893552      -1.47621107       0.31162070
H       -0.61343142      -2.07785848       0.32496834
H       -1.37327238       0.17668249      -1.47613041
H       -0.78361016       1.41817481       0.84449969
H        0.07716002       2.00719678      -0.64540138
10
Frame=12 idx=002355 GeodesicLength=0.6905539964882834 rxn_smarts="[O:1]([C@@:2]1([H:8])[C:3]([H:9])([H:10])[O:4][C:5]1=[O:6])[H:7]>>[O:1]([C:5]([O:4][C:3]([C:2][H:8])([H:9])[H:10])=[O:6])[H:7]"
O       -0.62205644      -1.15723091       0.58485094
C       -0.55011836      -0.01446602      -0.79375246
C       -0.13134478       1.15554452       0.01122776
O        1.12331680       0.64051091       0.51883225
C        0.99113499      -0.67925056       0.31819527
O        1.87521808      -1.47087680       0.30437807
H       -0.62110043      -2.09162207       0.35207702
H       -1.34836340       0.19952015      -1.50486240
H       -0.78144553       1.40835819       0.85232362
H        0.06475908       2.00951259      -0.64327006
10
Frame=13 idx=002355 GeodesicLength=0.7479054310240739 rxn_smarts="[O:1]([C@@:2]1([H:8])[C:3]([H:9])([H:10])[O:4][C:5]1=[O:6])[H:7]>>[O:1]([C:5]([O:4][C:3]([C:2][H:8])([H:9])[H:10])=[O:6])[H:7]"
O       -0.63237445      -1.16758134       0.59749359
C       -0.55759898      -0.01220541      -0.79121794
C       -0.13346640       1.15498186       0.01359081
O        1.12837337       0.64282968       0.50472980
C        0.99062877      -0.67968128       0.31341877
O        1.88110098      -1.46552424       0.29601484
H       -0.62874259      -2.10539918       0.38039653
H       -1.32066929       0.22208412      -1.53414956
H       -0.77921607       1.39851765       0.86043899
H        0.05196467       2.01197814      -0.64071583
10
Frame=14 idx=002355 GeodesicLength=0.805268680466229 rxn_smarts="[O:1]([C@@:2]1([H:8])[C:3]([H:9])([H:10])[O:4][C:5]1=[O:6])[H:7]>>[O:1]([C:5]([O:4][C:3]([C:2][H:8])([H:9])[H:10])=[O:6])[H:7]"
O       -0.64296115      -1.17799795       0.61050604
C       -0.56598435      -0.00965845      -0.78852738
C       -0.13591122       1.15450052       0.01610316
O        1.13303652       0.64508606       0.49018215
C        0.98977298      -0.68009485       0.30805774
O        1.88653574      -1.46015996       0.28641554
H       -0.63635683      -2.11915220       0.40995260
H       -1.28996941       0.24416956      -1.56384830
H       -0.77693908       1.38866506       0.86886240
H        0.03877679       2.01464222      -0.63770394
10
Frame=15 idx=002355 GeodesicLength=0.862562609599519 rxn_smarts="[O:1]([C@@:2]1([H:8])[C:3]([H:9])([H:10])[O:4][C:5]1=[O:6])[H:7]>>[O:1]([C:5]([O:4][C:3]([C:2][H:8])([H:9])[H:10])=[O:6])[H:7]"
O       -0.65385286      -1.18843395       0.62383179
C       -0.57529167      -0.00674600      -0.78569698
C       -0.13869566       1.15410517       0.01877543
O        1.13725467       0.64727362       0.47516564
C        0.98850837      -0.68046677       0.30206409
O        1.89143269      -1.45476171       0.27543994
H       -0.64394110      -2.13277687       0.44074928
H       -1.25597314       0.26551693      -1.59374254
H       -0.77462213       1.37877720       0.87759102
H        0.02518083       2.01751237      -0.63417767
10
Frame=16 idx=002355 GeodesicLength=0.9198652763448563 rxn_smarts="[O:1]([C@@:2]1([H:8])[C:3]([H:9])([H:10])[O:4][C:5]1=[O:6])[H:7]>>[O:1]([C:5]([O:4][C:3]([C:2][H:8])([H:9])[H:10])=[O:6])[H:7]"
O       -0.66508937      -1.19890083       0.63730202
C       -0.58543237      -0.00339728      -0.78290412
C       -0.14179480       1.15382471       0.02156409
O        1.14099516       0.64940764       0.45975058
C        0.98681139      -0.68079661       0.29542951
O        1.89575390      -1.44934069       0.26309587
H       -0.65144151      -2.14626795       0.47276874
H       -1.21873565       0.28596522      -1.62339479
H       -0.77231014       1.36884598       0.88652153
H        0.01124339       2.02065980      -0.63013343
