18
Frame=0 idx=011090 GeodesicLength=0.0 rxn_smarts="[C:1]([C@@:2]1([H:11])[C:3]([H:12])([H:13])[N:4]1[C:5]([C:6]([O:7][H:18])([H:16])[H:17])([H:14])[H:15])([H:8])([H:9])[H:10]>>[C:1]([N+:4]1([C:5]([C:6]([O:7][H:18])([H:16])[H:17])([H:14])[H:15])[C-:2]([H:11])[C:3]1([H:12])[H:13])([H:8])([H:9])[H:10]"
C        1.12236844       0.47303042      -1.16158973
C        1.58332304      -1.13484909      -0.15348996
C        1.43811029      -0.66964390       1.22865975
N        0.48325602       0.06518192       0.43926592
C       -0.90931798      -0.35878231       0.58295255
C       -1.84870527       0.40331974      -0.33025499
O       -1.83581796       1.79022534      -0.07166760
H        0.32406055       1.20654327      -1.32329012
H        1.17063995      -0.13498909      -2.06488502
H        2.05738579       0.99789513      -1.01406910
H        0.89445529      -1.96249611      -0.35942432
H        2.22547214      -0.07457604       1.68810653
H        0.93861072      -1.33567520       1.92668083
H       -1.03106805      -1.43765785       0.42144415
H       -1.19423594      -0.13452728       1.61566823
H       -1.62225460       0.19455332      -1.38328243
H       -2.86755524       0.05795127      -0.14453200
H       -0.92872721       2.05449654       0.10370738
18
Frame=1 idx=011090 GeodesicLength=0.09217724136843147 rxn_smarts="[C:1]([C@@:2]1([H:11])[C:3]([H:12])([H:13])[N:4]1[C:5]([C:6]([O:7][H:18])([H:16])[H:17])([H:14])[H:15])([H:8])([H:9])[H:10]>>[C:1]([N+:4]1([C:5]([C:6]([O:7][H:18])([H:16])[H:17])([H:14])[H:15])[C-:2]([H:11])[C:3]1([H:12])[H:13])([H:8])([H:9])[H:10]"
C        1.14938325       0.49447272      -1.14963379
C        1.54836466      -1.14197166      -0.17391287
C        1.43987528      -0.68675956       1.21535512
N        0.48148633       0.05580442       0.43453847
C       -0.91268150      -0.34615805       0.60543176
C       -1.85747880       0.38232273      -0.32854687
O       -1.86203291       1.77414400      -0.10020626
H        0.37252723       1.24983023      -1.31180594
H        1.19781190      -0.08228960      -2.07338664
H        2.09277361       0.99736533      -0.97861434
H        0.85258563      -1.96259261      -0.38075212
H        2.23916902      -0.09919056       1.66315188
H        0.95067718      -1.35320749       1.92020831
H       -1.04856456      -1.42920160       0.48843052
H       -1.18550772      -0.08659092       1.63311201
H       -1.63022987       0.14973521      -1.37620134
H       -2.87375651       0.03233811      -0.13593916
H       -0.95440223       2.05194931       0.04877125
18
Frame=2 idx=011090 GeodesicLength=0.1843684004338408 rxn_smarts="[C:1]([C@@:2]1([H:11])[C:3]([H:12])([H:13])[N:4]1[C:5]([C:6]([O:7][H:18])([H:16])[H:17])([H:14])[H:15])([H:8])([H:9])[H:10]>>[C:1]([N+:4]1([C:5]([C:6]([O:7][H:18])([H:16])[H:17])([H:14])[H:15])[C-:2]([H:11])[C:3]1([H:12])[H:13])([H:8])([H:9])[H:10]"
C        1.17685391       0.51647154      -1.13634333
C        1.51234944      -1.14730027      -0.19548322
C        1.44100697      -0.70474444       1.20081828
N        0.47941391       0.04736828       0.42995487
C       -0.91571869      -0.33222900       0.62822326
C       -1.86673374       0.35994493      -0.32612088
O       -1.88861640       1.75626507      -0.13151182
H        0.42426077       1.29580026      -1.29626540
H        1.22487492      -0.02780921      -2.07981097
H        2.12904191       0.99464944      -0.94274695
H        0.80940003      -1.96055566      -0.40339670
H        2.25233686      -0.12608334       1.63787406
H        0.96213094      -1.37255794       1.91141057
H       -1.06450358      -1.41770592       0.55719936
H       -1.17578792      -0.03582808       1.64918093
H       -1.63916732       0.10144620      -1.36743931
H       -2.88012964       0.00576849      -0.12474394
H       -0.98101236       2.04709965      -0.01079881
18
Frame=3 idx=011090 GeodesicLength=0.2765409123064008 rxn_smarts="[C:1]([C@@:2]1([H:11])[C:3]([H:12])([H:13])[N:4]1[C:5]([C:6]([O:7][H:18])([H:16])[H:17])([H:14])[H:15])([H:8])([H:9])[H:10]>>[C:1]([N+:4]1([C:5]([C:6]([O:7][H:18])([H:16])[H:17])([H:14])[H:15])[C-:2]([H:11])[C:3]1([H:12])[H:13])([H:8])([H:9])[H:10]"
C        1.20472319       0.53904166      -1.12166092
C        1.47541009      -1.15051876      -0.21812778
C        1.44139393      -0.72350339       1.18508022
N        0.47703549       0.03997548       0.42555935
C       -0.91840955      -0.31700794       0.65113642
C       -1.87654284       0.33622514      -0.32275818
O       -1.91526365       1.73640855      -0.16546645
H        0.47939257       1.34427580      -1.27613150
H        1.25159715       0.02852934      -2.08406075
H        2.16609139       0.98964101      -0.90666864
H        0.76517744      -1.95617780      -0.42730247
H        2.26477852      -0.15512260       1.61239327
H        0.97275181      -1.39374180       1.90016470
H       -1.07865334      -1.40307151       0.62719271
H       -1.16517963       0.01747498       1.66352082
H       -1.64937423       0.04963632      -1.35663109
H       -2.88677002      -0.02136065      -0.11046979
H       -1.00815833       2.03929618      -0.07576993
18
Frame=4 idx=011090 GeodesicLength=0.36865672905069974 rxn_smarts="[C:1]([C@@:2]1([H:11])[C:3]([H:12])([H:13])[N:4]1[C:5]([C:6]([O:7][H:18])([H:16])[H:17])([H:14])[H:15])([H:8])([H:9])[H:10]>>[C:1]([N+:4]1([C:5]([C:6]([O:7][H:18])([H:16])[H:17])([H:14])[H:15])[C-:2]([H:11])[C:3]1([H:12])[H:13])([H:8])([H:9])[H:10]"
C        1.23292750       0.56223018      -1.10551929
C        1.43771288      -1.15130789      -0.24177365
C        1.44093290      -0.74292576       1.16816686
N        0.47434564       0.03370939       0.42139268
C       -0.92075265      -0.30053981       0.67398054
C       -1.88698680       0.31124057      -0.31821783
O       -1.94156098       1.71442251      -0.20192055
H        0.53796016       1.39494512      -1.25087705
H        1.27781056       0.08688418      -2.08603502
H        2.20376639       0.98232847      -0.87055383
H        0.72024424      -1.94926111      -0.45244419
H        2.27629643      -0.18614258       1.58681858
H        0.98232267      -1.41675725       1.88633932
H       -1.09082987      -1.38528030       0.69784810
H       -1.15381952       0.07298091       1.67580929
H       -1.66120095      -0.00573240      -1.34335613
H       -2.89380396      -0.04849202      -0.09262149
H       -1.03536465       2.02769778      -0.14703634
18
Frame=5 idx=011090 GeodesicLength=0.4606776803771174 rxn_smarts="[C:1]([C@@:2]1([H:11])[C:3]([H:12])([H:13])[N:4]1[C:5]([C:6]([O:7][H:18])([H:16])[H:17])([H:14])[H:15])([H:8])([H:9])[H:10]>>[C:1]([N+:4]1([C:5]([C:6]([O:7][H:18])([H:16])[H:17])([H:14])[H:15])[C-:2]([H:11])[C:3]1([H:12])[H:13])([H:8])([H:9])[H:10]"
C        1.26138896       0.58612907      -1.08783508
C        1.39944733      -1.14934848      -0.26636304
C        1.43953480      -0.76289282       1.15008504
N        0.47133501       0.02863108       0.41749140
C       -0.92276555      -0.28290047       0.69658011
C       -1.89814628       0.28510827      -0.31224617
O       -1.96695224       1.69019330      -0.24077641
H        0.59986026       1.44735977      -1.22002013
H        1.30344180       0.14750742      -2.08561092
H        2.24184027       0.97282007      -0.83452548
H        0.67495469      -1.93961120      -0.47884788
H        2.28670564      -0.21895593       1.56122879
H        0.99064102      -1.44159050       1.86978164
H       -1.10090961      -1.36438892       0.76864075
H       -1.14187171       0.13033007       1.68576811
H       -1.67503708      -0.06472743      -1.32712254
H       -2.90138728      -0.07487231      -0.07070081
H       -1.06208003       2.01120901      -0.22552737
18
Frame=6 idx=011090 GeodesicLength=0.5525398686269771 rxn_smarts="[C:1]([C@@:2]1([H:11])[C:3]([H:12])([H:13])[N:4]1[C:5]([C:6]([O:7][H:18])([H:16])[H:17])([H:14])[H:15])([H:8])([H:9])[H:10]>>[C:1]([N+:4]1([C:5]([C:6]([O:7][H:18])([H:16])[H:17])([H:14])[H:15])[C-:2]([H:11])[C:3]1([H:12])[H:13])([H:8])([H:9])[H:10]"
C        1.29001099       0.61085121      -1.06852196
C        1.36084325      -1.14432968      -0.29184303
C        1.43712786      -0.78327772       1.13082717
N        0.46799394       0.02477419       0.41388240
C       -0.92448066      -0.26420406       0.71877342
C       -1.91009121       0.25801893      -0.30457046
O       -1.99070361       1.66366216      -0.28195283
H        0.66471157       1.50085059      -1.18326638
H        1.32860583       0.21067302      -2.08262518
H        2.27997019       0.96143250      -0.79862576
H        0.62970211      -1.92703953      -0.50658823
H        2.29582788      -0.25334695       1.53568765
H        0.99751758      -1.46821690       1.85031383
H       -1.10880604      -1.34053726       0.83904067
H       -1.12952021       0.18909436       1.69318164
H       -1.69132520      -0.12737424      -1.30735476
H       -2.90969672      -0.09948581      -0.04422530
H       -1.08768754       1.98845518      -0.31213290
18
Frame=7 idx=011090 GeodesicLength=0.6442060292697849 rxn_smarts="[C:1]([C@@:2]1([H:11])[C:3]([H:12])([H:13])[N:4]1[C:5]([C:6]([O:7][H:18])([H:16])[H:17])([H:14])[H:15])([H:8])([H:9])[H:10]>>[C:1]([N+:4]1([C:5]([C:6]([O:7][H:18])([H:16])[H:17])([H:14])[H:15])[C-:2]([H:11])[C:3]1([H:12])[H:13])([H:8])([H:9])[H:10]"
C        1.31865474       0.63653597      -1.04749706
C        1.32213784      -1.13595764      -0.31818312
C        1.43366609      -0.80394743       1.11034902
N        0.46430898       0.02214654       0.41058259
C       -0.92594368      -0.24459586       0.74042942
C       -1.92285602       0.23022752      -0.29494455
O       -2.01189134       1.63479946      -0.32560396
H        0.73182333       1.55461100      -1.14059161
H        1.35360631       0.27664629      -2.07687312
H        2.31769857       0.94867511      -0.76279280
H        0.58487222      -1.91135680      -0.53579861
H        2.30352227      -0.28908406       1.51019209
H        1.00279715      -1.49658704       1.82772646
H       -1.11450214      -1.31392831       0.90858636
H       -1.11696478       0.24884681       1.69789168
H       -1.71051918      -0.19374341      -1.28337810
H       -2.91890659      -0.12104831      -0.01281974
H       -1.11150379       1.95776016      -0.40727495
18
Frame=8 idx=011090 GeodesicLength=0.7356426627907495 rxn_smarts="[C:1]([C@@:2]1([H:11])[C:3]([H:12])([H:13])[N:4]1[C:5]([C:6]([O:7][H:18])([H:16])[H:17])([H:14])[H:15])([H:8])([H:9])[H:10]>>[C:1]([N+:4]1([C:5]([C:6]([O:7][H:18])([H:16])[H:17])([H:14])[H:15])[C-:2]([H:11])[C:3]1([H:12])[H:13])([H:8])([H:9])[H:10]"
C        1.34714467       0.66325637      -1.02474306
C        1.28360052      -1.12399949      -0.34532270
C        1.42913614      -0.82474500       1.08860202
N        0.46027870       0.02072785       0.40758525
C       -0.92719991      -0.22426240       0.76142354
C       -1.93640220       0.20210778      -0.28317427
O       -2.02949263       1.60358355      -0.37188844
H        0.80005877       1.60763189      -1.09249265
H        1.37900372       0.34544868      -2.06813366
H        2.35444783       0.93529695      -0.72687543
H        0.54085452      -1.89240775      -0.56660251
H        2.30967683      -0.32588104       1.48471049
H        1.00634867      -1.52657539       1.80182944
H       -1.11800316      -1.28485339       0.97677184
H       -1.10441394       0.30905125       1.69982521
H       -1.73302674      -0.26367207      -1.25448735
H       -2.92911692      -0.13806245       0.02362338
H       -1.13289485       1.91735468      -0.51065109
18
Frame=9 idx=011090 GeodesicLength=0.8269525541523572 rxn_smarts="[C:1]([C@@:2]1([H:11])[C:3]([H:12])([H:13])[N:4]1[C:5]([C:6]([O:7][H:18])([H:16])[H:17])([H:14])[H:15])([H:8])([H:9])[H:10]>>[C:1]([N+:4]1([C:5]([C:6]([O:7][H:18])([H:16])[H:17])([H:14])[H:15])[C-:2]([H:11])[C:3]1([H:12])[H:13])([H:8])([H:9])[H:10]"
C        1.37525905       0.69101875      -1.00032507
C        1.24546638      -1.10829758      -0.37318783
C        1.42354998      -0.84548110       1.06551296
N        0.45590102       0.02048925       0.40485974
C       -0.92829884      -0.20340652       0.78165579
C       -1.95061630       0.17408081      -0.26919531
O       -2.04256663       1.56987678      -0.42124452
H        0.86810548       1.65899725      -1.03994555
H        1.40546398       0.41684650      -2.05623498
H        2.38961161       0.92208490      -0.69066979
H        0.49796158      -1.87006348      -0.59911535
H        2.31423578      -0.36340956       1.45911311
H        1.00808609      -1.55795458       1.77246017
H       -1.11938906      -1.25364355       1.04317023
H       -1.09209229       0.36920176       1.69896109
H       -1.75911731      -0.33691321      -1.21995455
H       -2.94032276      -0.14900294       0.06479555
H       -1.15123777       1.86557653      -0.62065569
18
Frame=10 idx=011090 GeodesicLength=0.9183517258124868 rxn_smarts="[C:1]([C@@:2]1([H:11])[C:3]([H:12])([H:13])[N:4]1[C:5]([C:6]([O:7][H:18])([H:16])[H:17])([H:14])[H:15])([H:8])([H:9])[H:10]>>[C:1]([N+:4]1([C:5]([C:6]([O:7][H:18])([H:16])[H:17])([H:14])[H:15])[C-:2]([H:11])[C:3]1([H:12])[H:13])([H:8])([H:9])[H:10]"
C        1.40281017       0.71971060      -0.97439470
C        1.20792243      -1.08881293      -0.40165094
C        1.41694266      -0.86598232       1.04102391
N        0.45121759       0.02141139       0.40237543
C       -0.92926229      -0.18219193       0.80105880
C       -1.96528828       0.14659245      -0.25306637
O       -2.05052903       1.53336710      -0.47379873
H        0.93469092       1.70799795      -0.98425209
H        1.43360352       0.49026880      -2.04108127
H        2.42271463       0.90974756      -0.65399993
H        0.45636606      -1.84422357      -0.63338862
H        2.31720514      -0.40139066       1.43325155
H        1.00791898      -1.59042442       1.73952495
H       -1.11872438      -1.22062781       1.10740738
H       -1.08020010       0.42880772       1.69538253
H       -1.78879312      -0.41277216      -1.17918653
H       -2.95231042      -0.15266657       0.10987312
H       -1.16628447       1.80118880      -0.73507848
18
Frame=11 idx=011090 GeodesicLength=1.0102597962563309 rxn_smarts="[C:1]([C@@:2]1([H:11])[C:3]([H:12])([H:13])[N:4]1[C:5]([C:6]([O:7][H:18])([H:16])[H:17])([H:14])[H:15])([H:8])([H:9])[H:10]>>[C:1]([N+:4]1([C:5]([C:6]([O:7][H:18])([H:16])[H:17])([H:14])[H:15])[C-:2]([H:11])[C:3]1([H:12])[H:13])([H:8])([H:9])[H:10]"
C        1.42963063       0.74921365      -0.94711301
C        1.17103260      -1.06554515      -0.43058396
C        1.40934835      -0.88609685       1.01505232
N        0.44627933       0.02351010       0.40013616
C       -0.93010971      -0.16071751       0.81962142
C       -1.98018125       0.11997905      -0.23497387
O       -2.05315158       1.49343416      -0.52976886
H        0.99914396       1.75445102      -0.92643321
H        1.46358224       0.56518267      -2.02266989
H        2.45352062       0.89859423      -0.61687000
H        0.41604853      -1.81474014      -0.66945038
H        2.31864526      -0.43962230       1.40688561
H        1.00576575      -1.62363762       1.70296431
H       -1.11610060      -1.18606548       1.16929196
H       -1.06893949       0.48755037       1.68920784
H       -1.82185054      -0.49050363      -1.13164176
H       -2.96474301      -0.14824216       0.15764163
H       -1.17792109       1.72325559      -0.85129628
18
Frame=12 idx=011090 GeodesicLength=1.1032297770342387 rxn_smarts="[C:1]([C@@:2]1([H:11])[C:3]([H:12])([H:13])[N:4]1[C:5]([C:6]([O:7][H:18])([H:16])[H:17])([H:14])[H:15])([H:8])([H:9])[H:10]>>[C:1]([N+:4]1([C:5]([C:6]([O:7][H:18])([H:16])[H:17])([H:14])[H:15])[C-:2]([H:11])[C:3]1([H:12])[H:13])([H:8])([H:9])[H:10]"
C        1.45560741       0.77943501      -0.91860764
C        1.13471960      -1.03850816      -0.45987678
C        1.40078650      -0.90575873       0.98748859
N        0.44117985       0.02683926       0.39821843
C       -0.93085153      -0.13891590       0.83741771
C       -1.99498965       0.09440357      -0.21523070
O       -2.05061977       1.44909237      -0.58932637
H        1.06143526       1.79854626      -0.86688765
H        1.49494252       0.64125272      -2.00105670
H        2.48209132       0.88846616      -0.57958743
H        0.37675505      -1.78139240      -0.70729521
H        2.31870135      -0.47813610       1.37969446
H        1.00147908      -1.65726867       1.66273326
H       -1.11158034      -1.15000117       1.22891600
H       -1.05851978       0.54546817       1.68053932
H       -1.85770284      -0.56928097      -1.07692529
H       -2.97713145      -0.13554674       0.20653832
H       -1.18630259       1.63130533      -0.96675231
18
Frame=13 idx=011090 GeodesicLength=1.198150390188927 rxn_smarts="[C:1]([C@@:2]1([H:11])[C:3]([H:12])([H:13])[N:4]1[C:5]([C:6]([O:7][H:18])([H:16])[H:17])([H:14])[H:15])([H:8])([H:9])[H:10]>>[C:1]([N+:4]1([C:5]([C:6]([O:7][H:18])([H:16])[H:17])([H:14])[H:15])[C-:2]([H:11])[C:3]1([H:12])[H:13])([H:8])([H:9])[H:10]"
C        1.48053757       0.81036805      -0.88894099
C        1.09869943      -1.00760480      -0.48949210
C        1.39112633      -0.92486364       0.95806054
N        0.43592247       0.03151483       0.39669322
C       -0.93151521      -0.11662789       0.85454391
C       -2.00946560       0.06984964      -0.19409401
O       -2.04315130       1.39878319      -0.65307451
H        1.12202469       1.84069570      -0.80555992
H        1.52707467       0.71842703      -1.97624197
H        2.50837815       0.87902531      -0.54248279
H        0.33802334      -1.74377504      -0.74701504
H        2.31741106      -0.51701728       1.35105024
H        0.99482036      -1.69096089       1.61857422
H       -1.10522269      -1.11231156       1.28648155
H       -1.04916853       0.60285433       1.66932821
H       -1.89565940      -0.64867725      -1.01428287
H       -2.98902742      -0.11448138       0.25491930
H       -1.19080791       1.52480166      -1.07846699
18
Frame=14 idx=011090 GeodesicLength=1.2963046445367747 rxn_smarts="[C:1]([C@@:2]1([H:11])[C:3]([H:12])([H:13])[N:4]1[C:5]([C:6]([O:7][H:18])([H:16])[H:17])([H:14])[H:15])([H:8])([H:9])[H:10]>>[C:1]([N+:4]1([C:5]([C:6]([O:7][H:18])([H:16])[H:17])([H:14])[H:15])[C-:2]([H:11])[C:3]1([H:12])[H:13])([H:8])([H:9])[H:10]"
C        1.50437456       0.84208318      -0.85807471
C        1.06283709      -0.97273093      -0.51926481
C        1.38040119      -0.94343751       0.92666522
N        0.43065049       0.03758953       0.39581178
C       -0.93213541      -0.09375073       0.87113418
C       -2.02331893       0.04640571      -0.17190430
O       -2.03068629       1.34126012      -0.72047273
H        1.18186433       1.88127017      -0.74148612
H        1.55834085       0.79715100      -1.94823824
H        2.53278131       0.86957326      -0.50654764
H        0.29944412      -1.70141200      -0.78854665
H        2.31490367      -0.55638858       1.32067115
H        0.98557947      -1.72442770       1.57051666
H       -1.09708011      -1.07300413       1.34211257
H       -1.04111270       0.65975786       1.65572148
H       -1.93512839      -0.72756958      -0.94344742
H       -2.99997168      -0.08512828       0.30106259
H       -1.19174357       1.40275861      -1.18571300
18
Frame=15 idx=011090 GeodesicLength=1.399741823427415 rxn_smarts="[C:1]([C@@:2]1([H:11])[C:3]([H:12])([H:13])[N:4]1[C:5]([C:6]([O:7][H:18])([H:16])[H:17])([H:14])[H:15])([H:8])([H:9])[H:10]>>[C:1]([N+:4]1([C:5]([C:6]([O:7][H:18])([H:16])[H:17])([H:14])[H:15])[C-:2]([H:11])[C:3]1([H:12])[H:13])([H:8])([H:9])[H:10]"
C        1.52693321       0.87465260      -0.82598367
C        1.02680732      -0.93369349      -0.54907011
C        1.36847731      -0.96144662       0.89303807
N        0.42542968       0.04515387       0.39581084
C       -0.93276735      -0.07006520       0.88732336
C       -2.03624728       0.02404459      -0.14901745
O       -2.01303979       1.27478837      -0.79136706
H        1.24185201       1.92038754      -0.67377174
H        1.58726676       0.87796845      -1.91699274
H        2.55538870       0.85951475      -0.47276017
H        0.26042826      -1.65368967      -0.83183266
H        2.31121074      -0.59642313       1.28791951
H        0.97342591      -1.75733101       1.51837603
H       -1.08722074      -1.03188722       1.39601118
H       -1.03462681       0.71648689       1.63968687
H       -1.97522900      -0.80507283      -0.86397206
H       -3.00952791      -0.04765020       0.34297781
H       -1.18856101       1.26426231      -1.28637600
18
Frame=16 idx=011090 GeodesicLength=1.5113307286863835 rxn_smarts="[C:1]([C@@:2]1([H:11])[C:3]([H:12])([H:13])[N:4]1[C:5]([C:6]([O:7][H:18])([H:16])[H:17])([H:14])[H:15])([H:8])([H:9])[H:10]>>[C:1]([N+:4]1([C:5]([C:6]([O:7][H:18])([H:16])[H:17])([H:14])[H:15])[C-:2]([H:11])[C:3]1([H:12])[H:13])([H:8])([H:9])[H:10]"
C        1.54804050       0.90799416      -0.79276326
C        0.99034783      -0.89043031      -0.57859716
C        1.35523609      -0.97872632       0.85705235
N        0.42031265       0.05423868       0.39690046
C       -0.93351325      -0.04545106       0.90315405
C       -2.04791156       0.00279289      -0.12595631
O       -1.99003099       1.19783174      -0.86491335
H        1.30299702       1.95773447      -0.60165797
H        1.61205963       0.96133409      -1.88251767
H        2.57628452       0.84812769      -0.44257135
H        0.22046908      -1.60016390      -0.87648978
H        2.30633243      -0.63701784       1.25222503
H        0.95809222      -1.78910282       1.46229270
H       -1.07579109      -0.98896033       1.44808757
H       -1.03004934       0.77309025       1.62121139
H       -2.01490054      -0.87979933      -0.77602105
H       -3.01726573      -0.00267515       0.37832921
H       -1.18070946       1.10918309      -1.37776486
