11
Frame=0 idx=002531 GeodesicLength=0.0 rxn_smarts="[C:1](/[N:2]=[C:3](\[N:4]([H:10])[H:11])[C:5]#[N:6])([H:7])([H:8])[H:9]>>[C:1]([N:4]([H:10])[H:11])([H:7])([H:8])[H:9].[N:2]#[C:3][C:5]#[N:6]"
C        1.62397490       0.37881436       0.08784979
N        0.38247016      -1.42007310      -0.31258272
C       -0.61449051      -0.71653520      -0.15958601
N       -0.40327775       0.69773701       0.15141561
C       -2.00759143      -1.12082982      -0.25091079
N       -3.10674835      -1.44713567      -0.32512774
H        1.99318091      -0.24975136       0.88356366
H        2.00822868       0.12588808      -0.88826206
H        1.67859071       1.43844133       0.31287236
H       -0.77385082       1.33288027      -0.55456208
H       -0.78048655       0.98056407       1.05533001
11
Frame=1 idx=002531 GeodesicLength=0.07572590022691711 rxn_smarts="[C:1](/[N:2]=[C:3](\[N:4]([H:10])[H:11])[C:5]#[N:6])([H:7])([H:8])[H:9]>>[C:1]([N:4]([H:10])[H:11])([H:7])([H:8])[H:9].[N:2]#[C:3][C:5]#[N:6]"
C        1.61386835       0.37685377       0.08842342
N        0.38713543      -1.42896321      -0.29736082
C       -0.61718745      -0.73735098      -0.14826768
N       -0.40537970       0.70130803       0.15395802
C       -2.00925427      -1.13223759      -0.25203968
N       -3.11313179      -1.44144597      -0.32675899
H        2.01713102      -0.25674674       0.86434096
H        1.98633698       0.15304038      -0.90042027
H        1.68328582       1.43076938       0.33975335
H       -0.74365642       1.33649415      -0.56703429
H       -0.79914796       0.99827878       1.04540598
11
Frame=2 idx=002531 GeodesicLength=0.15059216740386866 rxn_smarts="[C:1](/[N:2]=[C:3](\[N:4]([H:10])[H:11])[C:5]#[N:6])([H:7])([H:8])[H:9]>>[C:1]([N:4]([H:10])[H:11])([H:7])([H:8])[H:9].[N:2]#[C:3][C:5]#[N:6]"
C        1.60379633       0.37477419       0.08901528
N        0.39189549      -1.43745677      -0.28164536
C       -0.61980764      -0.75831265      -0.13642355
N       -0.40758098       0.70510357       0.15644740
C       -2.01073855      -1.14423536      -0.25046641
N       -3.11914712      -1.43481698      -0.33173944
H        2.04092603      -0.26270157       0.84390323
H        1.96402555       0.17977514      -0.91132983
H        1.68791096       1.42233417       0.36494727
H       -0.71417686       1.33984363      -0.57781190
H       -0.81710321       1.01569264       1.03510330
11
Frame=3 idx=002531 GeodesicLength=0.22525385980871082 rxn_smarts="[C:1](/[N:2]=[C:3](\[N:4]([H:10])[H:11])[C:5]#[N:6])([H:7])([H:8])[H:9]>>[C:1]([N:4]([H:10])[H:11])([H:7])([H:8])[H:9].[N:2]#[C:3][C:5]#[N:6]"
C        1.59372872       0.37220456       0.09097597
N        0.39670075      -1.44513476      -0.26850441
C       -0.62239868      -0.77862700      -0.12798870
N       -0.40988737       0.70967746       0.15709916
C       -2.01211254      -1.15527525      -0.25302641
N       -3.12467432      -1.43019175      -0.32805864
H        2.06295189      -0.26920842       0.82370549
H        1.94307138       0.20680254      -0.91943387
H        1.69232202       1.41256796       0.39147330
H       -0.68380793       1.34458821      -0.58864307
H       -0.83589393       1.03259646       1.02240117
11
Frame=4 idx=002531 GeodesicLength=0.3001621056981483 rxn_smarts="[C:1](/[N:2]=[C:3](\[N:4]([H:10])[H:11])[C:5]#[N:6])([H:7])([H:8])[H:9]>>[C:1]([N:4]([H:10])[H:11])([H:7])([H:8])[H:9].[N:2]#[C:3][C:5]#[N:6]"
C        1.58370359       0.36951752       0.09282233
N        0.40155336      -1.45290346      -0.25476637
C       -0.62491960      -0.79935125      -0.11890816
N       -0.41224353       0.71461918       0.15783219
C       -2.01341355      -1.16709408      -0.25271842
N       -3.12990644      -1.42470850      -0.32820102
H        2.08487651      -0.27473022       0.80246836
H        1.92172295       0.23330358      -0.92675174
H        1.69667474       1.40241829       0.41640255
H       -0.65417533       1.34943152      -0.59791861
H       -0.85387270       1.04949742       1.00973890
11
Frame=5 idx=002531 GeodesicLength=0.3750694698155965 rxn_smarts="[C:1](/[N:2]=[C:3](\[N:4]([H:10])[H:11])[C:5]#[N:6])([H:7])([H:8])[H:9]>>[C:1]([N:4]([H:10])[H:11])([H:7])([H:8])[H:9].[N:2]#[C:3][C:5]#[N:6]"
C        1.57370670       0.36660876       0.09488453
N        0.40646964      -1.46053676      -0.24117033
C       -0.62735897      -0.82024775      -0.11020525
N       -0.41464742       0.71999184       0.15816107
C       -2.01465960      -1.17918022      -0.25132731
N       -3.13479054      -1.41908278      -0.32899373
H        2.10621750      -0.27960425       0.78051783
H        1.90050413       0.25944078      -0.93280396
H        1.70089951       1.39167086       0.44048460
H       -0.62487617       1.35472785      -0.60606084
H       -0.87146478       1.06621167       0.99651340
11
Frame=6 idx=002531 GeodesicLength=0.44995326990242135 rxn_smarts="[C:1](/[N:2]=[C:3](\[N:4]([H:10])[H:11])[C:5]#[N:6])([H:7])([H:8])[H:9]>>[C:1]([N:4]([H:10])[H:11])([H:7])([H:8])[H:9].[N:2]#[C:3][C:5]#[N:6]"
C        1.56373840       0.36346639       0.09717610
N        0.41145207      -1.46803531      -0.22780183
C       -0.62970795      -0.84132101      -0.10204277
N       -0.41708140       0.72579324       0.15801899
C       -2.01587636      -1.19144254      -0.24912384
N       -3.13935123      -1.41343373      -0.32996492
H        2.12685667      -0.28384875       0.75794653
H        1.87954885       0.28521290      -0.93757133
H        1.70497991       1.38033736       0.46383668
H       -0.59583848       1.36057323      -0.61314406
H       -0.88872047       1.08269821       0.98267044
11
Frame=7 idx=002531 GeodesicLength=0.5247816660841974 rxn_smarts="[C:1](/[N:2]=[C:3](\[N:4]([H:10])[H:11])[C:5]#[N:6])([H:7])([H:8])[H:9]>>[C:1]([N:4]([H:10])[H:11])([H:7])([H:8])[H:9].[N:2]#[C:3][C:5]#[N:6]"
C        1.55378511       0.36017942       0.09906924
N        0.41644723      -1.47562100      -0.21337103
C       -0.63199067      -0.86287983      -0.09262070
N       -0.41953328       0.73188946       0.15825804
C       -2.01720928      -1.20435731      -0.24295557
N       -3.14319041      -1.40684063      -0.33654878
H        2.14731401      -0.28696291       0.73405416
H        1.85805711       0.31018348      -0.94192059
H        1.70909615       1.36875315       0.48524492
H       -0.56776706       1.36649294      -0.61852179
H       -0.90500892       1.09916324       0.96931212
11
Frame=8 idx=002531 GeodesicLength=0.5996088150964287 rxn_smarts="[C:1](/[N:2]=[C:3](\[N:4]([H:10])[H:11])[C:5]#[N:6])([H:7])([H:8])[H:9]>>[C:1]([N:4]([H:10])[H:11])([H:7])([H:8])[H:9].[N:2]#[C:3][C:5]#[N:6]"
C        1.54385437       0.35658898       0.10155640
N        0.42152416      -1.48296230      -0.20006190
C       -0.63416518      -0.88447414      -0.08509894
N       -0.42198147       0.73849749       0.15740638
C       -2.01850541      -1.21695820      -0.23836380
N       -3.14687430      -1.40102952      -0.33922138
H        2.16645487      -0.28978209       0.71019902
H        1.83756210       0.33498920      -0.94450193
H        1.71294422       1.35644761       0.50682892
H       -0.53938858       1.37347264      -0.62337131
H       -0.92142478       1.11521032       0.95462854
11
Frame=9 idx=002531 GeodesicLength=0.67441159227705 rxn_smarts="[C:1](/[N:2]=[C:3](\[N:4]([H:10])[H:11])[C:5]#[N:6])([H:7])([H:8])[H:9]>>[C:1]([N:4]([H:10])[H:11])([H:7])([H:8])[H:9].[N:2]#[C:3][C:5]#[N:6]"
C        1.53393142       0.35278525       0.10403376
N        0.42664445      -1.49027922      -0.18665356
C       -0.63624477      -0.90640860      -0.07779206
N       -0.42441393       0.74548866       0.15628280
C       -2.01987233      -1.22969940      -0.23243207
N       -3.15007596      -1.39510883      -0.34308674
H        2.18478071      -0.29183232       0.68574835
H        1.81729514       0.35922698      -0.94615941
H        1.71668987       1.34373897       0.52742951
H       -0.51136433       1.38106006      -0.62704761
H       -0.93737027       1.13102845       0.93967703
11
Frame=10 idx=002531 GeodesicLength=0.7492120167989368 rxn_smarts="[C:1](/[N:2]=[C:3](\[N:4]([H:10])[H:11])[C:5]#[N:6])([H:7])([H:8])[H:9]>>[C:1]([N:4]([H:10])[H:11])([H:7])([H:8])[H:9].[N:2]#[C:3][C:5]#[N:6]"
C        1.52401493       0.34873360       0.10682436
N        0.43186641      -1.49748575      -0.17392021
C       -0.63818668      -0.92859086      -0.07188612
N       -0.42681419       0.75291320       0.15433667
C       -2.02121352      -1.24229782      -0.22721189
N       -3.15312141      -1.38957635      -0.34462253
H        2.20188650      -0.29336100       0.66130470
H        1.79786630       0.38312407      -0.94644847
H        1.72016568       1.33048667       0.54779993
H       -0.48321856       1.38959888      -0.62995255
H       -0.95324545       1.14645536       0.92377611
11
Frame=11 idx=002531 GeodesicLength=0.8239942065901672 rxn_smarts="[C:1](/[N:2]=[C:3](\[N:4]([H:10])[H:11])[C:5]#[N:6])([H:7])([H:8])[H:9]>>[C:1]([N:4]([H:10])[H:11])([H:7])([H:8])[H:9].[N:2]#[C:3][C:5]#[N:6]"
C        1.51408373       0.34448853       0.10944410
N        0.43710870      -1.50472392      -0.16090107
C       -0.64003735      -0.95121670      -0.06602390
N       -0.42917003       0.76071247       0.15224434
C       -2.02267866      -1.25499509      -0.22030101
N       -3.15557673      -1.38393319      -0.34799113
H        2.21810355      -0.29407426       0.63633538
H        1.77862482       0.40632574      -0.94607345
H        1.72357430       1.31693952       0.56700928
H       -0.45546533       1.39880038      -0.63157187
H       -0.96856700       1.16167652       0.90782933
11
Frame=12 idx=002531 GeodesicLength=0.8987694412186182 rxn_smarts="[C:1](/[N:2]=[C:3](\[N:4]([H:10])[H:11])[C:5]#[N:6])([H:7])([H:8])[H:9]>>[C:1]([N:4]([H:10])[H:11])([H:7])([H:8])[H:9].[N:2]#[C:3][C:5]#[N:6]"
C        1.50412784       0.34004308       0.11200184
N        0.44239754      -1.51196799      -0.14788958
C       -0.64177380      -0.97427771      -0.06070898
N       -0.43146981       0.76890882       0.14978462
C       -2.02422203      -1.26765553      -0.21256512
N       -3.15756569      -1.37838978      -0.35173147
H        2.23323448      -0.29408430       0.61114768
H        1.75982486       0.42890394      -0.94490506
H        1.72685034       1.30306605       0.58534798
H       -0.42789518       1.40882706      -0.63205723
H       -0.98350855       1.17662637       0.89157531
11
Frame=13 idx=002531 GeodesicLength=0.9735450481630468 rxn_smarts="[C:1](/[N:2]=[C:3](\[N:4]([H:10])[H:11])[C:5]#[N:6])([H:7])([H:8])[H:9]>>[C:1]([N:4]([H:10])[H:11])([H:7])([H:8])[H:9].[N:2]#[C:3][C:5]#[N:6]"
C        1.49413809       0.33539568       0.11467318
N        0.44779560      -1.51918196      -0.13534614
C       -0.64334117      -0.99776846      -0.05670985
N       -0.43370211       0.77751795       0.14660377
C       -2.02573765      -1.28016866      -0.20524641
N       -3.15938614      -1.37314146      -0.35366699
H        2.24706133      -0.29351988       0.58619677
H        1.74184803       0.45100293      -0.94270632
H        1.72985106       1.28880017       0.60326153
H       -0.40020976       1.41986166      -0.63162350
H       -0.99831728       1.19120204       0.87456395
11
Frame=14 idx=002531 GeodesicLength=1.048323505242377 rxn_smarts="[C:1](/[N:2]=[C:3](\[N:4]([H:10])[H:11])[C:5]#[N:6])([H:7])([H:8])[H:9]>>[C:1]([N:4]([H:10])[H:11])([H:7])([H:8])[H:9].[N:2]#[C:3][C:5]#[N:6]"
C        1.48409497       0.33056830       0.11736092
N        0.45330010      -1.52639775      -0.12314301
C       -0.64472754      -1.02176959      -0.05391609
N       -0.43585873       0.78653159       0.14277738
C       -2.02722498      -1.29257344      -0.19802477
N       -3.16100168      -1.36808860      -0.35429353
H        2.25960695      -0.29235866       0.56151379
H        1.72462453       0.47256659      -0.93963809
H        1.73258059       1.27420343       0.62062602
H       -0.37245157       1.43189058      -0.63016976
H       -1.01294264       1.20542755       0.85690712
11
Frame=15 idx=002531 GeodesicLength=1.1231063580366856 rxn_smarts="[C:1](/[N:2]=[C:3](\[N:4]([H:10])[H:11])[C:5]#[N:6])([H:7])([H:8])[H:9]>>[C:1]([N:4]([H:10])[H:11])([H:7])([H:8])[H:9].[N:2]#[C:3][C:5]#[N:6]"
C        1.47397672       0.32557800       0.11999970
N        0.45890766      -1.53363405      -0.11120984
C       -0.64591889      -1.04634883      -0.05231955
N       -0.43793354       0.79595136       0.13833403
C       -2.02867509      -1.30488368      -0.19070572
N       -3.16238884      -1.36317921      -0.35385087
H        2.27087675      -0.29061000       0.53715889
H        1.70811717       0.49356622      -0.93581816
H        1.73503113       1.25931604       0.63738461
H       -0.34462474       1.44491881      -0.62762431
H       -1.02736832       1.21932534       0.83865121
11
Frame=16 idx=002531 GeodesicLength=1.1978955150636372 rxn_smarts="[C:1](/[N:2]=[C:3](\[N:4]([H:10])[H:11])[C:5]#[N:6])([H:7])([H:8])[H:9]>>[C:1]([N:4]([H:10])[H:11])([H:7])([H:8])[H:9].[N:2]#[C:3][C:5]#[N:6]"
C        1.46375734       0.32043937       0.12254462
N        0.46461218      -1.54089998      -0.09952420
C       -0.64689919      -1.07156779      -0.05198919
N       -0.43992251       0.80578696       0.13326205
C       -2.03007226      -1.31710099      -0.18314583
N       -3.16352579      -1.35838923      -0.35241691
H        2.28086258      -0.28830775       0.51321259
H        1.69231562       0.51399266      -0.93133302
H        1.73717828       1.24416104       0.65352995
H       -0.31670787       1.45896820      -0.62393079
H       -1.04159837       1.23291752       0.81979074
