18
Frame=0 idx=006563 GeodesicLength=0.0 rxn_smarts="[C:1]([C:2]([C:3]([C:4]([C:5]([H:16])([H:17])[H:18])([H:14])[H:15])([C:6]#[N:7])[H:13])([H:11])[H:12])([H:8])([H:9])[H:10]>>[C:1]([C:2]([C:3]([C:4]([C:5]([H:16])([H:17])[H:18])([H:14])[H:15])([N+:7]#[C-:6])[H:13])([H:11])[H:12])([H:8])([H:9])[H:10]"
C       -2.55719394       0.20085161       0.16839594
C       -1.30239023      -0.54118028      -0.26431729
C        0.00268933       0.10627587       0.16258173
C        1.26410068      -0.63175733      -0.24849779
C        2.56247059       0.01829928       0.20308933
C        0.06467137       1.57703232      -0.95873125
N        0.06478652       1.95717935       0.16253875
H       -3.44553277      -0.37852505      -0.08608730
H       -2.63059037       1.17026520      -0.32370591
H       -2.56442845       0.37213249       1.24717321
H       -1.29055327      -1.53491313       0.19945056
H       -1.29863983      -0.69433950      -1.34496692
H        0.00095062       0.23830532       1.24393891
H        1.17590389      -1.62302030       0.21248502
H        1.26434837      -0.78245464      -1.32944736
H        2.56592894       0.18969187       1.28185917
H        3.41049791      -0.62357353      -0.03836135
H        2.71298069       0.97973047      -0.28739750
18
Frame=1 idx=006563 GeodesicLength=0.16178328104635722 rxn_smarts="[C:1]([C:2]([C:3]([C:4]([C:5]([H:16])([H:17])[H:18])([H:14])[H:15])([C:6]#[N:7])[H:13])([H:11])[H:12])([H:8])([H:9])[H:10]>>[C:1]([C:2]([C:3]([C:4]([C:5]([H:16])([H:17])[H:18])([H:14])[H:15])([N+:7]#[C-:6])[H:13])([H:11])[H:12])([H:8])([H:9])[H:10]"
C       -2.55139326       0.20070794       0.17181115
C       -1.29574575      -0.53721339      -0.26366686
C        0.00731173       0.12711827       0.14852904
C        1.26432774      -0.62774135      -0.25216897
C        2.57213816      -0.00166374       0.20714528
C        0.13091516       1.61404357      -0.94978581
N       -0.06790209       1.98757732       0.15290028
H       -3.43512350      -0.40249267      -0.04383036
H       -2.66643841       1.14662610      -0.35650781
H       -2.54583146       0.40502668       1.24506654
H       -1.27809006      -1.52831526       0.20487545
H       -1.29617913      -0.69431795      -1.34384243
H        0.01110271       0.23713899       1.23356075
H        1.16706907      -1.62092647       0.20317335
H        1.26807727      -0.78226914      -1.33277155
H        2.57532566       0.15444497       1.28839212
H        3.41387835      -0.64625121      -0.04778441
H        2.72655782       0.96850734      -0.26509576
18
Frame=2 idx=006563 GeodesicLength=0.33204130876115256 rxn_smarts="[C:1]([C:2]([C:3]([C:4]([C:5]([H:16])([H:17])[H:18])([H:14])[H:15])([C:6]#[N:7])[H:13])([H:11])[H:12])([H:8])([H:9])[H:10]>>[C:1]([C:2]([C:3]([C:4]([C:5]([H:16])([H:17])[H:18])([H:14])[H:15])([N+:7]#[C-:6])[H:13])([H:11])[H:12])([H:8])([H:9])[H:10]"
C       -2.54734465       0.19889207       0.17467263
C       -1.28937393      -0.53364102      -0.26379854
C        0.01210754       0.14938366       0.13594606
C        1.26447348      -0.62455994      -0.25816404
C        2.58361845      -0.02246556       0.20973094
C        0.20459800       1.66764791      -0.91779287
N       -0.20406778       2.01235962       0.13655438
H       -3.42385547      -0.43035419       0.00500365
H       -2.70969980       1.11453020      -0.39210857
H       -2.52793342       0.44237779       1.23941224
H       -1.26692375      -1.52336831       0.20942824
H       -1.29196978      -0.69268930      -1.34564672
H        0.01952080       0.23924286       1.22708289
H        1.15480239      -1.62336022       0.19244339
H        1.27206810      -0.78037800      -1.34267170
H        2.58116530       0.13307822       1.29515122
H        3.41632716      -0.67881617      -0.04793293
H        2.75248736       0.95212037      -0.25731028
18
Frame=3 idx=006563 GeodesicLength=0.48724578472473323 rxn_smarts="[C:1]([C:2]([C:3]([C:4]([C:5]([H:16])([H:17])[H:18])([H:14])[H:15])([C:6]#[N:7])[H:13])([H:11])[H:12])([H:8])([H:9])[H:10]>>[C:1]([C:2]([C:3]([C:4]([C:5]([H:16])([H:17])[H:18])([H:14])[H:15])([N+:7]#[C-:6])[H:13])([H:11])[H:12])([H:8])([H:9])[H:10]"
C       -2.54402910       0.19649393       0.18128833
C       -1.28099371      -0.52835076      -0.26395774
C        0.01635104       0.17147367       0.11989512
C        1.26411921      -0.61553673      -0.26274071
C        2.59220068      -0.04668654       0.21641479
C        0.26978012       1.71706862      -0.87585195
N       -0.33121751       2.02703868       0.08476795
H       -3.40842119      -0.46030159       0.05233421
H       -2.75462473       1.08603521      -0.41875765
H       -2.51449636       0.47250497       1.24170151
H       -1.24801658      -1.51682975       0.21231655
H       -1.28861596      -0.68712755      -1.34530906
H        0.03022208       0.24940349       1.20983340
H        1.14607478      -1.61433207       0.17625787
H        1.27410868      -0.76608472      -1.34438845
H        2.58634285       0.09977664       1.29936100
H        3.41608804      -0.71182394      -0.04407825
H        2.77512766       0.92727845      -0.23908692
18
Frame=4 idx=006563 GeodesicLength=0.6312622879104822 rxn_smarts="[C:1]([C:2]([C:3]([C:4]([C:5]([H:16])([H:17])[H:18])([H:14])[H:15])([C:6]#[N:7])[H:13])([H:11])[H:12])([H:8])([H:9])[H:10]>>[C:1]([C:2]([C:3]([C:4]([C:5]([H:16])([H:17])[H:18])([H:14])[H:15])([N+:7]#[C-:6])[H:13])([H:11])[H:12])([H:8])([H:9])[H:10]"
C       -2.54059636       0.19158509       0.18704686
C       -1.27565815      -0.52339532      -0.26246715
C        0.01911550       0.19574215       0.10496097
C        1.26283315      -0.60697389      -0.27127726
C        2.60123562      -0.06917470       0.22269687
C        0.33905319       1.77934569      -0.81313314
N       -0.44617312       2.03139393       0.01916565
H       -3.39295299      -0.48952056       0.10282085
H       -2.80223569       1.04508877      -0.44195051
H       -2.49613016       0.50340025       1.23642737
H       -1.23349486      -1.50768899       0.21764368
H       -1.28933077      -0.68583592      -1.34303457
H        0.03712309       0.26567367       1.19675566
H        1.13181764      -1.61188532       0.15354671
H        1.27826151      -0.74854483      -1.35546012
H        2.58482788       0.07510030       1.30887780
H        3.41330382      -0.74970510      -0.03565605
H        2.80900068       0.90539477      -0.22696363
18
Frame=5 idx=006563 GeodesicLength=0.7769434257318943 rxn_smarts="[C:1]([C:2]([C:3]([C:4]([C:5]([H:16])([H:17])[H:18])([H:14])[H:15])([C:6]#[N:7])[H:13])([H:11])[H:12])([H:8])([H:9])[H:10]>>[C:1]([C:2]([C:3]([C:4]([C:5]([H:16])([H:17])[H:18])([H:14])[H:15])([N+:7]#[C-:6])[H:13])([H:11])[H:12])([H:8])([H:9])[H:10]"
C       -2.54043186       0.18541849       0.19836665
C       -1.26847204      -0.52090771      -0.26217510
C        0.02142471       0.21771908       0.08743339
C        1.26187102      -0.59584034      -0.27981524
C        2.60621886      -0.09262249       0.23133590
C        0.40063712       1.84537914      -0.73473574
N       -0.53806062       2.03948750      -0.08733609
H       -3.37807971      -0.51997043       0.15011674
H       -2.84457619       1.01573745      -0.45212836
H       -2.49085530       0.52299457       1.24469728
H       -1.21531267      -1.50633048       0.22237183
H       -1.28675723      -0.68581342      -1.34388461
H        0.04254376       0.28388220       1.18014949
H        1.12183031      -1.60490084       0.12890440
H        1.28201679      -0.72319151      -1.36501450
H        2.58179125       0.04867200       1.31624577
H        3.40731004      -0.78707858      -0.02119289
H        2.83690177       0.87736537      -0.21333891
18
Frame=6 idx=006563 GeodesicLength=0.9210400585167146 rxn_smarts="[C:1]([C:2]([C:3]([C:4]([C:5]([H:16])([H:17])[H:18])([H:14])[H:15])([C:6]#[N:7])[H:13])([H:11])[H:12])([H:8])([H:9])[H:10]>>[C:1]([C:2]([C:3]([C:4]([C:5]([H:16])([H:17])[H:18])([H:14])[H:15])([N+:7]#[C-:6])[H:13])([H:11])[H:12])([H:8])([H:9])[H:10]"
C       -2.55052656       0.17739723       0.21094313
C       -1.26642134      -0.52297038      -0.25912310
C        0.02213968       0.23878400       0.07101752
C        1.26471190      -0.58621730      -0.28940722
C        2.61602834      -0.11318627       0.23750630
C        0.45951208       1.91590967      -0.63875822
N       -0.60021428       2.05657978      -0.21667524
H       -3.38006371      -0.54777734       0.18806153
H       -2.87948642       0.99392334      -0.45073408
H       -2.50424804       0.53273696       1.25504133
H       -1.20567860      -1.51176151       0.23053497
H       -1.28626258      -0.69561381      -1.33984405
H        0.03988750       0.30487323       1.16627548
H        1.11643203      -1.60398485       0.10216990
H        1.29197535      -0.69824178      -1.37602299
H        2.58417490       0.02589912       1.32151961
H        3.41004799      -0.82260026      -0.01022289
H        2.86799178       0.85625016      -0.20228197
18
Frame=7 idx=006563 GeodesicLength=1.0620739674190054 rxn_smarts="[C:1]([C:2]([C:3]([C:4]([C:5]([H:16])([H:17])[H:18])([H:14])[H:15])([C:6]#[N:7])[H:13])([H:11])[H:12])([H:8])([H:9])[H:10]>>[C:1]([C:2]([C:3]([C:4]([C:5]([H:16])([H:17])[H:18])([H:14])[H:15])([N+:7]#[C-:6])[H:13])([H:11])[H:12])([H:8])([H:9])[H:10]"
C       -2.53470055       0.17042913       0.22021057
C       -1.26531260      -0.51968931      -0.25576565
C        0.01926691       0.25851393       0.05843967
C        1.25607840      -0.57255972      -0.29713879
C        2.60704969      -0.12497559       0.24319318
C        0.50309545       1.98525147      -0.52450548
N       -0.63059385       2.01003763      -0.36199857
H       -3.36301666      -0.56933172       0.20477206
H       -2.88946982       0.97541580      -0.44665993
H       -2.46773495       0.53240972       1.26886034
H       -1.19517281      -1.50086064       0.24010328
H       -1.29843312      -0.70612667      -1.33581069
H        0.04215126       0.31830677       1.15942395
H        1.10039073      -1.59165698       0.07927784
H        1.28676728      -0.67170471      -1.38564760
H        2.56305085       0.01308501       1.32624646
H        3.38914899      -0.84403784       0.00042446
H        2.87743480       0.83749373      -0.19342510
18
Frame=8 idx=006563 GeodesicLength=1.2021961100920573 rxn_smarts="[C:1]([C:2]([C:3]([C:4]([C:5]([H:16])([H:17])[H:18])([H:14])[H:15])([C:6]#[N:7])[H:13])([H:11])[H:12])([H:8])([H:9])[H:10]>>[C:1]([C:2]([C:3]([C:4]([C:5]([H:16])([H:17])[H:18])([H:14])[H:15])([N+:7]#[C-:6])[H:13])([H:11])[H:12])([H:8])([H:9])[H:10]"
C       -2.53892402       0.16413612       0.22897203
C       -1.27115064      -0.52067371      -0.24759101
C        0.02031533       0.27158609       0.05601813
C        1.25533064      -0.56388950      -0.30150702
C        2.60992267      -0.12869250       0.24285121
C        0.52917001       2.03887654      -0.40424961
N       -0.62253263       1.97584997      -0.52706150
H       -3.38318079      -0.57876931       0.19992055
H       -2.89041703       0.98445575      -0.43436600
H       -2.46502831       0.51254769       1.28720211
H       -1.19831823      -1.50053756       0.25625521
H       -1.31238042      -0.72185436      -1.32777764
H        0.04645116       0.31913831       1.16416699
H        1.09640064      -1.58693809       0.06489790
H        1.28563819      -0.65229412      -1.39181200
H        2.56436754       0.00458131       1.32668979
H        3.38756087      -0.85151391      -0.00228519
H        2.88677501       0.83399126      -0.19032397
18
Frame=9 idx=006563 GeodesicLength=1.3039712121422589 rxn_smarts="[C:1]([C:2]([C:3]([C:4]([C:5]([H:16])([H:17])[H:18])([H:14])[H:15])([C:6]#[N:7])[H:13])([H:11])[H:12])([H:8])([H:9])[H:10]>>[C:1]([C:2]([C:3]([C:4]([C:5]([H:16])([H:17])[H:18])([H:14])[H:15])([N+:7]#[C-:6])[H:13])([H:11])[H:12])([H:8])([H:9])[H:10]"
C       -2.54538600       0.16313732       0.23539706
C       -1.27511125      -0.52229076      -0.23720880
C        0.01965961       0.27186308       0.06176861
C        1.25517130      -0.56250279      -0.30328792
C        2.61076510      -0.12367935       0.23644011
C        0.51406562       2.06228037      -0.29195794
N       -0.57447333       1.93851656      -0.67423515
H       -3.40290632      -0.56245659       0.18061749
H       -2.86984831       1.00323804      -0.41036256
H       -2.48035602       0.48772618       1.29841696
H       -1.20348488      -1.49772655       0.26985702
H       -1.31710191      -0.73592396      -1.31522272
H        0.04395115       0.30587681       1.17125239
H        1.09960697      -1.58621592       0.05956096
H        1.28297189      -0.64701180      -1.39394907
H        2.57060508       0.00428134       1.32244673
H        3.39204772      -0.84152225      -0.01576832
H        2.87982358       0.84241027      -0.19376485
18
Frame=10 idx=006563 GeodesicLength=1.4185729886449838 rxn_smarts="[C:1]([C:2]([C:3]([C:4]([C:5]([H:16])([H:17])[H:18])([H:14])[H:15])([C:6]#[N:7])[H:13])([H:11])[H:12])([H:8])([H:9])[H:10]>>[C:1]([C:2]([C:3]([C:4]([C:5]([H:16])([H:17])[H:18])([H:14])[H:15])([N+:7]#[C-:6])[H:13])([H:11])[H:12])([H:8])([H:9])[H:10]"
C       -2.54937720       0.16655701       0.23953704
C       -1.27819869      -0.52461011      -0.22856425
C        0.01732622       0.26406499       0.07092363
C        1.25413299      -0.56821094      -0.30192441
C        2.60872646      -0.11274220       0.22752194
C        0.47000691       2.07361339      -0.19778369
N       -0.50399003       1.89773372      -0.79179128
H       -3.41556564      -0.53242095       0.15168366
H       -2.83873557       1.03052439      -0.37902054
H       -2.49646282       0.46135290       1.30523355
H       -1.20827098      -1.49736600       0.27669922
H       -1.31971984      -0.74520283      -1.30373235
H        0.04039767       0.28514457       1.17826118
H        1.10618554      -1.59117960       0.06479091
H        1.27663932      -0.65656975      -1.39242344
H        2.57826926       0.01177815       1.31558965
H        3.39789851      -0.82099803      -0.03230454
H        2.86073791       0.85853129      -0.20269627
18
Frame=11 idx=006563 GeodesicLength=1.5338023845860282 rxn_smarts="[C:1]([C:2]([C:3]([C:4]([C:5]([H:16])([H:17])[H:18])([H:14])[H:15])([C:6]#[N:7])[H:13])([H:11])[H:12])([H:8])([H:9])[H:10]>>[C:1]([C:2]([C:3]([C:4]([C:5]([H:16])([H:17])[H:18])([H:14])[H:15])([N+:7]#[C-:6])[H:13])([H:11])[H:12])([H:8])([H:9])[H:10]"
C       -2.55055069       0.17156200       0.24209017
C       -1.28113639      -0.52769373      -0.22222828
C        0.01466978       0.25263782       0.08145986
C        1.25182962      -0.57799327      -0.29783423
C        2.60377008      -0.09849979       0.21721112
C        0.41219695       2.08163183      -0.12250385
N       -0.42037382       1.85694355      -0.88129524
H       -3.42268690      -0.49967549       0.11863332
H       -2.80172936       1.06141804      -0.34647380
H       -2.50925692       0.43505939       1.31073033
H       -1.21423425      -1.50093844       0.27806667
H       -1.32229890      -0.74959823      -1.29545361
H        0.03752391       0.26267204       1.18639028
H        1.11231136      -1.59889163       0.07832686
H        1.26777917      -0.67561879      -1.38788245
H        2.58525215       0.02366790       1.30654925
H        3.40171529      -0.79456235      -0.05040808
H        2.83521892       0.87787918      -0.21537832
18
Frame=12 idx=006563 GeodesicLength=1.645099236197253 rxn_smarts="[C:1]([C:2]([C:3]([C:4]([C:5]([H:16])([H:17])[H:18])([H:14])[H:15])([C:6]#[N:7])[H:13])([H:11])[H:12])([H:8])([H:9])[H:10]>>[C:1]([C:2]([C:3]([C:4]([C:5]([H:16])([H:17])[H:18])([H:14])[H:15])([N+:7]#[C-:6])[H:13])([H:11])[H:12])([H:8])([H:9])[H:10]"
C       -2.55048926       0.17613614       0.24377793
C       -1.28441713      -0.53079342      -0.21785316
C        0.01251079       0.24042088       0.09234021
C        1.24892569      -0.58937537      -0.29172768
C        2.59713577      -0.08313114       0.20599934
C        0.34929308       2.08865380      -0.06456747
N       -0.32905110       1.81829120      -0.94700296
H       -3.42754124      -0.46946943       0.08504765
H       -2.76255889       1.09138667      -0.31502775
H       -2.51970534       0.40906078       1.31602771
H       -1.22216453      -1.50684383       0.27534687
H       -1.32522856      -0.74927607      -1.29041748
H        0.03527676       0.24248889       1.19572576
H        1.11692471      -1.60631152       0.09712744
H        1.25832986      -0.69962119      -1.38057353
H        2.59128517       0.03748974       1.29526230
H        3.40339690      -0.76584717      -0.06946174
H        2.80807732       0.89674102      -0.23002344
18
Frame=13 idx=006563 GeodesicLength=1.754945568233092 rxn_smarts="[C:1]([C:2]([C:3]([C:4]([C:5]([H:16])([H:17])[H:18])([H:14])[H:15])([C:6]#[N:7])[H:13])([H:11])[H:12])([H:8])([H:9])[H:10]>>[C:1]([C:2]([C:3]([C:4]([C:5]([H:16])([H:17])[H:18])([H:14])[H:15])([N+:7]#[C-:6])[H:13])([H:11])[H:12])([H:8])([H:9])[H:10]"
C       -2.55065821       0.17961939       0.24538554
C       -1.28801901      -0.53309477      -0.21514835
C        0.01110563       0.22875435       0.10250814
C        1.24629433      -0.60123767      -0.28459382
C        2.59001544      -0.06816326       0.19474661
C        0.28434622       2.09442271      -0.02280516
N       -0.23419642       1.78296575      -0.99363784
H       -3.43222629      -0.44276307       0.05368781
H       -2.72483640       1.11800148      -0.28455456
H       -2.52899383       0.38340302       1.32140515
H       -1.23109431      -1.51322265       0.26925257
H       -1.32848089      -0.74434220      -1.28817999
H        0.03358825       0.22660780       1.20506255
H        1.12075487      -1.61267854       0.11842644
H        1.24975776      -0.72579289      -1.37153091
H        2.59674142       0.05143204       1.28300707
H        3.40395854      -0.73755562      -0.08828831
H        2.78194289       0.91364412      -0.24474294
18
Frame=14 idx=006563 GeodesicLength=1.8647248657727582 rxn_smarts="[C:1]([C:2]([C:3]([C:4]([C:5]([H:16])([H:17])[H:18])([H:14])[H:15])([C:6]#[N:7])[H:13])([H:11])[H:12])([H:8])([H:9])[H:10]>>[C:1]([C:2]([C:3]([C:4]([C:5]([H:16])([H:17])[H:18])([H:14])[H:15])([N+:7]#[C-:6])[H:13])([H:11])[H:12])([H:8])([H:9])[H:10]"
C       -2.55160748       0.18192007       0.24761185
C       -1.29165297      -0.53419363      -0.21394903
C        0.01040892       0.21826075       0.11110611
C        1.24427982      -0.61317639      -0.27731414
C        2.58295853      -0.05445324       0.18434965
C        0.21817615       2.09885630       0.00348967
N       -0.13854767       1.75150278      -1.02537948
H       -3.43725515      -0.41940720       0.02637340
H       -2.69090349       1.14060053      -0.25436241
H       -2.53733994       0.35807381       1.32717225
H       -1.23968032      -1.51917850       0.26015543
H       -1.33194950      -0.73510583      -1.28834014
H        0.03248966       0.21584312       1.21324291
H        1.12424581      -1.61848349       0.14022607
H        1.24262017      -0.75245621      -1.36209694
H        2.60175769       0.06431012       1.27150396
H        3.40389739      -0.71145171      -0.10563859
H        2.75810239       0.92853870      -0.25815057
18
Frame=15 idx=006563 GeodesicLength=1.974764668358785 rxn_smarts="[C:1]([C:2]([C:3]([C:4]([C:5]([H:16])([H:17])[H:18])([H:14])[H:15])([C:6]#[N:7])[H:13])([H:11])[H:12])([H:8])([H:9])[H:10]>>[C:1]([C:2]([C:3]([C:4]([C:5]([H:16])([H:17])[H:18])([H:14])[H:15])([N+:7]#[C-:6])[H:13])([H:11])[H:12])([H:8])([H:9])[H:10]"
C       -2.55345744       0.18291127       0.25091242
C       -1.29518081      -0.53399331      -0.21405852
C        0.01032299       0.20940028       0.11772707
C        1.24285706      -0.62477525      -0.27040360
C        2.57623945      -0.04245754       0.17536512
C        0.15151323       2.10229086       0.01496212
N       -0.04351840       1.72385349      -1.04547808
H       -3.44274038      -0.39957959       0.00380880
H       -2.66178623       1.15923279      -0.22399095
H       -2.54465868       0.33279907       1.33373519
H       -1.24726267      -1.52438237       0.24847172
H       -1.33568865      -0.72208234      -1.29048513
H        0.03200278       0.21064934       1.21972504
H        1.12722797      -1.62388927       0.16121157
H        1.23697542      -0.77824109      -1.35307087
H        2.60633416       0.07529258       1.26170926
H        3.40336207      -0.68850249      -0.12077351
H        2.73745810       0.94147357      -0.26936766
18
Frame=16 idx=006563 GeodesicLength=2.0850676818488347 rxn_smarts="[C:1]([C:2]([C:3]([C:4]([C:5]([H:16])([H:17])[H:18])([H:14])[H:15])([C:6]#[N:7])[H:13])([H:11])[H:12])([H:8])([H:9])[H:10]>>[C:1]([C:2]([C:3]([C:4]([C:5]([H:16])([H:17])[H:18])([H:14])[H:15])([N+:7]#[C-:6])[H:13])([H:11])[H:12])([H:8])([H:9])[H:10]"
C       -2.55619214       0.18255147       0.25552482
C       -1.29855593      -0.53256297      -0.21523739
C        0.01071978       0.20239653       0.12225649
C        1.24194359      -0.63569695      -0.26418586
C        2.57005388      -0.03239796       0.16809647
C        0.08495096       2.10486267       0.01217865
N        0.04991247       1.69984220      -1.05611041
H       -3.44871367      -0.38328373      -0.01391450
H       -2.63780052       1.17419003      -0.19315522
H       -2.55090372       0.30736221       1.34134290
H       -1.25354484      -1.52870009       0.23467329
H       -1.33977424      -0.70591501      -1.29416741
H        0.03211359       0.21116303       1.22427780
H        1.12952647      -1.62892175       0.18045920
H        1.23274555      -0.80208764      -1.34494901
H        2.61045680       0.08388794       1.25410891
H        3.40251826      -0.66918715      -0.13329438
H        2.72054371       0.95249718      -0.27790435
