18
Frame=0 idx=008234 GeodesicLength=0.0 rxn_smarts="[C:1]([C:2]([C:3]([N:4]([C:5](=[O:6])[C:7]([H:16])([H:17])[H:18])[H:15])([H:13])[H:14])([H:11])[H:12])([H:8])([H:9])[H:10]>>[C:1]([C:2]([C:3]([N:4]([C-:5]=[O+:6][C:7]([H:16])([H:17])[H:18])[H:15])([H:13])[H:14])([H:11])[H:12])([H:8])([H:9])[H:10]"
C       -2.01545737      -0.32334941      -0.85033418
C       -1.28381705       0.77882576      -0.09665057
C       -0.66049655       0.30845296       1.21468804
N        0.34121226      -0.73602277       1.03631665
C        1.64987406      -0.52443776       0.81304449
O        2.00933524       0.72048018       0.73693636
C        2.55160110      -0.11798265      -0.74361212
H       -2.45216258       0.05348015      -1.77648626
H       -1.33735243      -1.13795524      -1.11436608
H       -2.82620623      -0.74393964      -0.24911253
H       -0.49448916       1.20304564      -0.72306766
H       -1.97493915       1.59667424       0.12839137
H       -0.18180178       1.15045484       1.71538737
H       -1.43256313      -0.07907052       1.88423446
H        0.05604373      -1.69429678       1.12447863
H        2.54249564       0.85411609      -1.23937233
H        1.96496518      -0.82372122      -1.33184994
H        3.54375819      -0.48475382      -0.52862573
18
Frame=1 idx=008234 GeodesicLength=0.05033005765894816 rxn_smarts="[C:1]([C:2]([C:3]([N:4]([C:5](=[O:6])[C:7]([H:16])([H:17])[H:18])[H:15])([H:13])[H:14])([H:11])[H:12])([H:8])([H:9])[H:10]>>[C:1]([C:2]([C:3]([N:4]([C-:5]=[O+:6][C:7]([H:16])([H:17])[H:18])[H:15])([H:13])[H:14])([H:11])[H:12])([H:8])([H:9])[H:10]"
C       -2.03161217      -0.31293471      -0.84729495
C       -1.29992248       0.78493704      -0.08738889
C       -0.66628130       0.30450693       1.21521650
N        0.34178965      -0.73030557       1.01902586
C        1.65014803      -0.50527038       0.81035922
O        1.99348098       0.74013831       0.70683613
C        2.57995969      -0.13390527      -0.73660665
H       -2.47768079       0.07161412      -1.76577966
H       -1.35121072      -1.12088473      -1.12543079
H       -2.83570205      -0.74421520      -0.24466331
H       -0.51760341       1.22010970      -0.71491075
H       -1.99376939       1.59678465       0.15082251
H       -0.19204850       1.14483311       1.72297971
H       -1.43174545      -0.09674495       1.88430059
H        0.06483397      -1.69210548       1.09323040
H        2.54862381       0.81298582      -1.27807182
H        2.03639488      -0.88532845      -1.30952195
H        3.58234525      -0.45421494      -0.49310214
18
Frame=2 idx=008234 GeodesicLength=0.09877041967384309 rxn_smarts="[C:1]([C:2]([C:3]([N:4]([C:5](=[O:6])[C:7]([H:16])([H:17])[H:18])[H:15])([H:13])[H:14])([H:11])[H:12])([H:8])([H:9])[H:10]>>[C:1]([C:2]([C:3]([N:4]([C-:5]=[O+:6][C:7]([H:16])([H:17])[H:18])[H:15])([H:13])[H:14])([H:11])[H:12])([H:8])([H:9])[H:10]"
C       -2.04833807      -0.30256270      -0.84402626
C       -1.31598918       0.79084770      -0.07833152
C       -0.67164175       0.30045055       1.21517133
N        0.34227311      -0.72474554       1.00093078
C        1.65007878      -0.48664304       0.80657755
O        1.97779700       0.75836916       0.67566560
C        2.60833560      -0.14916718      -0.72883511
H       -2.50400023       0.08959171      -1.75455160
H       -1.36608641      -1.10388396      -1.13638505
H       -2.84557227      -0.74426896      -0.23980442
H       -0.54083530       1.23667159      -0.70709215
H       -2.01213803       1.59674401       0.17319477
H       -0.20135150       1.13891758       1.72969247
H       -1.43025484      -0.11421751       1.88391251
H        0.07337455      -1.68973481       1.06123413
H        2.55649089       0.76944599      -1.31552447
H        2.10897769      -0.94425104      -1.28286717
H        3.61887996      -0.42156355      -0.45896141
18
Frame=3 idx=008234 GeodesicLength=0.14473847569379508 rxn_smarts="[C:1]([C:2]([C:3]([N:4]([C:5](=[O:6])[C:7]([H:16])([H:17])[H:18])[H:15])([H:13])[H:14])([H:11])[H:12])([H:8])([H:9])[H:10]>>[C:1]([C:2]([C:3]([N:4]([C-:5]=[O+:6][C:7]([H:16])([H:17])[H:18])[H:15])([H:13])[H:14])([H:11])[H:12])([H:8])([H:9])[H:10]"
C       -2.06518737      -0.29233247      -0.84064975
C       -1.33164954       0.79650243      -0.06956856
C       -0.67653158       0.29632581       1.21465894
N        0.34262895      -0.71946008       0.98251381
C        1.64966125      -0.46886201       0.80186100
O        1.96252345       0.77486485       0.64400973
C        2.63606196      -0.16358566      -0.72050831
H       -2.53043301       0.10724388      -1.74307291
H       -1.38152920      -1.08713637      -1.14711606
H       -2.85554376      -0.74407929      -0.23477119
H       -0.56361810       1.25253385      -0.69958973
H       -2.02966087       1.59658588       0.19517732
H       -0.20964466       1.13277110       1.73561003
H       -1.42824744      -0.13126554       1.88309308
H        0.08148102      -1.68726884       1.02904390
H        2.56536707       0.72398848      -1.35133609
H        2.18150182      -0.99979978      -1.25224430
H        3.65282001      -0.38702626      -0.42711090
18
Frame=4 idx=008234 GeodesicLength=0.18752729984441457 rxn_smarts="[C:1]([C:2]([C:3]([N:4]([C:5](=[O:6])[C:7]([H:16])([H:17])[H:18])[H:15])([H:13])[H:14])([H:11])[H:12])([H:8])([H:9])[H:10]>>[C:1]([C:2]([C:3]([N:4]([C-:5]=[O+:6][C:7]([H:16])([H:17])[H:18])[H:15])([H:13])[H:14])([H:11])[H:12])([H:8])([H:9])[H:10]"
C       -2.08153653      -0.28238540      -0.83729824
C       -1.34642986       0.80181331      -0.06122503
C       -0.68092825       0.29219972       1.21381050
N        0.34281699      -0.71458656       0.96441661
C        1.64887228      -0.45230333       0.79644538
O        1.94790288       0.78928983       0.61276770
C        2.66229135      -0.17691877      -0.71192038
H       -2.55601566       0.12431494      -1.73168028
H       -1.39690122      -1.07092259      -1.15740951
H       -2.86522833      -0.74357554      -0.22984773
H       -0.58521985       1.26738024      -0.69238246
H       -2.04585694       1.59635684       0.21630147
H       -0.21694765       1.12648719       1.74083107
H       -1.42595881      -0.14757222       1.88185436
H        0.08896185      -1.68479675       0.99743280
H        2.57425689       0.67739004      -1.38500534
H        2.25241883      -1.05107327      -1.21842158
H        3.68350203      -0.35109768      -0.39866934
18
Frame=5 idx=008234 GeodesicLength=0.22679492070686547 rxn_smarts="[C:1]([C:2]([C:3]([N:4]([C:5](=[O:6])[C:7]([H:16])([H:17])[H:18])[H:15])([H:13])[H:14])([H:11])[H:12])([H:8])([H:9])[H:10]>>[C:1]([C:2]([C:3]([N:4]([C-:5]=[O+:6][C:7]([H:16])([H:17])[H:18])[H:15])([H:13])[H:14])([H:11])[H:12])([H:8])([H:9])[H:10]"
C       -2.09703841      -0.27286965      -0.83410178
C       -1.36004037       0.80673533      -0.05341607
C       -0.68481835       0.28812545       1.21277616
N        0.34284223      -0.71023410       0.94715135
C        1.64775964      -0.43718996       0.79058677
O        1.93419494       0.80162990       0.58272452
C        2.68649601      -0.18899043      -0.70333233
H       -2.58018748       0.14058846      -1.72071297
H       -1.41184141      -1.05552798      -1.16713244
H       -2.87446001      -0.74278545      -0.22523357
H       -0.60515247       1.28103788      -0.68552189
H       -2.06043960       1.59613887       0.23619284
H       -0.22327254       1.12018975       1.74550850
H       -1.42356412      -0.16296333       1.88029573
H        0.09571024      -1.68245454       0.96706595
H        2.58275757       0.63055375      -1.41622146
H        2.32043969      -1.09745658      -1.18243835
H        3.71061447      -0.31452735      -0.37419095
18
Frame=6 idx=008234 GeodesicLength=0.2620705417067158 rxn_smarts="[C:1]([C:2]([C:3]([N:4]([C:5](=[O:6])[C:7]([H:16])([H:17])[H:18])[H:15])([H:13])[H:14])([H:11])[H:12])([H:8])([H:9])[H:10]>>[C:1]([C:2]([C:3]([N:4]([C-:5]=[O+:6][C:7]([H:16])([H:17])[H:18])[H:15])([H:13])[H:14])([H:11])[H:12])([H:8])([H:9])[H:10]"
C       -2.11104488      -0.26391788      -0.83122635
C       -1.37208233       0.81120848      -0.04624862
C       -0.68822948       0.28418717       1.21174291
N        0.34271099      -0.70649970       0.93145028
C        1.64637313      -0.42377868       0.78465919
O        1.92160574       0.81176009       0.55486866
C        2.70787246      -0.19966399      -0.69510275
H       -2.60200383       0.15583450      -1.71056081
H       -1.42558030      -1.04116793      -1.17611618
H       -2.88280425      -0.74172197      -0.22126443
H       -0.62277276       1.29329322      -0.67895373
H       -2.07310267       1.59596384       0.25438548
H       -0.22874564       1.11399456       1.74981362
H       -1.42135052      -0.17715699       1.87847505
H        0.10162710      -1.68032011       0.93875271
H        2.58976347       0.58442298      -1.44463420
H        2.38401274      -1.13840687      -1.14544658
H        3.73375103      -0.27803071      -0.35459424
18
Frame=7 idx=008234 GeodesicLength=0.2949198633269728 rxn_smarts="[C:1]([C:2]([C:3]([N:4]([C:5](=[O:6])[C:7]([H:16])([H:17])[H:18])[H:15])([H:13])[H:14])([H:11])[H:12])([H:8])([H:9])[H:10]>>[C:1]([C:2]([C:3]([N:4]([C-:5]=[O+:6][C:7]([H:16])([H:17])[H:18])[H:15])([H:13])[H:14])([H:11])[H:12])([H:8])([H:9])[H:10]"
C       -2.12419513      -0.25525953      -0.82853087
C       -1.38312863       0.81538912      -0.03945979
C       -0.69131518       0.28026298       1.21065051
N        0.34243628      -0.70320050       0.91654140
C        1.64475059      -0.41149245       0.77856167
O        1.90965694       0.82037131       0.52819710
C        2.72754435      -0.20940951      -0.68703096
H       -2.62241090       0.17052392      -1.70084183
H       -1.43874062      -1.02740609      -1.18467015
H       -2.89067445      -0.74038844      -0.21766500
H       -0.63894726       1.30464731      -0.67256405
H       -2.08446916       1.59580393       0.27162214
H       -0.23361749       1.10774569       1.75385775
H       -1.41920200      -0.19067462       1.87643001
H        0.10696818      -1.67830517       0.91154346
H        2.59604786       0.53790970      -1.47105521
H        2.44525957      -1.17533685      -1.10695956
H        3.75403702      -0.24118081      -0.33862662
18
Frame=8 idx=008234 GeodesicLength=0.3247994595875321 rxn_smarts="[C:1]([C:2]([C:3]([N:4]([C:5](=[O:6])[C:7]([H:16])([H:17])[H:18])[H:15])([H:13])[H:14])([H:11])[H:12])([H:8])([H:9])[H:10]>>[C:1]([C:2]([C:3]([N:4]([C-:5]=[O+:6][C:7]([H:16])([H:17])[H:18])[H:15])([H:13])[H:14])([H:11])[H:12])([H:8])([H:9])[H:10]"
C       -2.13604158      -0.24709740      -0.82614850
C       -1.39282531       0.81919614      -0.03323167
C       -0.69406506       0.27644216       1.20964895
N        0.34203521      -0.70046486       0.90309579
C        1.64295465      -0.40064145       0.77259435
O        1.89867397       0.82736287       0.50376684
C        2.74484498      -0.21798330      -0.67942795
H       -2.64068773       0.18433037      -1.69196493
H       -1.45083419      -1.01463283      -1.19254082
H       -2.89785816      -0.73877651      -0.21465414
H       -0.65307359       1.31479960      -0.66645637
H       -2.09421047       1.59574743       0.28734223
H       -0.23791924       1.10160219       1.75774030
H       -1.41734151      -0.20321744       1.87424779
H        0.11162647      -1.67654891       0.88633898
H        2.60103935       0.49233191      -1.49504358
H        2.50256314      -1.20751565      -1.06841841
H        3.77111907      -0.20493430      -0.32688885
18
Frame=9 idx=008234 GeodesicLength=0.35092716752007297 rxn_smarts="[C:1]([C:2]([C:3]([N:4]([C:5](=[O:6])[C:7]([H:16])([H:17])[H:18])[H:15])([H:13])[H:14])([H:11])[H:12])([H:8])([H:9])[H:10]>>[C:1]([C:2]([C:3]([N:4]([C-:5]=[O+:6][C:7]([H:16])([H:17])[H:18])[H:15])([H:13])[H:14])([H:11])[H:12])([H:8])([H:9])[H:10]"
C       -2.14569109      -0.23972350      -0.82432665
C       -1.40055966       0.82250380      -0.02778210
C       -0.69651063       0.27288446       1.20903295
N        0.34149020      -0.69843009       0.89220463
C        1.64100192      -0.39164082       0.76730411
O        1.88903398       0.83258715       0.48320981
C        2.75862324      -0.22507761      -0.67281869
H       -2.65546186       0.19675674      -1.68458850
H       -1.46086227      -1.00336441      -1.19942931
H       -2.90382126      -0.73689038      -0.21265278
H       -0.66415251       1.32331092      -0.66068615
H       -2.10178713       1.59587770       0.30077367
H       -0.24180757       1.09580712       1.76172648
H       -1.41618436      -0.21429471       1.87209481
H        0.11540819      -1.67517803       0.86445687
H        2.60335638       0.44951713      -1.51618363
H        2.55356719      -1.23420409      -1.03192944
H        3.78435724      -0.17044138      -0.32040608
18
Frame=10 idx=008234 GeodesicLength=0.3745046024617555 rxn_smarts="[C:1]([C:2]([C:3]([N:4]([C:5](=[O:6])[C:7]([H:16])([H:17])[H:18])[H:15])([H:13])[H:14])([H:11])[H:12])([H:8])([H:9])[H:10]>>[C:1]([C:2]([C:3]([N:4]([C-:5]=[O+:6][C:7]([H:16])([H:17])[H:18])[H:15])([H:13])[H:14])([H:11])[H:12])([H:8])([H:9])[H:10]"
C       -2.15368129      -0.23291063      -0.82295015
C       -1.40682493       0.82544599      -0.02290625
C       -0.69874310       0.26949919       1.20871732
N        0.34085271      -0.69693300       0.88323734
C        1.63896509      -0.38400948       0.76259475
O        1.88039616       0.83656271       0.46564931
C        2.76977305      -0.23108455      -0.66697828
H       -2.66757951       0.20820054      -1.67837248
H       -1.46931285      -0.99319153      -1.20560043
H       -2.90888088      -0.73477972      -0.21145775
H       -0.67293940       1.33062443      -0.65514377
H       -2.10776300       1.59614688       0.31250297
H       -0.24542349       1.09023333       1.76583264
H       -1.41558454      -0.22432032       1.86995275
H        0.11855746      -1.67410093       0.84507618
H        2.60351552       0.40854400      -1.53512093
H        2.60000370      -1.25665534      -0.99694197
H        3.79466931      -0.13727157      -0.31809125
18
Frame=11 idx=008234 GeodesicLength=0.3965918856171526 rxn_smarts="[C:1]([C:2]([C:3]([N:4]([C:5](=[O:6])[C:7]([H:16])([H:17])[H:18])[H:15])([H:13])[H:14])([H:11])[H:12])([H:8])([H:9])[H:10]>>[C:1]([C:2]([C:3]([N:4]([C-:5]=[O+:6][C:7]([H:16])([H:17])[H:18])[H:15])([H:13])[H:14])([H:11])[H:12])([H:8])([H:9])[H:10]"
C       -2.16067758      -0.22643909      -0.82184204
C       -1.41220364       0.82816032      -0.01838278
C       -0.70083778       0.26620483       1.20857101
N        0.34015269      -0.69579051       0.87541211
C        1.63686794      -0.37724736       0.75820477
O        1.87236780       0.83974975       0.44991903
C        2.77932397      -0.23640626      -0.66162046
H       -2.67811072       0.21905092      -1.67284807
H       -1.47682221      -0.98367562      -1.21135258
H       -2.91339093      -0.73254552      -0.21074296
H       -0.68034328       1.33720187      -0.64975212
H       -2.11276872       1.59649402       0.32320658
H       -0.24885332       1.08476827       1.76999622
H       -1.41530830      -0.23370986       1.86780991
H        0.12130990      -1.67319965       0.82720134
H        2.60270299       0.36837236      -1.55240318
H        2.64367799      -1.27594048      -0.96266596
H        3.80291319      -0.10504800      -0.31871082
18
Frame=12 idx=008234 GeodesicLength=0.4177414539321675 rxn_smarts="[C:1]([C:2]([C:3]([N:4]([C:5](=[O:6])[C:7]([H:16])([H:17])[H:18])[H:15])([H:13])[H:14])([H:11])[H:12])([H:8])([H:9])[H:10]>>[C:1]([C:2]([C:3]([N:4]([C-:5]=[O+:6][C:7]([H:16])([H:17])[H:18])[H:15])([H:13])[H:14])([H:11])[H:12])([H:8])([H:9])[H:10]"
C       -2.16706120      -0.22017622      -0.82089939
C       -1.41701158       0.83071690      -0.01408801
C       -0.70283191       0.26294455       1.20850609
N        0.33940865      -0.69489795       0.86827390
C        1.63472760      -0.37107041       0.75398565
O        1.86474126       0.84238882       0.43535164
C        2.78785524      -0.24126208      -0.65656180
H       -2.68766758       0.22954013      -1.66773160
H       -1.48376706      -0.97455696      -1.21685257
H       -2.91756373      -0.73022590      -0.21032655
H       -0.68685780       1.34328796      -0.64446249
H       -2.11713370       1.59687752       0.33326401
H       -0.25213566       1.07932877       1.77416946
H       -1.41522420      -0.24270830       1.86563440
H        0.12379476      -1.67239777       0.81024481
H        2.60153406       0.32836108      -1.56830477
H        2.68562260      -1.29263389      -0.92858487
H        3.80957026      -0.07351626      -0.32161788
18
Frame=13 idx=008234 GeodesicLength=0.43835317206542057 rxn_smarts="[C:1]([C:2]([C:3]([N:4]([C:5](=[O:6])[C:7]([H:16])([H:17])[H:18])[H:15])([H:13])[H:14])([H:11])[H:12])([H:8])([H:9])[H:10]>>[C:1]([C:2]([C:3]([N:4]([C-:5]=[O+:6][C:7]([H:16])([H:17])[H:18])[H:15])([H:13])[H:14])([H:11])[H:12])([H:8])([H:9])[H:10]"
C       -2.17315158      -0.21400167      -0.82003997
C       -1.42149644       0.83317588      -0.00992283
C       -0.70474486       0.25966034       1.20844264
N        0.33863645      -0.69418569       0.86143781
C        1.63255614      -0.36526927       0.74979954
O        1.85735090       0.84464585       0.42138742
C        2.79583031      -0.24581978      -0.65164228
H       -2.69674208       0.23987841      -1.66279743
H       -1.49047999      -0.96562678      -1.22222991
H       -2.92158939      -0.72782738      -0.21006466
H       -0.69287496       1.34908204      -0.63923666
H       -2.12110363       1.59727243       0.34298914
H       -0.25528305       1.07383154       1.77830914
H       -1.41521335      -0.25152727       1.86338854
H        0.12611488      -1.67164773       0.79371339
H        2.60046235       0.28790089      -1.58301929
H        2.72673101      -1.30715409      -0.89415185
H        3.81499730      -0.04238773      -0.32636273
18
Frame=14 idx=008234 GeodesicLength=0.4588142915951402 rxn_smarts="[C:1]([C:2]([C:3]([N:4]([C:5](=[O:6])[C:7]([H:16])([H:17])[H:18])[H:15])([H:13])[H:14])([H:11])[H:12])([H:8])([H:9])[H:10]>>[C:1]([C:2]([C:3]([N:4]([C-:5]=[O+:6][C:7]([H:16])([H:17])[H:18])[H:15])([H:13])[H:14])([H:11])[H:12])([H:8])([H:9])[H:10]"
C       -2.17931368      -0.20779648      -0.81915220
C       -1.42594416       0.83559761      -0.00577707
C       -0.70659319       0.25630142       1.20828039
N        0.33783625      -0.69357433       0.85445960
C        1.63034388      -0.35962924       0.74543134
O        1.85000641       0.84665384       0.40734473
C        2.80377372      -0.25025256      -0.64667775
H       -2.70592058       0.25027199      -1.65775120
H       -1.49733898      -0.95664592      -1.22763099
H       -2.92566091      -0.72538655      -0.20976492
H       -0.69884981       1.35479305      -0.63403855
H       -2.12496081       1.59763735       0.35273384
H       -0.25828339       1.06819679       1.78233291
H       -1.41512971      -0.26036699       1.86103463
H        0.12835010      -1.67088027       0.77704380
H        2.60022183       0.24631955      -1.59668084
H        2.76791789      -1.31980900      -0.85873538
H        3.81954514      -0.01143026      -0.33245234
18
Frame=15 idx=008234 GeodesicLength=0.47955325205520916 rxn_smarts="[C:1]([C:2]([C:3]([N:4]([C:5](=[O:6])[C:7]([H:16])([H:17])[H:18])[H:15])([H:13])[H:14])([H:11])[H:12])([H:8])([H:9])[H:10]>>[C:1]([C:2]([C:3]([N:4]([C-:5]=[O+:6][C:7]([H:16])([H:17])[H:18])[H:15])([H:13])[H:14])([H:11])[H:12])([H:8])([H:9])[H:10]"
C       -2.18596086      -0.20140302      -0.81811063
C       -1.43065683       0.83804840      -0.00151680
C       -0.70838348       0.25278456       1.20789128
N        0.33700362      -0.69298815       0.84681472
C        1.62807394      -0.35391720       0.74061226
O        1.84249161       0.84852488       0.39238863
C        2.81225583      -0.25474910      -0.64144836
H       -2.71583989       0.26098749      -1.65225552
H       -1.50479382      -0.94732239      -1.23321421
H       -2.93001913      -0.72291122      -0.20922921
H       -0.70526929       1.36066493      -0.62880287
H       -2.12898507       1.59791571       0.36291583
H       -0.26109237       1.06229309       1.78613975
H       -1.41480405      -0.26948677       1.85849825
H        0.13057921      -1.67002206       0.75956939
H        2.60158199       0.20267437      -1.60940212
H        2.81027318      -1.33086406      -0.82137190
H        3.82354539       0.01977056      -0.33947849
18
Frame=16 idx=008234 GeodesicLength=0.4995489344252411 rxn_smarts="[C:1]([C:2]([C:3]([N:4]([C:5](=[O:6])[C:7]([H:16])([H:17])[H:18])[H:15])([H:13])[H:14])([H:11])[H:12])([H:8])([H:9])[H:10]>>[C:1]([C:2]([C:3]([N:4]([C-:5]=[O+:6][C:7]([H:16])([H:17])[H:18])[H:15])([H:13])[H:14])([H:11])[H:12])([H:8])([H:9])[H:10]"
C       -2.19202344      -0.19517968      -0.81723964
C       -1.43484219       0.84036051       0.00254425
C       -0.71009776       0.24927540       1.20759863
N        0.33615309      -0.69263000       0.83981409
C        1.62579171      -0.34871000       0.73603750
O        1.83533661       0.84998396       0.37858856
C        2.81980179      -0.25884243      -0.63651824
H       -2.72480886       0.27140787      -1.64717956
H       -1.51170381      -0.93836328      -1.23856007
H       -2.93407675      -0.72031968      -0.20900143
H       -0.71086512       1.36610751      -0.62364128
H       -2.13243032       1.59823222       0.37251705
H       -0.26382275       1.05638078       1.79001567
H       -1.41467643      -0.27831057       1.85592913
H        0.13260586      -1.66926241       0.74291010
H        2.60254321       0.15921064      -1.62070893
H        2.85101860      -1.33946555      -0.78442757
H        3.82609653       0.05012471      -0.34867825
