13
Frame=0 idx=003887 GeodesicLength=0.0 rxn_smarts="[O:1]([C:2]([C:3]([N:4]([C:5](=[O:6])[H:13])[H:12])([H:10])[H:11])([H:8])[H:9])[H:7]>>[O:1]([C:2]([C:3]([O:6]/[C:5](=[N:4]/[H:12])[H:13])([H:10])[H:11])([H:8])[H:9])[H:7]"
O       -1.42914413      -0.74713846       1.56356661
C       -1.33825199      -0.67242617       0.17606257
C       -0.72920886       0.57066399      -0.35060390
N        1.35744744       0.32595413      -1.14704805
C        1.75572290       0.28990395       0.07240464
O        0.90963653       0.39890191       1.00060757
H       -0.54537744      -0.53841313       1.89323351
H       -2.36377600      -0.68076783      -0.22329320
H       -0.82921880      -1.53867009      -0.26634070
H       -0.84994735       1.47738651       0.22541776
H       -0.80935607       0.69823495      -1.41736046
H        2.06054161       0.24905528      -1.87185241
H        2.81093214       0.16731499       0.34520606
13
Frame=1 idx=003887 GeodesicLength=0.04285779679113637 rxn_smarts="[O:1]([C:2]([C:3]([N:4]([C:5](=[O:6])[H:13])[H:12])([H:10])[H:11])([H:8])[H:9])[H:7]>>[O:1]([C:2]([C:3]([O:6]/[C:5](=[N:4]/[H:12])[H:13])([H:10])[H:11])([H:8])[H:9])[H:7]"
O       -1.43065506      -0.74691591       1.56077052
C       -1.33507111      -0.67152816       0.17276219
C       -0.71297062       0.57017326      -0.34863401
N        1.34630085       0.30237052      -1.14307660
C        1.75494196       0.28033849       0.07447225
O        0.91181505       0.41081024       1.00396104
H       -0.54673881      -0.54551362       1.89445649
H       -2.35929048      -0.67538203      -0.22850714
H       -0.82740374      -1.54019137      -0.26645193
H       -0.85607852       1.47702946       0.22331642
H       -0.80708390       0.70613662      -1.41402011
H        2.04854507       0.25284505      -1.87055938
H        2.81368929       0.17982744       0.34151026
13
Frame=2 idx=003887 GeodesicLength=0.08579436647591641 rxn_smarts="[O:1]([C:2]([C:3]([N:4]([C:5](=[O:6])[H:13])[H:12])([H:10])[H:11])([H:8])[H:9])[H:7]>>[O:1]([C:2]([C:3]([O:6]/[C:5](=[N:4]/[H:12])[H:13])([H:10])[H:11])([H:8])[H:9])[H:7]"
O       -1.43151001      -0.74705129       1.55776726
C       -1.33138667      -0.67066659       0.16927644
C       -0.69722508       0.57015940      -0.34656870
N        1.33535849       0.28117643      -1.13865248
C        1.75401680       0.27202895       0.07686440
O        0.91382615       0.42398244       1.00713592
H       -0.54762409      -0.55243295       1.89542606
H       -2.35431057      -0.67072167      -0.23382451
H       -0.82455651      -1.54131904      -0.26695178
H       -0.86295691       1.47669519       0.22109031
H       -0.80464855       0.71429444      -1.41045032
H        2.03544135       0.25429990      -1.86885846
H        2.81557559       0.18955478       0.33774587
13
Frame=3 idx=003887 GeodesicLength=0.12880114322073133 rxn_smarts="[O:1]([C:2]([C:3]([N:4]([C:5](=[O:6])[H:13])[H:12])([H:10])[H:11])([H:8])[H:9])[H:7]>>[O:1]([C:2]([C:3]([O:6]/[C:5](=[N:4]/[H:12])[H:13])([H:10])[H:11])([H:8])[H:9])[H:7]"
O       -1.43235946      -0.74743260       1.55459338
C       -1.32787837      -0.66965546       0.16564095
C       -0.68161608       0.57033515      -0.34427872
N        1.32466891       0.26037190      -1.13382232
C        1.75311478       0.26286173       0.07955194
O        0.91596622       0.43660732       1.01015392
H       -0.54848745      -0.55984983       1.89614201
H       -2.34954679      -0.66567168      -0.23914703
H       -0.82213082      -1.54225842      -0.26793244
H       -0.86944576       1.47616305       0.21898614
H       -0.80167812       0.72260992      -1.40652690
H        2.02172643       0.25379622      -1.86687063
H        2.81766651       0.20212270       0.33350969
13
Frame=4 idx=003887 GeodesicLength=0.17188815220737075 rxn_smarts="[O:1]([C:2]([C:3]([N:4]([C:5](=[O:6])[H:13])[H:12])([H:10])[H:11])([H:8])[H:9])[H:7]>>[O:1]([C:2]([C:3]([O:6]/[C:5](=[N:4]/[H:12])[H:13])([H:10])[H:11])([H:8])[H:9])[H:7]"
O       -1.43255942      -0.74817081       1.55127309
C       -1.32394265      -0.66868437       0.16187238
C       -0.66653219       0.57097608      -0.34188219
N        1.31407293       0.24176090      -1.12865608
C        1.75210061       0.25537595       0.08247307
O        0.91792789       0.45042580       1.01295492
H       -0.54883088      -0.56714949       1.89660946
H       -2.34439366      -0.66129240      -0.24447377
H       -0.81880352      -1.54284211      -0.26926846
H       -0.87670762       1.47562940       0.21678458
H       -0.79868874       0.73112437      -1.40240966
H        2.00752169       0.25117569      -1.86457576
H        2.81883556       0.21167099       0.32929842
13
Frame=5 idx=003887 GeodesicLength=0.21501907014730887 rxn_smarts="[O:1]([C:2]([C:3]([N:4]([C:5](=[O:6])[H:13])[H:12])([H:10])[H:11])([H:8])[H:9])[H:7]>>[O:1]([C:2]([C:3]([O:6]/[C:5](=[N:4]/[H:12])[H:13])([H:10])[H:11])([H:8])[H:9])[H:7]"
O       -1.43262032      -0.74905240       1.54788528
C       -1.32005891      -0.66763966       0.15804430
C       -0.65170526       0.57179616      -0.33935632
N        1.30363926       0.22383464      -1.12320280
C        1.75105539       0.24785320       0.08559357
O        0.91991665       0.46418623       1.01553991
H       -0.54904413      -0.57463989       1.89689039
H       -2.33933805      -0.65686251      -0.24971293
H       -0.81558427      -1.54327443      -0.27086771
H       -0.88389443       1.47493595       0.21450052
H       -0.79538770       0.73959108      -1.39809712
H        1.99310416       0.24749703      -1.86203842
H        2.81991759       0.22177460       0.32482133
13
Frame=6 idx=003887 GeodesicLength=0.258203365925578 rxn_smarts="[O:1]([C:2]([C:3]([N:4]([C:5](=[O:6])[H:13])[H:12])([H:10])[H:11])([H:8])[H:9])[H:7]>>[O:1]([C:2]([C:3]([O:6]/[C:5](=[N:4]/[H:12])[H:13])([H:10])[H:11])([H:8])[H:9])[H:7]"
O       -1.43237175      -0.75014794       1.54441942
C       -1.31608403      -0.66656646       0.15414615
C       -0.63723123       0.57288229      -0.33670819
N        1.29330943       0.20702311      -1.11747878
C        1.74999054       0.24119825       0.08889956
O        0.92185526       0.47830600       1.01791619
H       -0.54898181      -0.58223153       1.89696667
H       -2.33424301      -0.65262097      -0.25487306
H       -0.81216231      -1.54350476      -0.27274566
H       -0.89131149       1.47412706       0.21213646
H       -0.79193018       0.74806015      -1.39361531
H        1.97854374       0.24249513      -1.85927232
H        2.82061683       0.23097967       0.32020888
13
Frame=7 idx=003887 GeodesicLength=0.30142490278989786 rxn_smarts="[O:1]([C:2]([C:3]([N:4]([C:5](=[O:6])[H:13])[H:12])([H:10])[H:11])([H:8])[H:9])[H:7]>>[O:1]([C:2]([C:3]([O:6]/[C:5](=[N:4]/[H:12])[H:13])([H:10])[H:11])([H:8])[H:9])[H:7]"
O       -1.43194024      -0.75131856       1.54093883
C       -1.31211526      -0.66545498       0.15023952
C       -0.62304985       0.57412390      -0.33398097
N        1.28310007       0.19095337      -1.11154241
C        1.74887836       0.23482525       0.09232921
O        0.92378433       0.49255625       1.02004292
H       -0.54875315      -0.58986130       1.89689406
H       -2.32920104      -0.64847324      -0.25989758
H       -0.80873183      -1.54361269      -0.27476299
H       -0.89874965       1.47316804       0.20958967
H       -0.78827666       0.75636005      -1.38903125
H        1.96394806       0.23700048      -1.85629266
H        2.82110688       0.23973342       0.31547363
13
Frame=8 idx=003887 GeodesicLength=0.3446896665882632 rxn_smarts="[O:1]([C:2]([C:3]([N:4]([C:5](=[O:6])[H:13])[H:12])([H:10])[H:11])([H:8])[H:9])[H:7]>>[O:1]([C:2]([C:3]([O:6]/[C:5](=[N:4]/[H:12])[H:13])([H:10])[H:11])([H:8])[H:9])[H:7]"
O       -1.43128425      -0.75257223       1.53745139
C       -1.30812069      -0.66431548       0.14632280
C       -0.60918580       0.57554680      -0.33118152
N        1.27298672       0.17568770      -1.10541503
C        1.74771344       0.22891607       0.09588907
O        0.92568439       0.50704729       1.02193044
H       -0.54831297      -0.59751669       1.89667688
H       -2.32418448      -0.64447376      -0.26479516
H       -0.80521708      -1.54359373      -0.27692061
H       -0.90628791       1.47207947       0.20686818
H       -0.78448967       0.76450875      -1.38437327
H        1.94935906       0.23099321      -1.85311554
H        2.82133925       0.24769260       0.31066239
13
Frame=9 idx=003887 GeodesicLength=0.38799887398040067 rxn_smarts="[O:1]([C:2]([C:3]([N:4]([C:5](=[O:6])[H:13])[H:12])([H:10])[H:11])([H:8])[H:9])[H:7]>>[O:1]([C:2]([C:3]([O:6]/[C:5](=[N:4]/[H:12])[H:13])([H:10])[H:11])([H:8])[H:9])[H:7]"
O       -1.43044918      -0.75390170       1.53396117
C       -1.30415030      -0.66313593       0.14240012
C       -0.59559935       0.57712126      -0.32830114
N        1.26297243       0.16103943      -1.09909412
C        1.74653554       0.22342144       0.09956498
O        0.92757583       0.52166167       1.02359416
H       -0.54768544      -0.60527649       1.89630732
H       -2.31924498      -0.64053119      -0.26955524
H       -0.80173043      -1.54346633      -0.27922531
H       -0.91383838       1.47085166       0.20398705
H       -0.78054006       0.77249781      -1.37964463
H        1.93479934       0.22449970      -1.84975524
H        2.82135499       0.25521865       0.30576087
13
Frame=10 idx=003887 GeodesicLength=0.43134709943184996 rxn_smarts="[O:1]([C:2]([C:3]([N:4]([C:5](=[O:6])[H:13])[H:12])([H:10])[H:11])([H:8])[H:9])[H:7]>>[O:1]([C:2]([C:3]([O:6]/[C:5](=[N:4]/[H:12])[H:13])([H:10])[H:11])([H:8])[H:9])[H:7]"
O       -1.42957907      -0.75534712       1.53042537
C       -1.30032414      -0.66188176       0.13844180
C       -0.58219474       0.57879356      -0.32527149
N        1.25307219       0.14668009      -1.09250973
C        1.74547136       0.21843694       0.10336111
O        0.92951726       0.53603165       1.02512073
H       -0.54698961      -0.61336676       1.89575571
H       -2.31449395      -0.63641254      -0.27421591
H       -0.79853541      -1.54324591      -0.28176071
H       -0.92119703       1.46944636       0.20106792
H       -0.77631257       0.78037587      -1.37477340
H        1.92022674       0.21710354      -1.84621930
H        2.82133895       0.26338608       0.30057791
13
Frame=11 idx=003887 GeodesicLength=0.4747384066082867 rxn_smarts="[O:1]([C:2]([C:3]([N:4]([C:5](=[O:6])[H:13])[H:12])([H:10])[H:11])([H:8])[H:9])[H:7]>>[O:1]([C:2]([C:3]([O:6]/[C:5](=[N:4]/[H:12])[H:13])([H:10])[H:11])([H:8])[H:9])[H:7]"
O       -1.42856027      -0.75684121       1.52690308
C       -1.29653763      -0.66059178       0.13449266
C       -0.56904722       0.58058570      -0.32217165
N        1.24325968       0.13286443      -1.08575557
C        1.74440619       0.21379840       0.10724617
O        0.93145503       0.55049700       1.02643851
H       -0.54613752      -0.62154658       1.89507187
H       -2.30983333      -0.63234402      -0.27873194
H       -0.79539742      -1.54294036      -0.28440759
H       -0.92852307       1.46790921       0.19797525
H       -0.77194569       0.78806145      -1.36986690
H        1.90572268       0.20941264      -1.84251540
H        2.82113858       0.27113510       0.29532152
13
Frame=12 idx=003887 GeodesicLength=0.5181508300571906 rxn_smarts="[O:1]([C:2]([C:3]([N:4]([C:5](=[O:6])[H:13])[H:12])([H:10])[H:11])([H:8])[H:9])[H:7]>>[O:1]([C:2]([C:3]([O:6]/[C:5](=[N:4]/[H:12])[H:13])([H:10])[H:11])([H:8])[H:9])[H:7]"
O       -1.42758507      -0.75846175       1.52333413
C       -1.29294049      -0.65922020       0.13050653
C       -0.55603663       0.58244008      -0.31889903
N        1.23356256       0.11921028      -1.07872506
C        1.74351600       0.20971637       0.11120584
O        0.93346279       0.56457594       1.02768464
H       -0.54529764      -0.63012853       1.89421961
H       -2.30539774      -0.62802500      -0.28316676
H       -0.79264119      -1.54256158      -0.28729584
H       -0.93556643       1.46620209       0.19489236
H       -0.76727662       0.79564914      -1.36481389
H        1.89122402       0.20072351      -1.83866374
H        2.82097645       0.27987965       0.28972121
13
Frame=13 idx=003887 GeodesicLength=0.5615935463292193 rxn_smarts="[O:1]([C:2]([C:3]([N:4]([C:5](=[O:6])[H:13])[H:12])([H:10])[H:11])([H:8])[H:9])[H:7]>>[O:1]([C:2]([C:3]([O:6]/[C:5](=[N:4]/[H:12])[H:13])([H:10])[H:11])([H:8])[H:9])[H:7]"
O       -1.42656770      -0.76014387       1.51976032
C       -1.28944900      -0.65779955       0.12651843
C       -0.54321932       0.58436789      -0.31551806
N        1.22396038       0.10591783      -1.07148836
C        1.74271040       0.20605657       0.11523053
O        0.93549949       0.57853970       1.02879955
H       -0.54440490      -0.63891269       1.89323470
H       -2.30110639      -0.62364046      -0.28749016
H       -0.79007428      -1.54211514      -0.29031925
H       -0.94244980       1.46435427       0.19170966
H       -0.76241565       0.80306311      -1.35969854
H        1.87678373       0.19155708      -1.83465542
H        2.82073304       0.28875527       0.28391660
13
Frame=14 idx=003887 GeodesicLength=0.6050652406599394 rxn_smarts="[O:1]([C:2]([C:3]([N:4]([C:5](=[O:6])[H:13])[H:12])([H:10])[H:11])([H:8])[H:9])[H:7]>>[O:1]([C:2]([C:3]([O:6]/[C:5](=[N:4]/[H:12])[H:13])([H:10])[H:11])([H:8])[H:9])[H:7]"
O       -1.42546277      -0.76185373       1.51620432
C       -1.28601783      -0.65634824       0.12254752
C       -0.53062575       0.58637599      -0.31206441
N        1.21444005       0.09309752      -1.06409274
C        1.74192478       0.20275542       0.11930394
O        0.93754355       0.59252695       1.02974674
H       -0.54342580      -0.64778977       1.89213832
H       -2.29691557      -0.61929262      -0.29168559
H       -0.78759078      -1.54160299      -0.29342034
H       -0.94923496       1.46238110       0.18837638
H       -0.75743560       0.81026671      -1.35456849
H        1.86243668       0.18218853      -1.83049004
H        2.82036400       0.29729514       0.27800438
13
Frame=15 idx=003887 GeodesicLength=0.6485649516714527 rxn_smarts="[O:1]([C:2]([C:3]([N:4]([C:5](=[O:6])[H:13])[H:12])([H:10])[H:11])([H:8])[H:9])[H:7]>>[O:1]([C:2]([C:3]([O:6]/[C:5](=[N:4]/[H:12])[H:13])([H:10])[H:11])([H:8])[H:9])[H:7]"
O       -1.42420419      -0.76355609       1.51269314
C       -1.28259292      -0.65488672       0.11861451
C       -0.51829809       0.58848192      -0.30858340
N        1.20498350       0.08088097      -1.05660253
C        1.74107350       0.19972322       0.12341931
O        0.93956952       0.60670992       1.03046891
H       -0.54230281      -0.65663521       1.89095084
H       -2.29277742      -0.61510104      -0.29572906
H       -0.78506583      -1.54102488      -0.29653928
H       -0.95600462       1.46029962       0.18483490
H       -0.75243005       0.81722624      -1.34948042
H        1.84822491       0.17292541      -1.82617071
H        2.81982450       0.30495661       0.27212379
13
Frame=16 idx=003887 GeodesicLength=0.6920928573922059 rxn_smarts="[O:1]([C:2]([C:3]([N:4]([C:5](=[O:6])[H:13])[H:12])([H:10])[H:11])([H:8])[H:9])[H:7]>>[O:1]([C:2]([C:3]([O:6]/[C:5](=[N:4]/[H:12])[H:13])([H:10])[H:11])([H:8])[H:9])[H:7]"
O       -1.42272571      -0.76522053       1.50925170
C       -1.27912657      -0.65343289       0.11473797
C       -0.50627666       0.59070571      -0.30511910
N        1.19557249       0.06938335      -1.04908442
C        1.74007024       0.19686920       0.12757247
O        0.94155477       0.62124417       1.03090249
H       -0.54097321      -0.66533942       1.88968810
H       -2.28865261      -0.61117224      -0.29959435
H       -0.78238982      -1.54037960      -0.29962511
H       -0.96283364       1.45812368       0.18103556
H       -0.74749194       0.82391613      -1.34448686
H        1.83419038       0.16404308      -1.82170259
H        2.81908228       0.31125936       0.26642411
