16
Frame=0 idx=004078 GeodesicLength=0.0 rxn_smarts="[C:1]([C@@:2]1([H:10])[C:3]([H:11])([H:12])[C@:4]1([C:5]([H:13])([H:14])[H:15])[O:6][H:16])([H:7])([H:8])[H:9]>>[C:1]([C:2]([C:3]([C:4][O:6][H:16])([H:11])[H:12])([C:5]([H:13])([H:14])[H:15])[H:10])([H:7])([H:8])[H:9]"
C        1.30716440      -0.42240951       1.19189847
C        0.65903192       0.01798119      -0.08749507
C        0.23395845      -0.98579021      -1.06716525
C       -1.06550470      -0.22895105      -0.98171657
C       -1.01628994       0.68831173       0.66125827
O       -1.03872270       0.72351756      -1.96991490
H        2.33267883      -0.73589549       0.97709429
H        1.34455823       0.37932763       1.93256380
H        0.78619225      -1.27520003       1.63004711
H        1.06061535       0.92040954      -0.53485021
H        0.69582567      -0.91713817      -2.04677889
H        0.17749694      -2.00737818      -0.70180997
H       -1.90662519       1.24481007       0.36595101
H       -0.38517886       1.43948138       1.16187646
H       -1.32290926      -0.05666550       1.38975281
H       -1.86229144       1.21558905      -1.92071139
16
Frame=1 idx=004078 GeodesicLength=0.059651017317422596 rxn_smarts="[C:1]([C@@:2]1([H:10])[C:3]([H:11])([H:12])[C@:4]1([C:5]([H:13])([H:14])[H:15])[O:6][H:16])([H:7])([H:8])[H:9]>>[C:1]([C:2]([C:3]([C:4][O:6][H:16])([H:11])[H:12])([C:5]([H:13])([H:14])[H:15])[H:10])([H:7])([H:8])[H:9]"
C        1.31755054      -0.41970813       1.18761469
C        0.65440275       0.02407215      -0.08380521
C        0.22681712      -0.98553153      -1.06066968
C       -1.05872466      -0.20859580      -0.99330685
C       -1.02291417       0.68054729       0.67092365
O       -1.03281699       0.72211908      -1.99866188
H        2.33975022      -0.73682678       0.96304152
H        1.36542587       0.38175055       1.92801381
H        0.79791718      -1.26988209       1.63258850
H        1.06639612       0.92088755      -0.53394234
H        0.70172964      -0.93270065      -2.03513310
H        0.14261756      -2.00184961      -0.68530921
H       -1.92435945       1.22264012       0.38210436
H       -0.41088052       1.44317246       1.17703632
H       -1.31863310      -0.07374388       1.39494822
H       -1.84427813       1.23364928      -1.94544279
16
Frame=2 idx=004078 GeodesicLength=0.11928748820900935 rxn_smarts="[C:1]([C@@:2]1([H:10])[C:3]([H:11])([H:12])[C@:4]1([C:5]([H:13])([H:14])[H:15])[O:6][H:16])([H:7])([H:8])[H:9]>>[C:1]([C:2]([C:3]([C:4][O:6][H:16])([H:11])[H:12])([C:5]([H:13])([H:14])[H:15])[H:10])([H:7])([H:8])[H:9]"
C        1.32803891      -0.41686828       1.18309414
C        0.64983930       0.03050947      -0.08005664
C        0.21913085      -0.98499473      -1.05382582
C       -1.05159483      -0.18751783      -1.00458153
C       -1.02960361       0.67250437       0.68081861
O       -1.02699081       0.71958562      -2.02807976
H        2.34675795      -0.73767438       0.94861497
H        1.38655195       0.38424291       1.92314056
H        0.80987020      -1.26443234       1.63490263
H        1.07222928       0.92144401      -0.53321596
H        0.70685916      -0.94866041      -2.02281818
H        0.10709355      -1.99522429      -0.66866438
H       -1.94233811       1.19913003       0.39840617
H       -0.43744834       1.44642431       1.19257194
H       -1.31403075      -0.09098046       1.40034987
H       -1.82436468       1.25251201      -1.97065664
16
Frame=3 idx=004078 GeodesicLength=0.1789013433478508 rxn_smarts="[C:1]([C@@:2]1([H:10])[C:3]([H:11])([H:12])[C@:4]1([C:5]([H:13])([H:14])[H:15])[O:6][H:16])([H:7])([H:8])[H:9]>>[C:1]([C:2]([C:3]([C:4][O:6][H:16])([H:11])[H:12])([C:5]([H:13])([H:14])[H:15])[H:10])([H:7])([H:8])[H:9]"
C        1.33861803      -0.41389785       1.17833419
C        0.64534662       0.03732171      -0.07623825
C        0.21088344      -0.98412236      -1.04663598
C       -1.04410669      -0.16569865      -1.01550140
C       -1.03634841       0.66419520       0.69095353
O       -1.02140806       0.71576299      -2.05810991
H        2.35367858      -0.73846048       0.93380761
H        1.40793654       0.38678141       1.91795007
H        0.82202596      -1.25886143       1.63696509
H        1.07811934       0.92209599      -0.53266996
H        0.71114947      -0.96494175      -2.00983035
H        0.07096804      -1.98744795      -0.65191162
H       -1.96051573       1.17422686       0.41482346
H       -0.46490560       1.44922765       1.20847579
H       -1.30907801      -0.10833255       1.40599242
H       -1.80236352       1.27215122      -1.99640471
16
Frame=4 idx=004078 GeodesicLength=0.23848343209056846 rxn_smarts="[C:1]([C@@:2]1([H:10])[C:3]([H:11])([H:12])[C@:4]1([C:5]([H:13])([H:14])[H:15])[O:6][H:16])([H:7])([H:8])[H:9]>>[C:1]([C:2]([C:3]([C:4][O:6][H:16])([H:11])[H:12])([C:5]([H:13])([H:14])[H:15])[H:10])([H:7])([H:8])[H:9]"
C        1.34927432      -0.41081195       1.17333587
C        0.64093190       0.04453888      -0.07233416
C        0.20206534      -0.98284709      -1.03910795
C       -1.03625160      -0.14311693      -1.02602484
C       -1.04313415       0.65564110       0.70133987
O       -1.01626742       0.71050377      -2.08865928
H        2.36048530      -0.73921708       0.91861650
H        1.42958049       0.38933104       1.91245593
H        0.83435144      -1.25318713       1.63875030
H        1.08407712       0.92286174      -0.53229352
H        0.71453927      -0.98144339      -1.99617507
H        0.03429429      -1.97846624      -0.63510034
H       -1.97883246       1.14789126       0.43131822
H       -0.49327003       1.45157905       1.22473881
H       -1.30374996      -0.12574616       1.41191271
H       -1.77809383       1.29248913      -2.02277304
16
Frame=5 idx=004078 GeodesicLength=0.29802117896647307 rxn_smarts="[C:1]([C@@:2]1([H:10])[C:3]([H:11])([H:12])[C@:4]1([C:5]([H:13])([H:14])[H:15])[O:6][H:16])([H:7])([H:8])[H:9]>>[C:1]([C:2]([C:3]([C:4][O:6][H:16])([H:11])[H:12])([C:5]([H:13])([H:14])[H:15])[H:10])([H:7])([H:8])[H:9]"
C        1.35999169      -0.40763576       1.16810520
C        0.63660576       0.05219250      -0.06832143
C        0.19267506      -0.98108852      -1.03125451
C       -1.02801742      -0.11974355      -1.03610815
C       -1.04993923       0.64687428       0.71198994
O       -1.01179498       0.70368415      -2.11958990
H        2.36714553      -0.73999067       0.90304342
H        1.45148749       0.39184109       1.90667942
H        0.84680345      -1.24743596       1.64023335
H        1.09012354       0.92376032      -0.53206168
H        0.71697376      -0.99803205      -1.98186678
H       -0.00286631      -1.96822246      -0.61829446
H       -1.99721003       1.12010148       0.44784603
H       -0.52255065       1.45348014       1.24135138
H       -1.29801954      -0.14315595       1.41814796
H       -1.75140811       1.31337098      -2.04989978
16
Frame=6 idx=004078 GeodesicLength=0.35750757838143 rxn_smarts="[C:1]([C@@:2]1([H:10])[C:3]([H:11])([H:12])[C@:4]1([C:5]([H:13])([H:14])[H:15])[O:6][H:16])([H:7])([H:8])[H:9]>>[C:1]([C:2]([C:3]([C:4][O:6][H:16])([H:11])[H:12])([C:5]([H:13])([H:14])[H:15])[H:10])([H:7])([H:8])[H:9]"
C        1.37075404      -0.40440357       1.16265379
C        0.63238382       0.06031414      -0.06417151
C        0.18272013      -0.97875746      -1.02309541
C       -1.01938865      -0.09554126      -1.04571151
C       -1.05673790       0.63793707       0.72291609
O       -1.00824734       0.69520883      -2.15072274
H        2.37362738      -0.74083753       0.88709769
H        1.47366258       0.39424728       1.90065298
H        0.85933297      -1.24164449       1.64138908
H        1.09629077       0.92481090      -0.53193543
H        0.71840582      -1.01455389      -1.96693365
H       -0.04044435      -1.95666108      -0.60157082
H       -2.01555802       1.09085187       0.46435980
H       -0.55275242       1.45494101       1.25830267
H       -1.29186241      -0.16048693       1.42473368
H       -1.72218642       1.33457511      -2.07796472
16
Frame=7 idx=004078 GeodesicLength=0.4169345234338061 rxn_smarts="[C:1]([C@@:2]1([H:10])[C:3]([H:11])([H:12])[C@:4]1([C:5]([H:13])([H:14])[H:15])[O:6][H:16])([H:7])([H:8])[H:9]>>[C:1]([C:2]([C:3]([C:4][O:6][H:16])([H:11])[H:12])([C:5]([H:13])([H:14])[H:15])[H:10])([H:7])([H:8])[H:9]"
C        1.38154313      -0.40116613       1.15700305
C        0.62829110       0.06893642      -0.05984528
C        0.17222179      -0.97574836      -1.01465753
C       -1.01033729      -0.07045522      -1.05479715
C       -1.06349297       0.62888838       0.73412949
O       -1.00589178       0.68503702      -2.18182569
H        2.37989337      -0.74183689       0.87080016
H        1.49611493       0.39646048       1.89442391
H        0.87187639      -1.23586403       1.64219500
H        1.10263194       0.92603321      -0.53185260
H        0.71880522      -1.03081870      -1.95141619
H       -0.07836292      -1.94372188      -0.58502534
H       -2.03376195       1.06016618       0.48080375
H       -0.58386649       1.45597975       1.27558332
H       -1.28525414      -0.17765013       1.43169934
H       -1.69041032       1.35575991      -2.10721826
16
Frame=8 idx=004078 GeodesicLength=0.47631024882175543 rxn_smarts="[C:1]([C@@:2]1([H:10])[C:3]([H:11])([H:12])[C@:4]1([C:5]([H:13])([H:14])[H:15])[O:6][H:16])([H:7])([H:8])[H:9]>>[C:1]([C:2]([C:3]([C:4][O:6][H:16])([H:11])[H:12])([C:5]([H:13])([H:14])[H:15])[H:10])([H:7])([H:8])[H:9]"
C        1.39234361      -0.39799486       1.15119094
C        0.62436633       0.07809126      -0.05529262
C        0.16121978      -0.97194335      -1.00597913
C       -1.00081879      -0.04440684      -1.06333845
C       -1.07015876       0.61980741       0.74564082
O       -1.00499340       0.67319426      -2.21262883
H        2.38590852      -0.74309786       0.85419001
H        1.51886039       0.39836409       1.88806456
H        0.88436081      -1.23016543       1.64263999
H        1.10922554       0.92744644      -0.53172762
H        0.71816805      -1.04661084      -1.93537498
H       -0.11653464      -1.92934408      -0.56877434
H       -2.05169063       1.02810336       0.49711334
H       -0.61587516       1.45662923       1.29318789
H       -1.27817279      -0.19454221       1.43907034
H       -1.65620886       1.37646942      -2.13798191
16
Frame=9 idx=004078 GeodesicLength=0.5355959798367983 rxn_smarts="[C:1]([C@@:2]1([H:10])[C:3]([H:11])([H:12])[C@:4]1([C:5]([H:13])([H:14])[H:15])[O:6][H:16])([H:7])([H:8])[H:9]>>[C:1]([C:2]([C:3]([C:4][O:6][H:16])([H:11])[H:12])([C:5]([H:13])([H:14])[H:15])[H:10])([H:7])([H:8])[H:9]"
C        1.40312684      -0.39493931       1.14523297
C        0.62064112       0.08781052      -0.05047113
C        0.14974726      -0.96722839      -0.99708497
C       -0.99078462      -0.01733179      -1.07130473
C       -1.07668715       0.61075087       0.75743445
O       -1.00586387       0.65968743      -2.24282180
H        2.39162465      -0.74467822       0.83729504
H        1.54189469       0.39985661       1.88161687
H        0.89670500      -1.22459954       1.64268399
H        1.11614022       0.92906667      -0.53147623
H        0.71648260      -1.06172583      -1.91885397
H       -0.15489060      -1.91346745      -0.55291259
H       -2.06920283       0.99468165       0.51320720
H       -0.64876832       1.45689917       1.31107502
H       -1.27060433      -0.21107589       1.44683144
H       -1.61956065       1.39629351      -2.17045155
16
Frame=10 idx=004078 GeodesicLength=0.5948302048332839 rxn_smarts="[C:1]([C@@:2]1([H:10])[C:3]([H:11])([H:12])[C@:4]1([C:5]([H:13])([H:14])[H:15])[O:6][H:16])([H:7])([H:8])[H:9]>>[C:1]([C:2]([C:3]([C:4][O:6][H:16])([H:11])[H:12])([C:5]([H:13])([H:14])[H:15])[H:10])([H:7])([H:8])[H:9]"
C        1.41387952      -0.39216064       1.13923617
C        0.61722913       0.09812840      -0.04528255
C        0.13791897      -0.96142020      -0.98804605
C       -0.98008109       0.01096991      -1.07870951
C       -1.08297297       0.60188099       0.76950534
O       -1.00861905       0.64479835      -2.27205543
H        2.39700258      -0.74682024       0.82024653
H        1.56525010       0.40069277       1.87526128
H        0.90877146      -1.21931749       1.64234071
H        1.12359147       0.93090924      -0.53090433
H        0.71385508      -1.07585699      -1.90195077
H       -0.19332716      -1.89598288      -0.53763449
H       -2.08607384       0.96011113       0.52897114
H       -0.68245504       1.45686827       1.32925937
H       -1.26253470      -0.22708492       1.45496349
H       -1.58143447       1.41428430      -2.20520091
16
Frame=11 idx=004078 GeodesicLength=0.6540262498408353 rxn_smarts="[C:1]([C@@:2]1([H:10])[C:3]([H:11])([H:12])[C@:4]1([C:5]([H:13])([H:14])[H:15])[O:6][H:16])([H:7])([H:8])[H:9]>>[C:1]([C:2]([C:3]([C:4][O:6][H:16])([H:11])[H:12])([C:5]([H:13])([H:14])[H:15])[H:10])([H:7])([H:8])[H:9]"
C        1.42458234      -0.38978456       1.13328087
C        0.61423585       0.10907493      -0.03964652
C        0.12583851      -0.95436135      -0.97891108
C       -0.96853662       0.04067582      -1.08557784
C       -1.08892617       0.59332053       0.78181104
O       -1.01338484       0.62873199      -2.29999990
H        2.40200083      -0.74969710       0.80315561
H        1.58893985       0.40066610       1.86913421
H        0.92043211      -1.21443826       1.64160730
H        1.13177691       0.93298043      -0.52984263
H        0.71038854      -1.08876702      -1.88472972
H       -0.23177106      -1.87678793      -0.52308761
H       -2.10209992       0.92452398       0.54425402
H       -0.71688486       1.45659162       1.34769601
H       -1.25396354      -0.24243966       1.46340553
H       -1.54262793       1.42971047      -2.24254927
16
Frame=12 idx=004078 GeodesicLength=0.7132160685094483 rxn_smarts="[C:1]([C@@:2]1([H:10])[C:3]([H:11])([H:12])[C@:4]1([C:5]([H:13])([H:14])[H:15])[O:6][H:16])([H:7])([H:8])[H:9]>>[C:1]([C:2]([C:3]([C:4][O:6][H:16])([H:11])[H:12])([C:5]([H:13])([H:14])[H:15])[H:10])([H:7])([H:8])[H:9]"
C        1.43522084      -0.38793915       1.12745978
C        0.61178265       0.12067261      -0.03348442
C        0.11362724      -0.94590715      -0.96973170
C       -0.95594044       0.07196652      -1.09196608
C       -1.09445980       0.58519191       0.79428115
O       -1.02025235       0.61169461      -2.32633682
H        2.40658704      -0.75348301       0.78615363
H        1.61297562       0.39956800       1.86338491
H        0.93155872      -1.21007982       1.64049737
H        1.14091603       0.93527336      -0.52811966
H        0.70621545      -1.10025541      -1.86725503
H       -0.27014984      -1.85578177      -0.50941554
H       -2.11707650       0.88805318       0.55885269
H       -0.75202329       1.45613069       1.36630185
H       -1.24490276      -0.25701362       1.47207176
H       -1.50407859       1.44190905      -2.28269389
16
Frame=13 idx=004078 GeodesicLength=0.7724338395868298 rxn_smarts="[C:1]([C@@:2]1([H:10])[C:3]([H:11])([H:12])[C@:4]1([C:5]([H:13])([H:14])[H:15])[O:6][H:16])([H:7])([H:8])[H:9]>>[C:1]([C:2]([C:3]([C:4][O:6][H:16])([H:11])[H:12])([C:5]([H:13])([H:14])[H:15])[H:10])([H:7])([H:8])[H:9]"
C        1.44577973      -0.38678017       1.12189024
C        0.61002652       0.13293609      -0.02670781
C        0.10144930      -0.93590667      -0.96056137
C       -0.94200150       0.10505146      -1.09796204
C       -1.09947241       0.57764257       0.80680067
O       -1.02920254       0.59394396      -2.35074359
H        2.41072669      -0.75839824       0.76941406
H        1.63736553       0.39715051       1.85818971
H        0.94199889      -1.20637486       1.63904052
H        1.15128463       0.93776134      -0.52553417
H        0.70153155      -1.11013673      -1.84957608
H       -0.30837694      -1.83284217      -0.49677616
H       -2.13076778       0.85088402       0.57247980
H       -0.78782868       1.45556045       1.38494722
H       -1.23537904      -0.27066016       1.48082455
H       -1.46713395       1.45016863      -2.32572554
16
Frame=14 idx=004078 GeodesicLength=0.8317120279316319 rxn_smarts="[C:1]([C@@:2]1([H:10])[C:3]([H:11])([H:12])[C@:4]1([C:5]([H:13])([H:14])[H:15])[O:6][H:16])([H:7])([H:8])[H:9]>>[C:1]([C:2]([C:3]([C:4][O:6][H:16])([H:11])[H:12])([C:5]([H:13])([H:14])[H:15])[H:10])([H:7])([H:8])[H:9]"
C        1.45624694      -0.38629322       1.11656833
C        0.60898194       0.14585555      -0.01932746
C        0.08936154      -0.92436831      -0.95142220
C       -0.92664189       0.13985090      -1.10363000
C       -1.10399353       0.57067262       0.81926589
O       -1.04064058       0.57541133      -2.37283457
H        2.41440568      -0.76440193       0.75293939
H        1.66209070       0.39341370       1.85353003
H        0.95173262      -1.20330059       1.63725573
H        1.16288978       0.94041058      -0.52209152
H        0.69635342      -1.11839435      -1.83176341
H       -0.34634865      -1.80800128      -0.48517913
H       -2.14310362       0.81293976       0.58489847
H       -0.82444600       1.45490016       1.40339314
H       -1.22542002      -0.28334483       1.48961844
H       -1.43146833       1.45464991      -2.37122115
16
Frame=15 idx=004078 GeodesicLength=0.8910783005761131 rxn_smarts="[C:1]([C@@:2]1([H:10])[C:3]([H:11])([H:12])[C@:4]1([C:5]([H:13])([H:14])[H:15])[O:6][H:16])([H:7])([H:8])[H:9]>>[C:1]([C:2]([C:3]([C:4][O:6][H:16])([H:11])[H:12])([C:5]([H:13])([H:14])[H:15])[H:10])([H:7])([H:8])[H:9]"
C        1.46660246      -0.38651035       1.11151960
C        0.60869706       0.15941297      -0.01133639
C        0.07747128      -0.91128191      -0.94235079
C       -0.90972744       0.17630527      -1.10905521
C       -1.10802253       0.56433284       0.83154667
O       -1.05481739       0.55625872      -2.39212902
H        2.41759550      -0.77153164       0.73677908
H        1.68713015       0.38829416       1.84942714
H        0.96069920      -1.20086508       1.63517289
H        1.17579668       0.94317718      -0.51774372
H        0.69075952      -1.12497036      -1.81390208
H       -0.38392662      -1.78127649      -0.47467123
H       -2.15395185       0.77425390       0.59582732
H       -0.86197903       1.45418977       1.42137958
H       -1.21506310      -0.29498914       1.49836749
H       -1.39726390       1.45520014      -2.41883134
16
Frame=16 idx=004078 GeodesicLength=0.9505620015308774 rxn_smarts="[C:1]([C@@:2]1([H:10])[C:3]([H:11])([H:12])[C@:4]1([C:5]([H:13])([H:14])[H:15])[O:6][H:16])([H:7])([H:8])[H:9]>>[C:1]([C:2]([C:3]([C:4][O:6][H:16])([H:11])[H:12])([C:5]([H:13])([H:14])[H:15])[H:10])([H:7])([H:8])[H:9]"
C        1.47682224      -0.38744699       1.10675703
C        0.60920274       0.17357181      -0.00274634
C        0.06588643      -0.89668289      -0.93338409
C       -0.89115595       0.21427097      -1.11433758
C       -1.11157145       0.55866794       0.84349670
O       -1.07189658       0.53679105      -2.40808285
H        2.42026507      -0.77980415       0.72097218
H        1.71245576       0.38175983       1.84587489
H        0.96884595      -1.19905282       1.63282894
H        1.19003664       0.94600542      -0.51246543
H        0.68482263      -1.12984532      -1.79608912
H       -0.42095292      -1.75273191      -0.46527524
H       -2.16318248       0.73486471       0.60498227
H       -0.90054252       1.45347251       1.43859049
H       -1.20435333      -0.30551356       1.50698511
H       -1.36468224       1.45167342      -2.46810696
