10
Frame=0 idx=003681 GeodesicLength=0.0 rxn_smarts="[c:1]1([H:7])[c:2]([H:8])[n:3][c:4]([H:9])[n:5][c:6]1[H:10]>>[C:1]1([H:7])=[C:6]=[N:5][C:4]([H:9])=[N:3][C:2]1([H:8])[H:10]"
C       -1.05883031      -0.28634533       0.43972697
C       -0.47027400       0.91903018      -0.06694544
N        0.90116120       0.94674018      -0.09812113
C        1.52568736      -0.17752295      -0.03091626
N        0.91895703      -1.39957563      -0.28295299
C       -0.32524475      -1.48311011       0.09515218
H       -2.02743346      -0.33317929       0.92060602
H       -1.01039797       1.84424392      -0.22991562
H        2.59866658      -0.17252430       0.13156261
H       -1.05229169       0.14224334      -0.87819635
10
Frame=1 idx=003681 GeodesicLength=0.09760097789712527 rxn_smarts="[c:1]1([H:7])[c:2]([H:8])[n:3][c:4]([H:9])[n:5][c:6]1[H:10]>>[C:1]1([H:7])=[C:6]=[N:5][C:4]([H:9])=[N:3][C:2]1([H:8])[H:10]"
C       -1.05726532      -0.28260333       0.45251375
C       -0.47119151       0.91677681      -0.07651549
N        0.90242846       0.94815461      -0.09309685
C        1.52653186      -0.17675164      -0.02153057
N        0.91874353      -1.39875331      -0.27466286
C       -0.33258694      -1.46820644       0.07663461
H       -2.02810629      -0.32734312       0.92856807
H       -1.01110521       1.84621996      -0.21374686
H        2.60181245      -0.17266373       0.12419666
H       -1.04926102       0.11517019      -0.90236045
10
Frame=2 idx=003681 GeodesicLength=0.19520250514632553 rxn_smarts="[c:1]1([H:7])[c:2]([H:8])[n:3][c:4]([H:9])[n:5][c:6]1[H:10]>>[C:1]1([H:7])=[C:6]=[N:5][C:4]([H:9])=[N:3][C:2]1([H:8])[H:10]"
C       -1.05610133      -0.27894443       0.46427084
C       -0.47227510       0.91461433      -0.08584021
N        0.90344017       0.94958485      -0.08770910
C        1.52726923      -0.17590898      -0.01243059
N        0.91817506      -1.39806195      -0.26523308
C       -0.33931645      -1.45306669       0.06031042
H       -2.02944419      -0.32155153       0.93494581
H       -1.01121190       1.84828035      -0.19569199
H        2.60480089      -0.17264838       0.11487747
H       -1.04533638       0.08770243      -0.92749957
10
Frame=3 idx=003681 GeodesicLength=0.2928034020621887 rxn_smarts="[c:1]1([H:7])[c:2]([H:8])[n:3][c:4]([H:9])[n:5][c:6]1[H:10]>>[C:1]1([H:7])=[C:6]=[N:5][C:4]([H:9])=[N:3][C:2]1([H:8])[H:10]"
C       -1.05527132      -0.27531529       0.47521045
C       -0.47352715       0.91259715      -0.09491027
N        0.90419616       0.95105494      -0.08212096
C        1.52790202      -0.17496867      -0.00368950
N        0.91725165      -1.39743054      -0.25492321
C       -0.34550296      -1.43774741       0.04586126
H       -2.03132855      -0.31577371       0.94002744
H       -1.01070388       1.85032768      -0.17597566
H        2.60749611      -0.17251559       0.10405274
H       -1.04051206       0.05977144      -0.95353229
10
Frame=4 idx=003681 GeodesicLength=0.39040264037057437 rxn_smarts="[c:1]1([H:7])[c:2]([H:8])[n:3][c:4]([H:9])[n:5][c:6]1[H:10]>>[C:1]1([H:7])=[C:6]=[N:5][C:4]([H:9])=[N:3][C:2]1([H:8])[H:10]"
C       -1.05471020      -0.27167863       0.48552303
C       -0.47495224       0.91077617      -0.10367809
N        0.90470070       0.95258682      -0.07647140
C        1.52842910      -0.17391110       0.00461579
N        0.91596978      -1.39680020      -0.24395312
C       -0.35122164      -1.42227701       0.03299004
H       -2.03364939      -0.30999860       0.94407028
H       -1.00958212       1.85227053      -0.15483888
H        2.60979551      -0.17230473       0.09211933
H       -1.03477953       0.03133674      -0.98037697
10
Frame=5 idx=003681 GeodesicLength=0.48799984982893363 rxn_smarts="[c:1]1([H:7])[c:2]([H:8])[n:3][c:4]([H:9])[n:5][c:6]1[H:10]>>[C:1]1([H:7])=[C:6]=[N:5][C:4]([H:9])=[N:3][C:2]1([H:8])[H:10]"
C       -1.05434663      -0.26801167       0.49538476
C       -0.47655592       0.90919878      -0.11207184
N        0.90496277       0.95420090      -0.07090210
C        1.52884629      -0.17272291       0.01237752
N        0.91431956      -1.39612241      -0.23252987
C       -0.35654833      -1.40666122       0.02141173
H       -2.03628745      -0.30423032       0.94732758
H       -1.00787071       1.85403013      -0.13253471
H        2.61162193      -0.17206302       0.07949173
H       -1.02814151       0.00238174      -1.00795479
10
Frame=6 idx=003681 GeodesicLength=0.5855926545494188 rxn_smarts="[c:1]1([H:7])[c:2]([H:8])[n:3][c:4]([H:9])[n:5][c:6]1[H:10]>>[C:1]1([H:7])=[C:6]=[N:5][C:4]([H:9])=[N:3][C:2]1([H:8])[H:10]"
C       -1.05412206      -0.26430449       0.50495460
C       -0.47834565       0.90790626      -0.12000036
N        0.90499828       0.95591524      -0.06551351
C        1.52914751      -0.17139857       0.01951316
N        0.91228747      -1.39535747      -0.22082748
C       -0.36156153      -1.39089035       0.01086997
H       -2.03914514      -0.29848361       0.95002467
H       -1.00561270       1.85554721      -0.10932186
H        2.61294164      -0.17183631       0.06650224
H       -1.02058782      -0.02709790      -1.03620145
10
Frame=7 idx=003681 GeodesicLength=0.6831831089049086 rxn_smarts="[c:1]1([H:7])[c:2]([H:8])[n:3][c:4]([H:9])[n:5][c:6]1[H:10]>>[C:1]1([H:7])=[C:6]=[N:5][C:4]([H:9])=[N:3][C:2]1([H:8])[H:10]"
C       -1.05398395      -0.26055426       0.51437098
C       -0.48032769       0.90693309      -0.12736995
N        0.90482273       0.95774262      -0.06036927
C        1.52932295      -0.16994003       0.02597148
N        0.90985722      -1.39447646      -0.20896598
C       -0.36633537      -1.37494053       0.00113490
H       -2.04214012      -0.29277568       0.95234830
H       -1.00286894       1.85678618      -0.08543187
H        2.61374706      -0.17166831       0.05338861
H       -1.01209388      -0.05710663      -1.06507720
10
Frame=8 idx=003681 GeodesicLength=0.780771925178188 rxn_smarts="[c:1]1([H:7])[c:2]([H:8])[n:3][c:4]([H:9])[n:5][c:6]1[H:10]>>[C:1]1([H:7])=[C:6]=[N:5][C:4]([H:9])=[N:3][C:2]1([H:8])[H:10]"
C       -1.05389145      -0.25676431       0.52375410
C       -0.48251049       0.90630704      -0.13409664
N        0.90445356       0.95969363      -0.05551011
C        1.52935987      -0.16835451       0.03172211
N        0.90700723      -1.39345757      -0.19703710
C       -0.37094397      -1.35878011      -0.00799591
H       -2.04520499      -0.28712332       0.95446624
H       -0.99971057       1.85773640      -0.06106299
H        2.61405898      -0.17159770       0.04032734
H       -1.00261818      -0.08765956      -1.09456704
10
Frame=9 idx=003681 GeodesicLength=0.8783529399089938 rxn_smarts="[c:1]1([H:7])[c:2]([H:8])[n:3][c:4]([H:9])[n:5][c:6]1[H:10]>>[C:1]1([H:7])=[C:6]=[N:5][C:4]([H:9])=[N:3][C:2]1([H:8])[H:10]"
C       -1.05381881      -0.25294165       0.53320115
C       -0.48490008       0.90604963      -0.14010797
N        0.90390906       0.96177632      -0.05092964
C        1.52924553      -0.16665198       0.03679213
N        0.90371705      -1.39228321      -0.18507620
C       -0.37545512      -1.34237149      -0.01669224
H       -2.04829737      -0.28154127       0.95650485
H       -0.99620665       1.85840905      -0.03637025
H        2.61388315      -0.17165640       0.02736047
H       -0.99207677      -0.11878900      -1.12468228
10
Frame=10 idx=003681 GeodesicLength=0.9759319360939012 rxn_smarts="[c:1]1([H:7])[c:2]([H:8])[n:3][c:4]([H:9])[n:5][c:6]1[H:10]>>[C:1]1([H:7])=[C:6]=[N:5][C:4]([H:9])=[N:3][C:2]1([H:8])[H:10]"
C       -1.05374816      -0.24908850       0.54279193
C       -0.48750759       0.90618002      -0.14535367
N        0.90319871       0.96399576      -0.04661252
C        1.52896234      -0.16484414       0.04120408
N        0.89995751      -1.39094426      -0.17307701
C       -0.37993444      -1.32566830      -0.02509776
H       -2.05139034      -0.27603350       0.95855728
H       -0.99242530       1.85883208      -0.01143571
H        2.61325071      -0.17186912       0.01448224
H       -0.98036345      -0.15056005      -1.15545885
10
Frame=11 idx=003681 GeodesicLength=1.0735069123571728 rxn_smarts="[c:1]1([H:7])[c:2]([H:8])[n:3][c:4]([H:9])[n:5][c:6]1[H:10]>>[C:1]1([H:7])=[C:6]=[N:5][C:4]([H:9])=[N:3][C:2]1([H:8])[H:10]"
C       -1.05368310      -0.24520766       0.55258446
C       -0.49034140       0.90671658      -0.14978904
N        0.90233056       0.96635733      -0.04248596
C        1.52849331      -0.16294163       0.04503882
N        0.89569809      -1.38943154      -0.16096880
C       -0.38444244      -1.30861909      -0.03332748
H       -2.05449019      -0.27060104       0.96066927
H       -0.98842305       1.85904470       0.01369893
H        2.61216581      -0.17225571       0.00152841
H       -0.96730758      -0.18306194      -1.18694861
10
Frame=12 idx=003681 GeodesicLength=1.1710788983593476 rxn_smarts="[c:1]1([H:7])[c:2]([H:8])[n:3][c:4]([H:9])[n:5][c:6]1[H:10]>>[C:1]1([H:7])=[C:6]=[N:5][C:4]([H:9])=[N:3][C:2]1([H:8])[H:10]"
C       -1.05362960      -0.24129893       0.56262136
C       -0.49341320       0.90768124      -0.15338399
N        0.90130657       0.96886663      -0.03848831
C        1.52781778      -0.16095418       0.04836708
N        0.89089853      -1.38773510      -0.14866865
C       -0.38903549      -1.29116405      -0.04148965
H       -2.05759973      -0.26523844       0.96288276
H       -0.98424824       1.85909347       0.03904038
H        2.61061614      -0.17283635      -0.01166984
H       -0.95271277      -0.21641430      -1.21921115
10
Frame=13 idx=003681 GeodesicLength=1.2686470565412162 rxn_smarts="[c:1]1([H:7])[c:2]([H:8])[n:3][c:4]([H:9])[n:5][c:6]1[H:10]>>[C:1]1([H:7])=[C:6]=[N:5][C:4]([H:9])=[N:3][C:2]1([H:8])[H:10]"
C       -1.05360066      -0.23735998       0.57293132
C       -0.49673697       0.90910157      -0.15611597
N        0.90012541       0.97153213      -0.03456149
C        1.52691155      -0.15888792       0.05125648
N        0.88550916      -1.38583943      -0.13608759
C       -0.39376647      -1.27323517      -0.04968489
H       -2.06072688      -0.25993681       0.96523346
H       -0.97993671       1.85902945       0.06463294
H        2.60856805      -0.17363485      -0.02530056
H       -0.93634648      -0.25076899      -1.25230370
10
Frame=14 idx=003681 GeodesicLength=1.3662120294428193 rxn_smarts="[c:1]1([H:7])[c:2]([H:8])[n:3][c:4]([H:9])[n:5][c:6]1[H:10]>>[C:1]1([H:7])=[C:6]=[N:5][C:4]([H:9])=[N:3][C:2]1([H:8])[H:10]"
C       -1.05361169      -0.23338621       0.58352754
C       -0.50032915       0.91101478      -0.15796610
N        0.89878196       0.97436485      -0.03066031
C        1.52574614      -0.15674761       0.05376746
N        0.87946857      -1.38372268      -0.12314121
C       -0.39868515      -1.25475392      -0.05801703
H       -2.06387474      -0.25468386       0.96775804
H       -0.97551397       1.85890724       0.09055342
H        2.60596953      -0.17467946      -0.03954808
H       -0.91795150      -0.28631313      -1.28627373
10
Frame=15 idx=003681 GeodesicLength=1.4637740763101788 rxn_smarts="[c:1]1([H:7])[c:2]([H:8])[n:3][c:4]([H:9])[n:5][c:6]1[H:10]>>[C:1]1([H:7])=[C:6]=[N:5][C:4]([H:9])=[N:3][C:2]1([H:8])[H:10]"
C       -1.05368296      -0.22937081       0.59440698
C       -0.50420762       0.91347008      -0.15891543
N        0.89727009       0.97737998      -0.02675406
C        1.52428887      -0.15453447       0.05595335
N        0.87270389      -1.38135292      -0.10976130
C       -0.40383815      -1.23562990      -0.06659412
H       -2.06704703      -0.24946537       0.97049197
H       -0.97099055       1.85878443       0.11690973
H        2.60274910      -0.17600414      -0.05459008
H       -0.89724564      -0.32327688      -1.32114704
10
Frame=16 idx=003681 GeodesicLength=1.5613342088462623 rxn_smarts="[c:1]1([H:7])[c:2]([H:8])[n:3][c:4]([H:9])[n:5][c:6]1[H:10]>>[C:1]1([H:7])=[C:6]=[N:5][C:4]([H:9])=[N:3][C:2]1([H:8])[H:10]"
C       -1.05383873      -0.22530485       0.60554602
C       -0.50838997       0.91653318      -0.15894025
N        0.89558424       0.98059760      -0.02282851
C        1.52250384      -0.15224663       0.05786037
N        0.86513073      -1.37868701      -0.09590142
C       -0.40926793      -1.21575815      -0.07553534
H       -2.07024680      -0.24426618       0.97346486
H       -0.96636090       1.85872216       0.14384192
H        2.59881798      -0.17764846      -0.07059165
H       -0.87393246      -0.36194167      -1.35691601
