14
Frame=0 idx=003294 GeodesicLength=0.0 rxn_smarts="[O:1]=[C:2]([C:3]1([H:8])[C:4]([H:9])([H:10])[C:5]([H:11])([H:12])[C:6]1([H:13])[H:14])[H:7]>>[O:1](/[C:2](=[C:3](\[C:4]([C:5](=[C:6]([H:13])[H:14])[H:12])([H:9])[H:10])[H:8])[H:7])[H:11]"
O        1.28194791       0.13037442      -1.58360933
C        1.64744543       0.25887369      -0.38083967
C        0.94526238      -0.35634092       0.64563923
C       -0.26343515      -1.15335444       0.23588595
C       -1.05521069      -0.05112492      -0.49268705
C       -1.05590917       1.06279372       0.36550310
H        2.45917578       0.95531029      -0.13443568
H        1.29209840      -0.30213043       1.66902881
H       -0.01131212      -1.97265867      -0.44054505
H       -0.80662020      -1.55879307       1.09143025
H       -0.22112503       0.19168582      -1.32077214
H       -1.94817532      -0.21599396      -1.10414559
H       -1.42279248       2.02972954       0.02973230
H       -0.84134970       0.98162898       1.41981483
14
Frame=1 idx=003294 GeodesicLength=0.07522656369563731 rxn_smarts="[O:1]=[C:2]([C:3]1([H:8])[C:4]([H:9])([H:10])[C:5]([H:11])([H:12])[C:6]1([H:13])[H:14])[H:7]>>[O:1](/[C:2](=[C:3](\[C:4]([C:5](=[C:6]([H:13])[H:14])[H:12])([H:9])[H:10])[H:8])[H:7])[H:11]"
O        1.29071557       0.13869350      -1.58223841
C        1.65437998       0.25846890      -0.37670240
C        0.93394165      -0.34511604       0.64629389
C       -0.26591584      -1.15552802       0.23300170
C       -1.06241828      -0.05526627      -0.49247673
C       -1.04543538       1.06055626       0.36503863
H        2.45747068       0.96274439      -0.12428330
H        1.28340118      -0.30470949       1.66941969
H       -0.00499776      -1.96671482      -0.44986942
H       -0.80460801      -1.57575472       1.08390055
H       -0.22545022       0.18786113      -1.34273014
H       -1.97457137      -0.23180284      -1.07003193
H       -1.38898715       2.03172325       0.01691456
H       -0.84752505       0.99484477       1.42376330
14
Frame=2 idx=003294 GeodesicLength=0.15041528309699242 rxn_smarts="[O:1]=[C:2]([C:3]1([H:8])[C:4]([H:9])([H:10])[C:5]([H:11])([H:12])[C:6]1([H:13])[H:14])[H:7]>>[O:1](/[C:2](=[C:3](\[C:4]([C:5](=[C:6]([H:13])[H:14])[H:12])([H:9])[H:10])[H:8])[H:7])[H:11]"
O        1.29936568       0.14775053      -1.58054072
C        1.66132082       0.25806669      -0.37224383
C        0.92263628      -0.33410371       0.64676461
C       -0.26842225      -1.15763295       0.23000643
C       -1.06988588      -0.05942908      -0.49228536
C       -1.03535195       1.05824561       0.36434032
H        2.45653265       0.96913311      -0.11377956
H        1.27439310      -0.30745279       1.66957730
H        0.00109689      -1.96049530      -0.45936745
H       -0.80223353      -1.59270731       1.07616955
H       -0.22966851       0.18421834      -1.36479710
H       -2.00031058      -0.24742740      -1.03463331
H       -1.35652646       2.03262194       0.00391022
H       -0.85294626       1.00921233       1.42687889
14
Frame=3 idx=003294 GeodesicLength=0.2255754327889982 rxn_smarts="[O:1]=[C:2]([C:3]1([H:8])[C:4]([H:9])([H:10])[C:5]([H:11])([H:12])[C:6]1([H:13])[H:14])[H:7]>>[O:1](/[C:2](=[C:3](\[C:4]([C:5](=[C:6]([H:13])[H:14])[H:12])([H:9])[H:10])[H:8])[H:7])[H:11]"
O        1.30788023       0.15752867      -1.57850991
C        1.66824974       0.25764852      -0.36747548
C        0.91134770      -0.32332128       0.64705467
C       -0.27095809      -1.15968928       0.22689796
C       -1.07763578      -0.06363187      -0.49208418
C       -1.02564996       1.05585663       0.36342553
H        2.45628113       0.97454234      -0.10290547
H        1.26506424      -0.31032720       1.66951000
H        0.00695956      -1.95400863      -0.46905466
H       -0.79948393      -1.60968684       1.06822640
H       -0.23377586       0.18075283      -1.38697957
H       -2.02532876      -0.26285669      -0.99795274
H       -1.32533534       2.03250201      -0.00931770
H       -0.85761489       1.02469080       1.42916516
14
Frame=4 idx=003294 GeodesicLength=0.30071264124032915 rxn_smarts="[O:1]=[C:2]([C:3]1([H:8])[C:4]([H:9])([H:10])[C:5]([H:11])([H:12])[C:6]1([H:13])[H:14])[H:7]>>[O:1](/[C:2](=[C:3](\[C:4]([C:5](=[C:6]([H:13])[H:14])[H:12])([H:9])[H:10])[H:8])[H:7])[H:11]"
O        1.31624579       0.16800357      -1.57613896
C        1.67515098       0.25719480      -0.36240868
C        0.90007830      -0.31278542       0.64716690
C       -0.27352755      -1.16171505       0.22367641
C       -1.08568848      -0.06789142      -0.49184279
C       -1.01631674       1.05338702       0.36231110
H        2.45663949       0.97903249      -0.09165087
H        1.25540951      -0.31330305       1.66922816
H        0.01257533      -1.94726444      -0.47894229
H       -0.79634769      -1.62672234       1.06006235
H       -0.23776715       0.17745980      -1.40928335
H       -2.04955090      -0.27806174      -0.96000840
H       -1.29536921       2.03142188      -0.02279234
H       -0.86153165       1.04124391       1.43062276
14
Frame=5 idx=003294 GeodesicLength=0.3758375050752926 rxn_smarts="[O:1]=[C:2]([C:3]1([H:8])[C:4]([H:9])([H:10])[C:5]([H:11])([H:12])[C:6]1([H:13])[H:14])[H:7]>>[O:1](/[C:2](=[C:3](\[C:4]([C:5](=[C:6]([H:13])[H:14])[H:12])([H:9])[H:10])[H:8])[H:7])[H:11]"
O        1.32444183       0.17915166      -1.57342381
C        1.68200260       0.25669378      -0.35705505
C        0.88882852      -0.30250884       0.64710648
C       -0.27613530      -1.16372698       0.22034541
C       -1.09406859      -0.07222460      -0.49152156
C       -1.00734465       1.05083378       0.36101754
H        2.45753539       0.98265691      -0.08000588
H        1.24542626      -0.31635318       1.66874291
H        0.01792904      -1.94026799      -0.48903990
H       -0.79281065      -1.64384294       1.05167187
H       -0.24164316       0.17433626      -1.43171186
H       -2.07289483      -0.29301621      -0.92084039
H       -1.26657090       2.02943320      -0.03653646
H       -0.86469556       1.05883513       1.43125071
14
Frame=6 idx=003294 GeodesicLength=0.4509477269268414 rxn_smarts="[O:1]=[C:2]([C:3]1([H:8])[C:4]([H:9])([H:10])[C:5]([H:11])([H:12])[C:6]1([H:13])[H:14])[H:7]>>[O:1](/[C:2](=[C:3](\[C:4]([C:5](=[C:6]([H:13])[H:14])[H:12])([H:9])[H:10])[H:8])[H:7])[H:11]"
O        1.33244958       0.19095218      -1.57034814
C        1.68879049       0.25612497      -0.35142632
C        0.87759965      -0.29250659       0.64688058
C       -0.27878714      -1.16574200       0.21690967
C       -1.10279128      -0.07664346      -0.49108233
C       -0.99872304       1.04819497       0.35956608
H        2.45888187       0.98547891      -0.06797302
H        1.23511621      -0.31945554       1.66807017
H        0.02300264      -1.93302450      -0.49935627
H       -0.78886530      -1.66107230       1.04304518
H       -0.24539653       0.17137455      -1.45426903
H       -2.09528377      -0.30768417      -0.88048694
H       -1.23889125       2.02657467      -0.05056833
H       -0.86710212       1.07742831       1.43103870
14
Frame=7 idx=003294 GeodesicLength=0.5260569687403372 rxn_smarts="[O:1]=[C:2]([C:3]1([H:8])[C:4]([H:9])([H:10])[C:5]([H:11])([H:12])[C:6]1([H:13])[H:14])[H:7]>>[O:1](/[C:2](=[C:3](\[C:4]([C:5](=[C:6]([H:13])[H:14])[H:12])([H:9])[H:10])[H:8])[H:7])[H:11]"
O        1.34025666       0.20335952      -1.56691398
C        1.69549338       0.25547495      -0.34553701
C        0.86639391      -0.28279300       0.64649365
C       -0.28148809      -1.16777638       0.21337843
C       -1.11188137      -0.08116313      -0.49048142
C       -0.99043675       1.04547023       0.35797716
H        2.46059446       0.98757160      -0.05554427
H        1.22448835      -0.32259756       1.66722012
H        0.02777575      -1.92554392      -0.50989134
H       -0.78450071      -1.67842940       1.03418406
H       -0.24902706       0.16857373      -1.47695666
H       -2.11663369      -0.32202547      -0.83903280
H       -1.21229518       2.02288267      -0.06489016
H       -0.86873965       1.09699617       1.42999422
14
Frame=8 idx=003294 GeodesicLength=0.6011624913394829 rxn_smarts="[O:1]=[C:2]([C:3]1([H:8])[C:4]([H:9])([H:10])[C:5]([H:11])([H:12])[C:6]1([H:13])[H:14])[H:7]>>[O:1](/[C:2](=[C:3](\[C:4]([C:5](=[C:6]([H:13])[H:14])[H:12])([H:9])[H:10])[H:8])[H:7])[H:11]"
O        1.34783916       0.21635505      -1.56309765
C        1.70209426       0.25472863      -0.33940077
C        0.85521144      -0.27337755       0.64595662
C       -0.28424464      -1.16984366       0.20976133
C       -1.12135350      -0.08579297      -0.48966961
C       -0.98247934       1.04265856       0.35627702
H        2.46258961       0.98898804      -0.04273158
H        1.21355085      -0.32576205       1.66620997
H        0.03222833      -1.91782562      -0.52064919
H       -0.77970922      -1.69593435       1.02507892
H       -0.25252730       0.16592719      -1.49977602
H       -2.13686558      -0.33600161      -0.79654318
H       -1.18673472       2.01838030      -0.07951521
H       -0.86959936       1.11750005       1.42809934
14
Frame=9 idx=003294 GeodesicLength=0.6763050870807882 rxn_smarts="[O:1]=[C:2]([C:3]1([H:8])[C:4]([H:9])([H:10])[C:5]([H:11])([H:12])[C:6]1([H:13])[H:14])[H:7]>>[O:1](/[C:2](=[C:3](\[C:4]([C:5](=[C:6]([H:13])[H:14])[H:12])([H:9])[H:10])[H:8])[H:7])[H:11]"
O        1.35520076       0.22989005      -1.55888534
C        1.70858060       0.25387732      -0.33302539
C        0.84406144      -0.26427716       0.64528731
C       -0.28705957      -1.17195815       0.20608021
C       -1.13121215      -0.09054234      -0.48855214
C       -0.97483127       1.03977183       0.35450707
H        2.46477925       0.98982441      -0.02953452
H        1.20231738      -0.32894175       1.66506659
H        0.03633285      -1.90987224      -0.53161830
H       -0.77449148      -1.71360663       1.01571481
H       -0.25588943       0.16344400      -1.52273475
H       -2.15601457      -0.34962068      -0.75317949
H       -1.16217547       2.01308292      -0.09437256
H       -0.86959833       1.13892841       1.42524650
14
Frame=10 idx=003294 GeodesicLength=0.7514476881956669 rxn_smarts="[O:1]=[C:2]([C:3]1([H:8])[C:4]([H:9])([H:10])[C:5]([H:11])([H:12])[C:6]1([H:13])[H:14])[H:7]>>[O:1](/[C:2](=[C:3](\[C:4]([C:5](=[C:6]([H:13])[H:14])[H:12])([H:9])[H:10])[H:8])[H:7])[H:11]"
O        1.36231689       0.24394516      -1.55427097
C        1.71493046       0.25291994      -0.32642582
C        0.83293651      -0.25548642       0.64448827
C       -0.28993961      -1.17412550       0.20233403
C       -1.14147659      -0.09541233      -0.48712047
C       -0.96749507       1.03680485       0.35267502
H        2.46713380       0.99008184      -0.01596330
H        1.19080064      -0.33212636       1.66379501
H        0.04007529      -1.90167805      -0.54280795
H       -0.76883483      -1.73144682       1.00608771
H       -0.25910920       0.16112015      -1.54583218
H       -2.17394637      -0.36283980      -0.70894155
H       -1.13858849       2.00701853      -0.10952368
H       -0.86880343       1.16122481       1.42150588
14
Frame=11 idx=003294 GeodesicLength=0.8265904226211037 rxn_smarts="[O:1]=[C:2]([C:3]1([H:8])[C:4]([H:9])([H:10])[C:5]([H:11])([H:12])[C:6]1([H:13])[H:14])[H:7]>>[O:1](/[C:2](=[C:3](\[C:4]([C:5](=[C:6]([H:13])[H:14])[H:12])([H:9])[H:10])[H:8])[H:7])[H:11]"
O        1.36918416       0.25848309      -1.54924957
C        1.72112953       0.25185589      -0.31961136
C        0.82183903      -0.24700762       0.64357097
C       -0.29288659      -1.17635256       0.19853420
C       -1.15215393      -0.10040590      -0.48532417
C       -0.96045849       1.03376328       0.35080317
H        2.46960207       0.98979875      -0.00202248
H        1.17901825      -0.33531189       1.66241091
H        0.04344081      -1.89323856      -0.55421540
H       -0.76273352      -1.74945772       0.99619238
H       -0.26217586       0.15896150      -1.56907404
H       -2.19064599      -0.37565004      -0.66392174
H       -1.11595464       2.00020588      -0.12495990
H       -0.86720482       1.18435588       1.41686703
14
Frame=12 idx=003294 GeodesicLength=0.9017377574209313 rxn_smarts="[O:1]=[C:2]([C:3]1([H:8])[C:4]([H:9])([H:10])[C:5]([H:11])([H:12])[C:6]1([H:13])[H:14])[H:7]>>[O:1](/[C:2](=[C:3](\[C:4]([C:5](=[C:6]([H:13])[H:14])[H:12])([H:9])[H:10])[H:8])[H:7])[H:11]"
O        1.37580374       0.27346802      -1.54381235
C        1.72716502       0.25068783      -0.31258839
C        0.81077018      -0.23884112       0.64254795
C       -0.29590300      -1.17864444       0.19469039
C       -1.16324958      -0.10552339      -0.48311064
C       -0.95371226       1.03065412       0.34891280
H        2.47214037       0.98901217       0.01228352
H        1.16698544      -0.33849710       1.66092987
H        0.04641102      -1.88454427      -0.56584150
H       -0.75618368      -1.76764064       0.98601309
H       -0.26507632       0.15697568      -1.59246933
H       -2.20610145      -0.38804760      -0.61818201
H       -1.09425090       1.99265743      -0.14068000
H       -0.86479857       1.20828331       1.41130661
14
Frame=13 idx=003294 GeodesicLength=0.9768917874723456 rxn_smarts="[O:1]=[C:2]([C:3]1([H:8])[C:4]([H:9])([H:10])[C:5]([H:11])([H:12])[C:6]1([H:13])[H:14])[H:7]>>[O:1](/[C:2](=[C:3](\[C:4]([C:5](=[C:6]([H:13])[H:14])[H:12])([H:9])[H:10])[H:8])[H:7])[H:11]"
O        1.38218610       0.28886159      -1.53795325
C        1.73302823       0.24941483      -0.30536374
C        0.79973066      -0.23098726       0.64143025
C       -0.29899144      -1.18100556       0.19080900
C       -1.17476693      -0.11076451      -0.48043410
C       -0.94724322       1.02748452       0.34702011
H        2.47470194       0.98776771       0.02695643
H        1.15471791      -0.34168655       1.65936601
H        0.04896784      -1.87558905      -0.57768492
H       -0.74918681      -1.78599305       0.97553291
H       -0.26779234       0.15517107      -1.61603073
H       -2.22031152      -0.40003053      -0.57176828
H       -1.07346455       1.98438500      -0.15667470
H       -0.86157587       1.23297179       1.40479501
14
Frame=14 idx=003294 GeodesicLength=1.052063192543657 rxn_smarts="[O:1]=[C:2]([C:3]1([H:8])[C:4]([H:9])([H:10])[C:5]([H:11])([H:12])[C:6]1([H:13])[H:14])[H:7]>>[O:1](/[C:2](=[C:3](\[C:4]([C:5](=[C:6]([H:13])[H:14])[H:12])([H:9])[H:10])[H:8])[H:7])[H:11]"
O        1.38833406       0.30462674      -1.53167224
C        1.73870650       0.24804654      -0.29794092
C        0.78872131      -0.22344191       0.64022991
C       -0.30215243      -1.18343753       0.18690117
C       -1.18671722      -0.11613098      -0.47723696
C       -0.94104007       1.02426424       0.34514427
H        2.47725601       0.98609205       0.04199465
H        1.14223315      -0.34488335       1.65773185
H        0.05109530      -1.86635909      -0.58974296
H       -0.74173856      -1.80451014       0.96474197
H       -0.27031042       0.15355901      -1.63977097
H       -2.23327533      -0.41160185      -0.52475213
H       -1.05357768       1.97539924      -0.17294378
H       -0.85753462       1.25837703       1.39731613
14
Frame=15 idx=003294 GeodesicLength=1.127261194048833 rxn_smarts="[O:1]=[C:2]([C:3]1([H:8])[C:4]([H:9])([H:10])[C:5]([H:11])([H:12])[C:6]1([H:13])[H:14])[H:7]>>[O:1](/[C:2](=[C:3](\[C:4]([C:5](=[C:6]([H:13])[H:14])[H:12])([H:9])[H:10])[H:8])[H:7])[H:11]"
O        1.39426069       0.32073618      -1.52495895
C        1.74419374       0.24658615      -0.29032076
C        0.77773927      -0.21620174       0.63896051
C       -0.30538986      -1.18594053       0.18296889
C       -1.19910449      -0.12162054      -0.47346873
C       -0.93509357       1.02100232       0.34329646
H        2.47977121       0.98401447       0.05740323
H        1.12953979      -0.34809520       1.65604306
H        0.05277233      -1.85683625      -0.60202265
H       -0.73383898      -1.82318803       0.95360974
H       -0.27260526       0.15215085      -1.66370829
H       -2.24499246      -0.42276773      -0.47712837
H       -1.03457989       1.96570109      -0.18949015
H       -0.85267252       1.28445896       1.38881602
14
Frame=16 idx=003294 GeodesicLength=1.2024940780457918 rxn_smarts="[O:1]=[C:2]([C:3]1([H:8])[C:4]([H:9])([H:10])[C:5]([H:11])([H:12])[C:6]1([H:13])[H:14])[H:7]>>[O:1](/[C:2](=[C:3](\[C:4]([C:5](=[C:6]([H:13])[H:14])[H:12])([H:9])[H:10])[H:8])[H:7])[H:11]"
O        1.39997827       0.33715894      -1.51781080
C        1.74948354       0.24503864      -0.28250533
C        0.76678295      -0.20926062       0.63763366
C       -0.30870593      -1.18851323       0.17901720
C       -1.21193775      -0.12723221      -0.46907515
C       -0.92939262       1.01770958       0.34148642
H        2.48222312       0.98156035       0.07318601
H        1.11665023      -0.35132835       1.65431130
H        0.05397867      -1.84700229      -0.61452559
H       -0.72548936      -1.84201666       0.94211320
H       -0.27465484       0.15095795      -1.68786219
H       -2.25546035      -0.43353689      -0.42891563
H       -1.01645940       1.95529414      -0.20631475
H       -0.84699653       1.31117066       1.37926164
