16
Frame=0 idx=001223 GeodesicLength=0.0 rxn_smarts="[C:1]([C:2]([C@@:3]([C:4]([H:13])([H:14])[H:15])([C:5](=[O:6])[H:16])[H:12])([H:10])[H:11])([H:7])([H:8])[H:9]>>[C:1]([C:2]([C@@:3]([C:4]([H:13])([H:14])[H:15])([O+:6]=[C-:5][H:16])[H:12])([H:10])[H:11])([H:7])([H:8])[H:9]"
C        1.95089609      -0.06204076      -0.33914986
C        0.72423773      -0.57879149       0.39445662
C       -0.60595924      -0.04394458      -0.12438537
C       -1.82907292      -0.55301018       0.57560770
C       -0.94881274       1.68304104      -0.67685564
O       -0.31657208       1.63334498       0.44020921
H        2.06416116       1.01250336      -0.19842257
H        2.85203571      -0.55114128       0.03229193
H        1.88468527      -0.26103578      -1.41174736
H        0.65289455      -1.66566212       0.26695645
H        0.80167714      -0.39158502       1.46668096
H       -0.60931766      -0.19214937      -1.21444955
H       -1.90631466      -0.09493251       1.56108218
H       -2.73094107      -0.33120537       0.01218725
H       -1.73557697      -1.63386941       0.71418301
H       -0.24802027       2.03047847      -1.49864495
16
Frame=1 idx=001223 GeodesicLength=0.052102102963886766 rxn_smarts="[C:1]([C:2]([C@@:3]([C:4]([H:13])([H:14])[H:15])([C:5](=[O:6])[H:16])[H:12])([H:10])[H:11])([H:7])([H:8])[H:9]>>[C:1]([C:2]([C@@:3]([C:4]([H:13])([H:14])[H:15])([O+:6]=[C-:5][H:16])[H:12])([H:10])[H:11])([H:7])([H:8])[H:9]"
C        1.95376689      -0.07028836      -0.33809834
C        0.72541042      -0.57871065       0.39881405
C       -0.60255829      -0.04439296      -0.12574289
C       -1.82685370      -0.55623434       0.57377138
C       -0.94455404       1.67714399      -0.68395401
O       -0.31585655       1.63952082       0.43156339
H        2.06795780       1.00558224      -0.20819261
H        2.85420254      -0.55586109       0.03973972
H        1.88894385      -0.28029089      -1.40866324
H        0.65436654      -1.66684176       0.28380615
H        0.80230098      -0.38077942       1.46930940
H       -0.60759426      -0.20685400      -1.21372231
H       -1.89863684      -0.11021517       1.56533840
H       -2.73076771      -0.32423004       0.01717762
H       -1.74136860      -1.63928043       0.69844952
H       -0.27875901       2.09173207      -1.49959624
16
Frame=2 idx=001223 GeodesicLength=0.10448865339885385 rxn_smarts="[C:1]([C:2]([C@@:3]([C:4]([H:13])([H:14])[H:15])([C:5](=[O:6])[H:16])[H:12])([H:10])[H:11])([H:7])([H:8])[H:9]>>[C:1]([C:2]([C@@:3]([C:4]([H:13])([H:14])[H:15])([O+:6]=[C-:5][H:16])[H:12])([H:10])[H:11])([H:7])([H:8])[H:9]"
C        1.95701875      -0.07927759      -0.33693541
C        0.72681725      -0.57877567       0.40333289
C       -0.59875311      -0.04514422      -0.12748067
C       -1.82443809      -0.55924966       0.57157795
C       -0.93890516       1.67080395      -0.69245757
O       -0.31491675       1.64552655       0.42210240
H        2.07195993       0.99795203      -0.21898689
H        2.85670026      -0.56081649       0.04790120
H        1.89381194      -0.30128836      -1.40515723
H        0.65591646      -1.66807250       0.30146414
H        0.80304280      -0.36956972       1.47188691
H       -0.60528442      -0.22249564      -1.21308555
H       -1.89088550      -0.12512360       1.56894149
H       -2.73015509      -0.31700952       0.02170705
H       -1.74719052      -1.64422456       0.68270778
H       -0.31473874       2.15676503      -1.49751850
16
Frame=3 idx=001223 GeodesicLength=0.15679842037197825 rxn_smarts="[C:1]([C:2]([C@@:3]([C:4]([H:13])([H:14])[H:15])([C:5](=[O:6])[H:16])[H:12])([H:10])[H:11])([H:7])([H:8])[H:9]>>[C:1]([C:2]([C@@:3]([C:4]([H:13])([H:14])[H:15])([O+:6]=[C-:5][H:16])[H:12])([H:10])[H:11])([H:7])([H:8])[H:9]"
C        1.96079717      -0.08904128      -0.33550660
C        0.72850614      -0.57906100       0.40796169
C       -0.59443005      -0.04609297      -0.12961815
C       -1.82178860      -0.56185887       0.56894289
C       -0.93153845       1.66422311      -0.70235175
O       -0.31334129       1.65143918       0.41174906
H        2.07644515       0.98950409      -0.23036295
H        2.85960087      -0.56620659       0.05684639
H        1.89944521      -0.32369898      -1.40111891
H        0.65749446      -1.66938278       0.31964897
H        0.80389259      -0.35821047       1.47438678
H       -0.60229373      -0.23895527      -1.21253710
H       -1.88302930      -0.13938534       1.57179047
H       -2.72901637      -0.30928910       0.02563091
H       -1.75308508      -1.64851354       0.66693741
H       -0.35765872       2.22452980      -1.49239912
16
Frame=4 idx=001223 GeodesicLength=0.20891297358093183 rxn_smarts="[C:1]([C:2]([C@@:3]([C:4]([H:13])([H:14])[H:15])([C:5](=[O:6])[H:16])[H:12])([H:10])[H:11])([H:7])([H:8])[H:9]>>[C:1]([C:2]([C@@:3]([C:4]([H:13])([H:14])[H:15])([O+:6]=[C-:5][H:16])[H:12])([H:10])[H:11])([H:7])([H:8])[H:9]"
C        1.96520267      -0.09970421      -0.33378695
C        0.73052685      -0.57956707       0.41270250
C       -0.58948325      -0.04723572      -0.13227164
C       -1.81886543      -0.56390391       0.56574632
C       -0.92200906       1.65739477      -0.71401251
O       -0.31105060       1.65726444       0.40032361
H        2.08158269       0.98008076      -0.24234756
H        2.86296511      -0.57217736       0.06662167
H        1.90594978      -0.34768973      -1.39648797
H        0.65909068      -1.67075883       0.33845218
H        0.80487159      -0.34661148       1.47677866
H       -0.59847541      -0.25631455      -1.21214852
H       -1.87509864      -0.15271375       1.57372408
H       -2.72724520      -0.30092241       0.02870896
H       -1.75905322      -1.65198648       0.65119415
H       -0.40890857       2.29484552      -1.48319697
16
Frame=5 idx=001223 GeodesicLength=0.26043666294935414 rxn_smarts="[C:1]([C:2]([C@@:3]([C:4]([H:13])([H:14])[H:15])([C:5](=[O:6])[H:16])[H:12])([H:10])[H:11])([H:7])([H:8])[H:9]>>[C:1]([C:2]([C@@:3]([C:4]([H:13])([H:14])[H:15])([O+:6]=[C-:5][H:16])[H:12])([H:10])[H:11])([H:7])([H:8])[H:9]"
C        1.97037413      -0.11134461      -0.33168942
C        0.73293120      -0.58030390       0.41752703
C       -0.58378027      -0.04846613      -0.13554260
C       -1.81562416      -0.56512670       0.56184807
C       -0.90978462       1.65049494      -0.72771384
O       -0.30778388       1.66309324       0.38768849
H        2.08767454       0.96955319      -0.25467587
H        2.86685680      -0.57896667       0.07726080
H        1.91344756      -0.37314526      -1.39120654
H        0.66064867      -1.67219075       0.35778234
H        0.80599471      -0.33481245       1.47903530
H       -0.59368804      -0.27450478      -1.21198701
H       -1.86707177      -0.16478274       1.57460167
H       -2.72472871      -0.29157425       0.03070956
H       -1.76514925      -1.65440382       0.63540527
H       -0.47031690       2.36648069      -1.46904324
16
Frame=6 idx=001223 GeodesicLength=0.31071694735128413 rxn_smarts="[C:1]([C:2]([C@@:3]([C:4]([H:13])([H:14])[H:15])([C:5](=[O:6])[H:16])[H:12])([H:10])[H:11])([H:7])([H:8])[H:9]>>[C:1]([C:2]([C@@:3]([C:4]([H:13])([H:14])[H:15])([O+:6]=[C-:5][H:16])[H:12])([H:10])[H:11])([H:7])([H:8])[H:9]"
C        1.97635422      -0.12396460      -0.32924251
C        0.73572411      -0.58121069       0.42235020
C       -0.57728135      -0.04983942      -0.13970812
C       -1.81205764      -0.56527965       0.55712607
C       -0.89410825       1.64347148      -0.74434559
O       -0.30378803       1.66885234       0.37349841
H        2.09499171       0.95782503      -0.26692243
H        2.87125832      -0.58687638       0.08848087
H        1.92188002      -0.39964423      -1.38536443
H        0.66215824      -1.67359073       0.37761919
H        0.80721905      -0.32263418       1.48102233
H       -0.58788393      -0.29379586      -1.21224448
H       -1.85904797      -0.17490088       1.57415948
H       -2.72138392      -0.28115479       0.03129505
H       -1.77131218      -1.65549746       0.62015272
H       -0.54272239       2.43824001      -1.44787675
16
Frame=7 idx=001223 GeodesicLength=0.3589257381193414 rxn_smarts="[C:1]([C:2]([C@@:3]([C:4]([H:13])([H:14])[H:15])([C:5](=[O:6])[H:16])[H:12])([H:10])[H:11])([H:7])([H:8])[H:9]>>[C:1]([C:2]([C@@:3]([C:4]([H:13])([H:14])[H:15])([O+:6]=[C-:5][H:16])[H:12])([H:10])[H:11])([H:7])([H:8])[H:9]"
C        1.98348953      -0.13763911      -0.32607825
C        0.73901390      -0.58230542       0.42712186
C       -0.56959606      -0.05025066      -0.14432407
C       -1.80802007      -0.56364717       0.55126667
C       -0.87489583       1.63792537      -0.76177648
O       -0.29726384       1.67536785       0.35876516
H        2.10416178       0.94479569      -0.27862063
H        2.87630715      -0.59625785       0.10080357
H        1.93169825      -0.42713428      -1.37866859
H        0.66324435      -1.67491356       0.39709853
H        0.80869939      -0.31088469       1.48287204
H       -0.58072541      -0.31223941      -1.21262398
H       -1.85078181      -0.18348712       1.57251666
H       -2.71695061      -0.26820043       0.03036093
H       -1.77786544      -1.65465356       0.60330126
H       -0.63051528       2.50352435      -1.42201470
16
Frame=8 idx=001223 GeodesicLength=0.40701284486950284 rxn_smarts="[C:1]([C:2]([C@@:3]([C:4]([H:13])([H:14])[H:15])([C:5](=[O:6])[H:16])[H:12])([H:10])[H:11])([H:7])([H:8])[H:9]>>[C:1]([C:2]([C@@:3]([C:4]([H:13])([H:14])[H:15])([O+:6]=[C-:5][H:16])[H:12])([H:10])[H:11])([H:7])([H:8])[H:9]"
C        1.99238092      -0.15347310      -0.32217439
C        0.74304410      -0.58355308       0.43186128
C       -0.56017533      -0.05038762      -0.15070411
C       -1.80325008      -0.55950099       0.54348025
C       -0.84947221       1.63267960      -0.78385628
O       -0.28825448       1.68201242       0.34116280
H        2.11599292       0.92928104      -0.29069376
H        2.88239245      -0.60794687       0.11486446
H        1.94366740      -0.45764647      -1.37072993
H        0.66400344      -1.67607178       0.41769956
H        0.81044877      -0.29827291       1.48423189
H       -0.57138636      -0.33158236      -1.21410519
H       -1.84251339      -0.18784706       1.56813364
H       -2.71087789      -0.25263377       0.02628754
H       -1.78463241      -1.65099119       0.58668964
H       -0.74136785       2.56593413      -1.38214741
16
Frame=9 idx=001223 GeodesicLength=0.45097110111127114 rxn_smarts="[C:1]([C:2]([C@@:3]([C:4]([H:13])([H:14])[H:15])([C:5](=[O:6])[H:16])[H:12])([H:10])[H:11])([H:7])([H:8])[H:9]>>[C:1]([C:2]([C@@:3]([C:4]([H:13])([H:14])[H:15])([O+:6]=[C-:5][H:16])[H:12])([H:10])[H:11])([H:7])([H:8])[H:9]"
C        2.00233103      -0.16982286      -0.31765914
C        0.74739138      -0.58450010       0.43615696
C       -0.54953351      -0.04823522      -0.15762801
C       -1.79805293      -0.55243010       0.53418769
C       -0.81951059       1.63104828      -0.80600003
O       -0.27621461       1.69030122       0.32403366
H        2.13032806       0.91284332      -0.30097372
H        2.88882289      -0.62149936       0.12933744
H        1.95660471      -0.48759335      -1.36231357
H        0.66375447      -1.67661145       0.43677265
H        0.81245803      -0.28621508       1.48521506
H       -0.56086421      -0.34800184      -1.21595807
H       -1.83399700      -0.19005379       1.56242136
H       -2.70370175      -0.23291576       0.02051823
H       -1.79204170      -1.64425229       0.56746211
H       -0.86777429       2.60793837      -1.33557263
16
Frame=10 idx=001223 GeodesicLength=0.49028034626583916 rxn_smarts="[C:1]([C:2]([C@@:3]([C:4]([H:13])([H:14])[H:15])([C:5](=[O:6])[H:16])[H:12])([H:10])[H:11])([H:7])([H:8])[H:9]>>[C:1]([C:2]([C@@:3]([C:4]([H:13])([H:14])[H:15])([O+:6]=[C-:5][H:16])[H:12])([H:10])[H:11])([H:7])([H:8])[H:9]"
C        2.01191285      -0.18504430      -0.31346640
C        0.75127667      -0.58446685       0.43953753
C       -0.53904673      -0.04413680      -0.16514904
C       -1.79295813      -0.54363694       0.52419790
C       -0.78792183       1.63311754      -0.82758527
O       -0.26395744       1.69957993       0.30814347
H        2.14522128       0.89723511      -0.31006952
H        2.89461418      -0.63473326       0.14297134
H        1.96892580      -0.51511966      -1.35444754
H        0.66256037      -1.67594570       0.45408447
H        0.81422330      -0.27390129       1.48535952
H       -0.55077931      -0.36144431      -1.21839720
H       -1.82581324      -0.19081701       1.55604886
H       -2.69636066      -0.21125790       0.01411084
H       -1.79959556      -1.63560687       0.54747725
H       -0.99230156       2.62617831      -1.28281621
16
Frame=11 idx=001223 GeodesicLength=0.5278087208147477 rxn_smarts="[C:1]([C:2]([C@@:3]([C:4]([H:13])([H:14])[H:15])([C:5](=[O:6])[H:16])[H:12])([H:10])[H:11])([H:7])([H:8])[H:9]>>[C:1]([C:2]([C@@:3]([C:4]([H:13])([H:14])[H:15])([O+:6]=[C-:5][H:16])[H:12])([H:10])[H:11])([H:7])([H:8])[H:9]"
C        2.02070475      -0.19834320      -0.30948488
C        0.75459256      -0.58360170       0.44210480
C       -0.52905966      -0.03741887      -0.17176278
C       -1.78818691      -0.53353732       0.51444551
C       -0.75645333       1.63949521      -0.84497015
O       -0.25134566       1.71053551       0.29588613
H        2.16049545       0.88313624      -0.31573663
H        2.89943675      -0.64832468       0.15422774
H        1.97950622      -0.53725519      -1.34763942
H        0.66023703      -1.67418164       0.46795908
H        0.81592615      -0.26303763       1.48510725
H       -0.54183678      -0.37013689      -1.22020149
H       -1.81772796      -0.19241162       1.55041772
H       -2.68938121      -0.18749255       0.00895260
H       -1.80760595      -1.62534343       0.52531686
H       -1.10930146       2.61791777      -1.23462236
16
Frame=12 idx=001223 GeodesicLength=0.565225653772397 rxn_smarts="[C:1]([C:2]([C@@:3]([C:4]([H:13])([H:14])[H:15])([C:5](=[O:6])[H:16])[H:12])([H:10])[H:11])([H:7])([H:8])[H:9]>>[C:1]([C:2]([C@@:3]([C:4]([H:13])([H:14])[H:15])([O+:6]=[C-:5][H:16])[H:12])([H:10])[H:11])([H:7])([H:8])[H:9]"
C        2.02798555      -0.20945261      -0.30635840
C        0.75698764      -0.58173159       0.44392421
C       -0.52039204      -0.02955315      -0.17802152
C       -1.78400533      -0.52386387       0.50530735
C       -0.72799323       1.64851197      -0.85941459
O       -0.24034265       1.72185873       0.28594631
H        2.17403872       0.87117009      -0.32134845
H        2.90307577      -0.65960211       0.16403545
H        1.98824411      -0.55652925      -1.34183827
H        0.65741805      -1.67134191       0.48022781
H        0.81722267      -0.25205775       1.48428465
H       -0.53466288      -0.37611592      -1.22191398
H       -1.81024034      -0.19538686       1.54556633
H       -2.68332570      -0.16442234       0.00525574
H       -1.81546922      -1.61525314       0.50290402
H       -1.20854111       2.59376971      -1.18855666
16
Frame=13 idx=001223 GeodesicLength=0.6034298467784822 rxn_smarts="[C:1]([C:2]([C@@:3]([C:4]([H:13])([H:14])[H:15])([C:5](=[O:6])[H:16])[H:12])([H:10])[H:11])([H:7])([H:8])[H:9]>>[C:1]([C:2]([C@@:3]([C:4]([H:13])([H:14])[H:15])([O+:6]=[C-:5][H:16])[H:12])([H:10])[H:11])([H:7])([H:8])[H:9]"
C        2.03394597      -0.21867878      -0.30387519
C        0.75866190      -0.57924788       0.44525136
C       -0.51291135      -0.02086931      -0.18359066
C       -1.78036225      -0.51488110       0.49704834
C       -0.70252046       1.65949212      -0.87082670
O       -0.23079313       1.73361647       0.27836388
H        2.18610284       0.86104941      -0.32621645
H        2.90573749      -0.66932789       0.17220357
H        1.99517136      -0.57270965      -1.33703237
H        0.65427339      -1.66788150       0.49086233
H        0.81828457      -0.24153556       1.48324754
H       -0.52915032      -0.37990277      -1.22324279
H       -1.80318208      -0.20002858       1.54175206
H       -2.67819030      -0.14232063       0.00327602
H       -1.82321697      -1.60560457       0.48043978
H       -1.29185068       2.55883021      -1.14766072
16
Frame=14 idx=001223 GeodesicLength=0.6423401510294893 rxn_smarts="[C:1]([C:2]([C@@:3]([C:4]([H:13])([H:14])[H:15])([C:5](=[O:6])[H:16])[H:12])([H:10])[H:11])([H:7])([H:8])[H:9]>>[C:1]([C:2]([C@@:3]([C:4]([H:13])([H:14])[H:15])([O+:6]=[C-:5][H:16])[H:12])([H:10])[H:11])([H:7])([H:8])[H:9]"
C        2.03861073      -0.22615983      -0.30204492
C        0.75974858      -0.57639230       0.44627214
C       -0.50651970      -0.01165113      -0.18810015
C       -1.77722469      -0.50677512       0.48993800
C       -0.67924216       1.67185148      -0.87901328
O       -0.22324250       1.74562750       0.27367429
H        2.19671809       0.85264251      -0.33003958
H        2.90748148      -0.67801398       0.17825310
H        2.00017593      -0.58553696      -1.33335214
H        0.65095072      -1.66405083       0.49982783
H        0.81920489      -0.23181300       1.48217497
H       -0.52514379      -0.38191570      -1.22377346
H       -1.79681171      -0.20636676       1.53909169
H       -2.67376772      -0.12161132       0.00287650
H       -1.83073917      -1.59653607       0.45842795
H       -1.36019897       2.51670151      -1.11421294
16
Frame=15 idx=001223 GeodesicLength=0.6820320682028629 rxn_smarts="[C:1]([C:2]([C@@:3]([C:4]([H:13])([H:14])[H:15])([C:5](=[O:6])[H:16])[H:12])([H:10])[H:11])([H:7])([H:8])[H:9]>>[C:1]([C:2]([C@@:3]([C:4]([H:13])([H:14])[H:15])([O+:6]=[C-:5][H:16])[H:12])([H:10])[H:11])([H:7])([H:8])[H:9]"
C        2.04236236      -0.23252337      -0.30062056
C        0.76030227      -0.57314837       0.44702254
C       -0.50101155      -0.00245614      -0.19241370
C       -1.77445898      -0.49961704       0.48337397
C       -0.65900431       1.68465692      -0.88583284
O       -0.21663392       1.75744315       0.26947842
H        2.20589685       0.84535945      -0.33438562
H        2.90861910      -0.68487495       0.18394863
H        2.00426275      -0.59745620      -1.32995733
H        0.64758355      -1.65980351       0.50842089
H        0.81981520      -0.22193554       1.48084640
H       -0.52220865      -0.38335737      -1.22416170
H       -1.79048601      -0.21434935       1.53693575
H       -2.67010789      -0.10202783       0.00407234
H       -1.83821377      -1.58809853       0.43645819
H       -1.41671700       2.47218868      -1.08318537
16
Frame=16 idx=001223 GeodesicLength=0.7220378570861751 rxn_smarts="[C:1]([C:2]([C@@:3]([C:4]([H:13])([H:14])[H:15])([C:5](=[O:6])[H:16])[H:12])([H:10])[H:11])([H:7])([H:8])[H:9]>>[C:1]([C:2]([C@@:3]([C:4]([H:13])([H:14])[H:15])([O+:6]=[C-:5][H:16])[H:12])([H:10])[H:11])([H:7])([H:8])[H:9]"
C        2.04526279      -0.23779990      -0.29959983
C        0.76049022      -0.56975011       0.44765672
C       -0.49629622       0.00669543      -0.19610531
C       -1.77206048      -0.49335622       0.47764401
C       -0.64066179       1.69782719      -0.89092865
O       -0.21157894       1.76917352       0.26674843
H        2.21391890       0.83918441      -0.33829426
H        2.90924210      -0.69083507       0.18844275
H        2.00713692      -0.60748131      -1.32722077
H        0.64429277      -1.65542312       0.51628832
H        0.82032749      -0.21243452       1.47953343
H       -0.52031978      -0.38426819      -1.22403361
H       -1.78445394      -0.22384334       1.53553901
H       -2.66702491      -0.08359877       0.00669582
H       -1.84559049      -1.58026040       0.41491773
H       -1.46268464       2.42617039      -1.05728379
