13
Frame=0 idx=000732 GeodesicLength=0.0 rxn_smarts="[O:1]([C:2]([C:3]1([H:9])[C:4]([H:10])([H:11])[C:5]1([H:12])[H:13])([H:7])[H:8])[H:6]>>[C:2]([H:7])[H:8].[O:1]([C:3]1([H:9])[C:4]([H:10])([H:11])[C:5]1([H:12])[H:13])[H:6]"
O        1.31254958      -0.74081139       0.11858871
C        1.59669715       0.75369104       0.44107051
C        0.00712569       0.10543235      -0.58172710
C       -1.23963840       0.52955333       0.07118143
C       -1.17474954      -0.84241677      -0.57545484
H        1.11356126      -1.25845780       0.90838112
H        2.67536415       0.87313022       0.30660404
H        1.33923756       0.89662276       1.49413029
H        0.31249641       0.50783740      -1.52906373
H       -1.25165334       0.53735305       1.15421043
H       -1.80676399       1.33779479      -0.37633895
H       -1.20848568      -1.69616499       0.09080406
H       -1.67574087      -1.00356398      -1.52238602
13
Frame=1 idx=000732 GeodesicLength=0.043210589110001106 rxn_smarts="[O:1]([C:2]([C:3]1([H:9])[C:4]([H:10])([H:11])[C:5]1([H:12])[H:13])([H:7])[H:8])[H:6]>>[C:2]([H:7])[H:8].[O:1]([C:3]1([H:9])[C:4]([H:10])([H:11])[C:5]1([H:12])[H:13])[H:6]"
O        1.32630576      -0.74523315       0.11639369
C        1.58285954       0.74431166       0.46651494
C        0.01122974       0.10301220      -0.57628558
C       -1.24046430       0.53719854       0.06369458
C       -1.17378965      -0.83936283      -0.57060048
H        1.11457008      -1.27405613       0.89489579
H        2.64302333       0.91834832       0.26583134
H        1.36834036       0.85577219       1.53232928
H        0.31861983       0.49916472      -1.52652913
H       -1.26292505       0.55472563       1.14641614
H       -1.80320945       1.34073107      -0.39733590
H       -1.21372817      -1.68711849       0.10298158
H       -1.67083201      -1.00749373      -1.51830625
13
Frame=2 idx=000732 GeodesicLength=0.08654340856312531 rxn_smarts="[O:1]([C:2]([C:3]1([H:9])[C:4]([H:10])([H:11])[C:5]1([H:12])[H:13])([H:7])[H:8])[H:6]>>[C:2]([H:7])[H:8].[O:1]([C:3]1([H:9])[C:4]([H:10])([H:11])[C:5]1([H:12])[H:13])[H:6]"
O        1.34039690      -0.74978880       0.11366379
C        1.56967094       0.73371422       0.49153519
C        0.01550557       0.10040117      -0.57103511
C       -1.24065115       0.54509696       0.05608182
C       -1.17283234      -0.83618454      -0.56535243
H        1.11607674      -1.28997359       0.88022524
H        2.60470774       0.96461465       0.22956001
H        1.39940210       0.81458776       1.56749268
H        0.32479223       0.49013715      -1.52419629
H       -1.27312061       0.57286364       1.13828546
H       -1.79887392       1.34369544      -0.41845084
H       -1.21884565      -1.67761033       0.11573619
H       -1.66622855      -1.01155371      -1.51354571
13
Frame=3 idx=000732 GeodesicLength=0.13014014284212297 rxn_smarts="[O:1]([C:2]([C:3]1([H:9])[C:4]([H:10])([H:11])[C:5]1([H:12])[H:13])([H:7])[H:8])[H:6]>>[C:2]([H:7])[H:8].[O:1]([C:3]1([H:9])[C:4]([H:10])([H:11])[C:5]1([H:12])[H:13])[H:6]"
O        1.35489846      -0.75437911       0.11030087
C        1.55709821       0.72204367       0.51602853
C        0.01991147       0.09766486      -0.56604461
C       -1.24032843       0.55328582       0.04829128
C       -1.17189354      -0.83289684      -0.55966866
H        1.11823547      -1.30614444       0.86430500
H        2.56082523       1.01137572       0.19829813
H        1.43240887       0.77319656       1.59955112
H        0.33095569       0.48080690      -1.52220745
H       -1.28237988       0.59184757       1.12980044
H       -1.79400031       1.34666962      -0.43980735
H       -1.22378173      -1.66763361       0.12921559
H       -1.66194949      -1.01583673      -1.50806290
13
Frame=4 idx=000732 GeodesicLength=0.17409371822921801 rxn_smarts="[O:1]([C:2]([C:3]1([H:9])[C:4]([H:10])([H:11])[C:5]1([H:12])[H:13])([H:7])[H:8])[H:6]>>[C:2]([H:7])[H:8].[O:1]([C:3]1([H:9])[C:4]([H:10])([H:11])[C:5]1([H:12])[H:13])[H:6]"
O        1.36978292      -0.75889366       0.10632003
C        1.54509190       0.70941057       0.53996950
C        0.02439456       0.09482560      -0.56131755
C       -1.23954978       0.56172685       0.04029257
C       -1.17098905      -0.82950165      -0.55357439
H        1.12102864      -1.32239940       0.84714195
H        2.51177143       1.05807674       0.17231799
H        1.46737213       0.73191254       1.62842272
H        0.33701878       0.47117403      -1.52055549
H       -1.29073415       0.61165149       1.12091396
H       -1.78868902       1.34955568      -0.46142885
H       -1.22847934      -1.65716427       0.14337333
H       -1.65801902      -1.02037452      -1.50187578
13
Frame=5 idx=000732 GeodesicLength=0.21848714057856877 rxn_smarts="[O:1]([C:2]([C:3]1([H:9])[C:4]([H:10])([H:11])[C:5]1([H:12])[H:13])([H:7])[H:8])[H:6]>>[C:2]([H:7])[H:8].[O:1]([C:3]1([H:9])[C:4]([H:10])([H:11])[C:5]1([H:12])[H:13])[H:6]"
O        1.38504667      -0.76321334       0.10164495
C        1.53354496       0.69590882       0.56325738
C        0.02890406       0.09193906      -0.55690956
C       -1.23838819       0.57042092       0.03202201
C       -1.17011299      -0.82600173      -0.54701716
H        1.12454414      -1.33863164       0.82868980
H        2.45798086       1.10422752       0.15209276
H        1.50421628       0.69083673       1.65396396
H        0.34291626       0.46130830      -1.51932997
H       -1.29826121       0.63229223       1.11156303
H       -1.78307372       1.35230036      -0.48343314
H       -1.23287935      -1.64617263       0.15835511
H       -1.65443777      -1.02521461      -1.49489919
13
Frame=6 idx=000732 GeodesicLength=0.26322110326136766 rxn_smarts="[O:1]([C:2]([C:3]1([H:9])[C:4]([H:10])([H:11])[C:5]1([H:12])[H:13])([H:7])[H:8])[H:6]>>[C:2]([H:7])[H:8].[O:1]([C:3]1([H:9])[C:4]([H:10])([H:11])[C:5]1([H:12])[H:13])[H:6]"
O        1.40067017      -0.76737579       0.09622668
C        1.52234914       0.68172534       0.58583530
C        0.03344045       0.08904443      -0.55284124
C       -1.23695001       0.57944414       0.02352878
C       -1.16924783      -0.82250853      -0.54001247
H        1.12871122      -1.35488050       0.80893397
H        2.40007113       1.14936212       0.13775155
H        1.54273569       0.65036216       1.67606354
H        0.34874339       0.45128629      -1.51856514
H       -1.30517456       0.65386498       1.10181765
H       -1.77726630       1.35506525      -0.50571463
H       -1.23697321      -1.63487155       0.17412540
H       -1.65110928      -1.03051835      -1.48714939
13
Frame=7 idx=000732 GeodesicLength=0.3084220320345504 rxn_smarts="[O:1]([C:2]([C:3]1([H:9])[C:4]([H:10])([H:11])[C:5]1([H:12])[H:13])([H:7])[H:8])[H:6]>>[C:2]([H:7])[H:8].[O:1]([C:3]1([H:9])[C:4]([H:10])([H:11])[C:5]1([H:12])[H:13])[H:6]"
O        1.41633231      -0.77088713       0.09041634
C        1.51145331       0.66687697       0.60782100
C        0.03780290       0.08613189      -0.54895196
C       -1.23511214       0.58836860       0.01472292
C       -1.16842344      -0.81877682      -0.53274729
H        1.13333850      -1.37030622       0.78809651
H        2.33852992       1.19227618       0.12931176
H        1.58311826       0.61110452       1.69457640
H        0.35400695       0.44102980      -1.51783197
H       -1.31104125       0.67582704       1.09138820
H       -1.77122742       1.35703200      -0.52824391
H       -1.24056594      -1.62274670       0.19020188
H       -1.64821195      -1.03593012      -1.47875988
13
Frame=8 idx=000732 GeodesicLength=0.35413533240091555 rxn_smarts="[O:1]([C:2]([C:3]1([H:9])[C:4]([H:10])([H:11])[C:5]1([H:12])[H:13])([H:7])[H:8])[H:6]>>[C:2]([H:7])[H:8].[O:1]([C:3]1([H:9])[C:4]([H:10])([H:11])[C:5]1([H:12])[H:13])[H:6]"
O        1.43237196      -0.77410165       0.08398255
C        1.50083314       0.65142912       0.62928573
C        0.04213849       0.08327096      -0.54541676
C       -1.23319461       0.59756427       0.00560313
C       -1.16770304      -0.81504773      -0.52508557
H        1.13864337      -1.38559458       0.76613682
H        2.27372757       1.23349327       0.12673628
H        1.62528524       0.57280926       1.70968823
H        0.35923672       0.43076475      -1.51759190
H       -1.31653407       0.69863516       1.08051067
H       -1.76526656       1.35890238      -0.55122556
H       -1.24390977      -1.61030388       0.20708505
H       -1.64562845      -1.04182133      -1.46970866
13
Frame=9 idx=000732 GeodesicLength=0.40058044665559506 rxn_smarts="[O:1]([C:2]([C:3]1([H:9])[C:4]([H:10])([H:11])[C:5]1([H:12])[H:13])([H:7])[H:8])[H:6]>>[C:2]([H:7])[H:8].[O:1]([C:3]1([H:9])[C:4]([H:10])([H:11])[C:5]1([H:12])[H:13])[H:6]"
O        1.44856704      -0.77688654       0.07715240
C        1.49024745       0.63536843       0.65025485
C        0.04638553       0.08044632      -0.54209000
C       -1.23111092       0.60689272      -0.00378888
C       -1.16693017      -0.81120140      -0.51711311
H        1.14442710      -1.40045838       0.74313389
H        2.20583578       1.27202954       0.12975230
H        1.66898544       0.53613088       1.72114420
H        0.36428790       0.42048818      -1.51749118
H       -1.32151566       0.72205210       1.06907453
H       -1.75929340       1.36046366      -0.57444914
H       -1.24674857      -1.59738470       0.22443410
H       -1.64313751      -1.04794079      -1.46001396
13
Frame=10 idx=000732 GeodesicLength=0.4476908164095275 rxn_smarts="[O:1]([C:2]([C:3]1([H:9])[C:4]([H:10])([H:11])[C:5]1([H:12])[H:13])([H:7])[H:8])[H:6]>>[C:2]([H:7])[H:8].[O:1]([C:3]1([H:9])[C:4]([H:10])([H:11])[C:5]1([H:12])[H:13])[H:6]"
O        1.46493647      -0.77914030       0.06991471
C        1.47976141       0.61870958       0.67087954
C        0.05050796       0.07769172      -0.53900310
C       -1.22894978       0.61630336      -0.01353557
C       -1.16625449      -0.80726849      -0.50884824
H        1.15073338      -1.41482355       0.71910236
H        2.13544809       1.30777338       0.13854928
H        1.71431822       0.50116565       1.72899526
H        0.36916940       0.41030098      -1.51758712
H       -1.32605123       0.74606887       1.05703418
H       -1.75342195       1.36157471      -0.59809923
H       -1.24925429      -1.58395768       0.24233325
H       -1.64094320      -1.05439824      -1.44973533
13
Frame=11 idx=000732 GeodesicLength=0.4955704865630124 rxn_smarts="[O:1]([C:2]([C:3]1([H:9])[C:4]([H:10])([H:11])[C:5]1([H:12])[H:13])([H:7])[H:8])[H:6]>>[C:2]([H:7])[H:8].[O:1]([C:3]1([H:9])[C:4]([H:10])([H:11])[C:5]1([H:12])[H:13])[H:6]"
O        1.48141785      -0.78086278       0.06238839
C        1.46927775       0.60142595       0.69124236
C        0.05450463       0.07501289      -0.53610545
C       -1.22672323       0.62577052      -0.02361080
C       -1.16563884      -0.80323308      -0.50033790
H        1.15747546      -1.42866695       0.69411617
H        2.06284255       1.34025111       0.15289817
H        1.76109372       0.46834095       1.73314519
H        0.37392916       0.40028478      -1.51776979
H       -1.33017763       0.77060454       1.04439037
H       -1.74765295       1.36223785      -0.62209535
H       -1.25139350      -1.57004698       0.26066343
H       -1.63895498      -1.06111881      -1.43892479
13
Frame=12 idx=000732 GeodesicLength=0.5443067955928531 rxn_smarts="[O:1]([C:2]([C:3]1([H:9])[C:4]([H:10])([H:11])[C:5]1([H:12])[H:13])([H:7])[H:8])[H:6]>>[C:2]([H:7])[H:8].[O:1]([C:3]1([H:9])[C:4]([H:10])([H:11])[C:5]1([H:12])[H:13])[H:6]"
O        1.49792287      -0.78211486       0.05474673
C        1.45870993       0.58351010       0.71138238
C        0.05838970       0.07239463      -0.53333654
C       -1.22443737       0.63525260      -0.03391999
C       -1.16503098      -0.79907788      -0.49167305
H        1.16450778      -1.44196625       0.66835793
H        1.98836718       1.36893565       0.17237380
H        1.80901172       0.43824624       1.73348993
H        0.37865480       0.39050793      -1.51792450
H       -1.33394958       0.79549185       1.03123587
H       -1.74195486       1.36250361      -0.64622769
H       -1.25314615      -1.55573502       0.27919962
H       -1.63704504      -1.06794861      -1.42770449
13
Frame=13 idx=000732 GeodesicLength=0.5939730836923767 rxn_smarts="[O:1]([C:2]([C:3]1([H:9])[C:4]([H:10])([H:11])[C:5]1([H:12])[H:13])([H:7])[H:8])[H:6]>>[C:2]([H:7])[H:8].[O:1]([C:3]1([H:9])[C:4]([H:10])([H:11])[C:5]1([H:12])[H:13])[H:6]"
O        1.51446961      -0.78288454       0.04704778
C        1.44809219       0.56487175       0.73141689
C        0.06216405       0.06985125      -0.53067514
C       -1.22212249       0.64472476      -0.04449750
C       -1.16449150      -0.79479703      -0.48286761
H        1.17185597      -1.45471830       0.64185890
H        1.91235499       1.39361993       0.19691612
H        1.85791670       0.41111921       1.72999926
H        0.38338801       0.38107317      -1.51800670
H       -1.33737961       0.82069495       1.01752991
H       -1.73636144       1.36233434      -0.67056922
H       -1.25459807      -1.54100965       0.29795097
H       -1.63528839      -1.07487987      -1.41610365
13
Frame=14 idx=000732 GeodesicLength=0.6446316697305885 rxn_smarts="[O:1]([C:2]([C:3]1([H:9])[C:4]([H:10])([H:11])[C:5]1([H:12])[H:13])([H:7])[H:8])[H:6]>>[C:2]([H:7])[H:8].[O:1]([C:3]1([H:9])[C:4]([H:10])([H:11])[C:5]1([H:12])[H:13])[H:6]"
O        1.53097223      -0.78319127       0.03939956
C        1.43739250       0.54545931       0.75140843
C        0.06583942       0.06736897      -0.52806706
C       -1.21972832       0.65414355      -0.05527819
C       -1.16399666      -0.79037073      -0.47397972
H        1.17941186      -1.46689729       0.61467090
H        1.83513151       1.41388478       0.22620493
H        1.90739220       0.38745934       1.72262927
H        0.38817222       0.37202467      -1.51790818
H       -1.34039995       0.84610311       1.00332538
H       -1.73079007       1.36171659      -0.69497696
H       -1.25575264      -1.52588636       0.31676617
H       -1.63364430      -1.08181468      -1.40419453
13
Frame=15 idx=000732 GeodesicLength=0.6962135761741833 rxn_smarts="[O:1]([C:2]([C:3]1([H:9])[C:4]([H:10])([H:11])[C:5]1([H:12])[H:13])([H:7])[H:8])[H:6]>>[C:2]([H:7])[H:8].[O:1]([C:3]1([H:9])[C:4]([H:10])([H:11])[C:5]1([H:12])[H:13])[H:6]"
O        1.54740963      -0.78320511       0.03202543
C        1.42668299       0.52529312       0.77136965
C        0.06942730       0.06494216      -0.52548982
C       -1.21728738       0.66349378      -0.06613616
C       -1.16356511      -0.78583331      -0.46514844
H        1.18709499      -1.47859077       0.58713878
H        1.75729356       1.42939390       0.25962740
H        1.95700636       0.36789185       1.71146321
H        0.39305256       0.36348166      -1.51764112
H       -1.34303982       0.87149573       0.98884301
H       -1.72527146       1.36085118      -0.71923689
H       -1.25667152      -1.51061625       0.33541507
H       -1.63213209      -1.08859792      -1.39223013
13
Frame=16 idx=000732 GeodesicLength=0.7491635121789566 rxn_smarts="[O:1]([C:2]([C:3]1([H:9])[C:4]([H:10])([H:11])[C:5]1([H:12])[H:13])([H:7])[H:8])[H:6]>>[C:2]([H:7])[H:8].[O:1]([C:3]1([H:9])[C:4]([H:10])([H:11])[C:5]1([H:12])[H:13])[H:6]"
O        1.56380343      -0.78281515       0.02477242
C        1.41587531       0.50409570       0.79125038
C        0.07301831       0.06256293      -0.52286628
C       -1.21470823       0.67273395      -0.07709958
C       -1.16309256      -0.78102767      -0.45620092
H        1.19494358      -1.48963129       0.55890535
H        1.67875708       1.43984520       0.29721939
H        2.00597752       0.35236699       1.69629180
H        0.39820684       0.35538520      -1.51697325
H       -1.34524735       0.89696308       0.97386924
H       -1.71966197       1.35947632      -0.74336265
H       -1.25731542      -1.49479512       0.35404783
H       -1.63055652      -1.09516015      -1.37985373
