17
Frame=0 idx=011519 GeodesicLength=0.0 rxn_smarts="[C:1]([C@@:2]1([H:11])[N:3]([H:12])[C@:4]1([C@@:5]1([H:14])[C:6]([H:15])([H:16])[N:7]1[H:17])[H:13])([H:8])([H:9])[H:10]>>[C:1]([C@@:2]1([H:11])[N:3]([H:12])[C:4]1=[C:5]([H:13])[H:14])([H:8])([H:9])[H:10].[C:6](=[N:7][H:17])([H:15])[H:16]"
C       -2.19488463      -0.16648992       0.00041600
C       -1.22645364      -0.37239912      -1.13020115
N       -0.24106149       0.69233417      -1.48858410
C        0.18912577      -0.38732908      -0.79495038
C        1.21067730      -0.71092730       0.09350395
C        2.01359243       0.39270420       0.85780375
N        1.21415903       0.50674734       1.99154024
H       -2.94280041       0.58449505      -0.26196031
H       -1.67194083       0.15253029       0.90576976
H       -2.71583610      -1.09912002       0.22009380
H       -1.58207920      -0.90012896      -2.00720860
H       -0.24602062       1.57521200      -0.98370935
H        1.48596217      -1.03220474      -1.07342382
H        1.09282710      -1.65392005       0.61591585
H        3.00519221      -0.01322576       1.07759956
H        2.14230832       1.25903202       0.18537502
H        0.46723267       1.17268993       1.79201986
17
Frame=1 idx=011519 GeodesicLength=0.10234973706552279 rxn_smarts="[C:1]([C@@:2]1([H:11])[N:3]([H:12])[C@:4]1([C@@:5]1([H:14])[C:6]([H:15])([H:16])[N:7]1[H:17])[H:13])([H:8])([H:9])[H:10]>>[C:1]([C@@:2]1([H:11])[N:3]([H:12])[C:4]1=[C:5]([H:13])[H:14])([H:8])([H:9])[H:10].[C:6](=[N:7][H:17])([H:15])[H:16]"
C       -2.19444955      -0.17961211       0.00412695
C       -1.22886567      -0.36763968      -1.13213577
N       -0.24741018       0.70293548      -1.47898561
C        0.18920142      -0.39313403      -0.80772572
C        1.20254300      -0.71953609       0.08951865
C        2.02621869       0.39910163       0.86528315
N        1.18454448       0.52900979       1.96279546
H       -2.94956684       0.56744694      -0.24873487
H       -1.67189525       0.13620162       0.91061841
H       -2.70681212      -1.11827238       0.21867925
H       -1.58967732      -0.88306936      -2.01452583
H       -0.24956040       1.57074776      -0.94816725
H        1.48237994      -1.03535139      -1.09041429
H        1.08084595      -1.66522054       0.60653280
H        2.99574269      -0.03882742       1.11697455
H        2.19536867       1.25812565       0.19404387
H        0.48139250       1.23709413       1.75211628
17
Frame=2 idx=011519 GeodesicLength=0.20469105883733058 rxn_smarts="[C:1]([C@@:2]1([H:11])[N:3]([H:12])[C@:4]1([C@@:5]1([H:14])[C:6]([H:15])([H:16])[N:7]1[H:17])[H:13])([H:8])([H:9])[H:10]>>[C:1]([C@@:2]1([H:11])[N:3]([H:12])[C:4]1=[C:5]([H:13])[H:14])([H:8])([H:9])[H:10].[C:6](=[N:7][H:17])([H:15])[H:16]"
C       -2.19382681      -0.19195799       0.00787659
C       -1.23139520      -0.36323976      -1.13381410
N       -0.25377933       0.71259613      -1.47017663
C        0.18915345      -0.39896726      -0.82081409
C        1.19426557      -0.72811640       0.08514401
C        2.03853957       0.40607395       0.87343352
N        1.15595766       0.55110698       1.93283194
H       -2.95607581       0.55082127      -0.23610892
H       -1.67149420       0.12151259       0.91509971
H       -2.69757130      -1.13631925       0.21820237
H       -1.59770953      -0.86701012      -2.02085691
H       -0.25283728       1.56525386      -0.91492801
H        1.47895100      -1.03792908      -1.10801707
H        1.06918305      -1.67668385       0.59641504
H        2.98435058      -0.06234612       1.15611091
H        2.24737976       1.25780771       0.20568583
H        0.49690881       1.29739734       1.71391582
17
Frame=3 idx=011519 GeodesicLength=0.307056641889684 rxn_smarts="[C:1]([C@@:2]1([H:11])[N:3]([H:12])[C@:4]1([C@@:5]1([H:14])[C:6]([H:15])([H:16])[N:7]1[H:17])[H:13])([H:8])([H:9])[H:10]>>[C:1]([C@@:2]1([H:11])[N:3]([H:12])[C:4]1=[C:5]([H:13])[H:14])([H:8])([H:9])[H:10].[C:6](=[N:7][H:17])([H:15])[H:16]"
C       -2.19307294      -0.20366367       0.01165488
C       -1.23405024      -0.35918090      -1.13527517
N       -0.26020269       0.72143043      -1.46208148
C        0.18895190      -0.40479040      -0.83416680
C        1.18581115      -0.73669419       0.08040759
C        2.05068379       0.41357942       0.88223773
N        1.12853538       0.57317855       1.90158794
H       -2.96237847       0.53453738      -0.22399628
H       -1.67082634       0.10818490       0.91927975
H       -2.68817388      -1.15344369       0.21850413
H       -1.60612852      -0.85187854      -2.02632554
H       -0.25595380       1.55889427      -0.88380773
H        1.47557765      -1.04000894      -1.12620304
H        1.05773918      -1.68829232       0.58564393
H        2.97114878      -0.08404632       1.19496383
H        2.29865381       1.25803742       0.22026116
H        0.51368525       1.35415659       1.67731510
17
Frame=4 idx=011519 GeodesicLength=0.4094749782253442 rxn_smarts="[C:1]([C@@:2]1([H:11])[N:3]([H:12])[C@:4]1([C@@:5]1([H:14])[C:6]([H:15])([H:16])[N:7]1[H:17])[H:13])([H:8])([H:9])[H:10]>>[C:1]([C@@:2]1([H:11])[N:3]([H:12])[C:4]1=[C:5]([H:13])[H:14])([H:8])([H:9])[H:10].[C:6](=[N:7][H:17])([H:15])[H:16]"
C       -2.19221872      -0.21481817       0.01546824
C       -1.23683641      -0.35545584      -1.13654981
N       -0.26670531       0.72951510      -1.45466844
C        0.18857634      -0.41059109      -0.84775805
C        1.17716046      -0.74530133       0.07531954
C        2.06274161       0.42159275       0.89168970
N        1.10239051       0.59531175       1.86901847
H       -2.96849541       0.51856076      -0.21231410
H       -1.66993397       0.09601688       0.92321792
H       -2.67866323      -1.16976458       0.21949039
H       -1.61490581      -0.83763819      -2.03102194
H       -0.25898548       1.55180424      -0.85469311
H        1.47219123      -1.04165393      -1.14496910
H        1.04645734      -1.70005254       0.57427143
H        2.95623681      -0.10411324       1.23348200
H        2.34939850       1.25881035       0.23779035
H        0.53159157       1.40777707       1.64222653
17
Frame=5 idx=011519 GeodesicLength=0.5119522969224987 rxn_smarts="[C:1]([C@@:2]1([H:11])[N:3]([H:12])[C@:4]1([C@@:5]1([H:14])[C:6]([H:15])([H:16])[N:7]1[H:17])[H:13])([H:8])([H:9])[H:10]>>[C:1]([C@@:2]1([H:11])[N:3]([H:12])[C:4]1=[C:5]([H:13])[H:14])([H:8])([H:9])[H:10].[C:6](=[N:7][H:17])([H:15])[H:16]"
C       -2.19127627      -0.22548970       0.01933327
C       -1.23975822      -0.35205393      -1.13765596
N       -0.27330313       0.73690937      -1.44791034
C        0.18801169      -0.41636243      -0.86156943
C        1.16829755      -0.75396452       0.06988321
C        2.07478613       0.43009449       0.90179155
N        1.07763301       0.61758361       1.83506351
H       -2.97442854       0.50286703      -0.20097126
H       -1.66882557       0.08484083       0.92696361
H       -2.66906521      -1.18536927       0.22109659
H       -1.62402923      -0.82424874      -2.03500696
H       -0.26198505       1.54409540      -0.82749010
H        1.46873452      -1.04291172      -1.16431232
H        1.03528481      -1.71196298       0.56233495
H        2.93968873      -0.12268074       1.27162416
H        2.39977775       1.26011399       0.25833879
H        0.55045702       1.45853931       1.60848672
17
Frame=6 idx=011519 GeodesicLength=0.614492563225071 rxn_smarts="[C:1]([C@@:2]1([H:11])[N:3]([H:12])[C@:4]1([C@@:5]1([H:14])[C:6]([H:15])([H:16])[N:7]1[H:17])[H:13])([H:8])([H:9])[H:10]>>[C:1]([C@@:2]1([H:11])[N:3]([H:12])[C:4]1=[C:5]([H:13])[H:14])([H:8])([H:9])[H:10].[C:6](=[N:7][H:17])([H:15])[H:16]"
C       -2.19024119      -0.23571414       0.02327813
C       -1.24281976      -0.34897109      -1.13860582
N       -0.28000674       0.74364815      -1.44181013
C        0.18724741      -0.42211260      -0.87559548
C        1.15921664      -0.76271464       0.06409007
C        2.08686822       0.43907478       0.91255682
N        1.05436771       0.64002510       1.79967802
H       -2.98016135       0.48746314      -0.18987693
H       -1.66747795       0.07454359       0.93056191
H       -2.65939402      -1.20030310       0.22330121
H       -1.63350106      -0.81169467      -2.03831826
H       -0.26498395       1.53586433      -0.80215416
H        1.46516651      -1.04382366      -1.18424641
H        1.02419916      -1.72403858       0.54984743
H        2.92156622      -0.13984131       1.30933626
H        2.44988275       1.26196615       0.28202904
H        0.57007140       1.50662855       1.57592828
17
Frame=7 idx=011519 GeodesicLength=0.7170917344747029 rxn_smarts="[C:1]([C@@:2]1([H:11])[N:3]([H:12])[C@:4]1([C@@:5]1([H:14])[C:6]([H:15])([H:16])[N:7]1[H:17])[H:13])([H:8])([H:9])[H:10]>>[C:1]([C@@:2]1([H:11])[N:3]([H:12])[C:4]1=[C:5]([H:13])[H:14])([H:8])([H:9])[H:10].[C:6](=[N:7][H:17])([H:15])[H:16]"
C       -2.18909362      -0.24550288       0.02734050
C       -1.24602376      -0.34620592      -1.13940473
N       -0.28682058       0.74974873      -1.43638962
C        0.18627527      -0.42785858      -0.88983903
C        1.14991679      -0.77158408       0.05792176
C        2.09902073       0.44852946       0.92400898
N        1.03269929       0.66262698       1.76282593
H       -2.98566158       0.47237468      -0.17893901
H       -1.66584083       0.06505721       0.93405167
H       -2.64964914      -1.21457974       0.22611782
H       -1.64333498      -0.79997362      -2.04097215
H       -0.26799383       1.52719479      -0.77867368
H        1.46145379      -1.04442355      -1.20479515
H        1.01319487      -1.73630209       0.53679940
H        2.90192269      -0.15565429       1.34655416
H        2.49974594       1.26440341       0.30903794
H        0.59018895       1.55214949       1.54435522
17
Frame=8 idx=011519 GeodesicLength=0.8197732476499509 rxn_smarts="[C:1]([C@@:2]1([H:11])[N:3]([H:12])[C@:4]1([C@@:5]1([H:14])[C:6]([H:15])([H:16])[N:7]1[H:17])[H:13])([H:8])([H:9])[H:10]>>[C:1]([C@@:2]1([H:11])[N:3]([H:12])[C:4]1=[C:5]([H:13])[H:14])([H:8])([H:9])[H:10].[C:6](=[N:7][H:17])([H:15])[H:16]"
C       -2.18781149      -0.25484201       0.03157091
C       -1.24937046      -0.34376894      -1.14005856
N       -0.29373189       0.75521274      -1.43170314
C        0.18509323      -0.43363939      -0.90431913
C        1.14040563      -0.78062147       0.05134378
C        2.11126116       0.45846734       0.93617647
N        1.01271845       0.68532993       1.72450262
H       -2.99089065       0.45765936      -0.16806312
H       -1.66385508       0.05636443       0.93747605
H       -2.63983932      -1.22818840       0.22960126
H       -1.65355033      -0.78911375      -2.04297683
H       -0.27099687       1.51817160      -0.75707722
H        1.45757970      -1.04475905      -1.22600965
H        1.00228776      -1.74881290       0.52315384
H        2.88081598      -0.17016315       1.38318308
H        2.54934048       1.26752853       0.33959502
H        0.61054373       1.59517513       1.51360463
17
Frame=9 idx=011519 GeodesicLength=0.9224183561175051 rxn_smarts="[C:1]([C@@:2]1([H:11])[N:3]([H:12])[C@:4]1([C@@:5]1([H:14])[C:6]([H:15])([H:16])[N:7]1[H:17])[H:13])([H:8])([H:9])[H:10]>>[C:1]([C@@:2]1([H:11])[N:3]([H:12])[C:4]1=[C:5]([H:13])[H:14])([H:8])([H:9])[H:10].[C:6](=[N:7][H:17])([H:15])[H:16]"
C       -2.18632931      -0.26369949       0.03600101
C       -1.25286759      -0.34164368      -1.14055623
N       -0.30077204       0.76002135      -1.42778082
C        0.18368052      -0.43946347      -0.91902765
C        1.13068381      -0.78983663       0.04434577
C        2.12358698       0.46887543       0.94910887
N        0.99457031       0.70803758       1.68468186
H       -2.99578564       0.44334752      -0.15718429
H       -1.66139866       0.04847128       0.94082979
H       -2.62988678      -1.24106757       0.23379754
H       -1.66418991      -0.77909883      -2.04429903
H       -0.27399515       1.50882154      -0.73739143
H        1.45349323      -1.04482033      -1.24788334
H        0.99151237      -1.76155038       0.50888862
H        2.85832925      -0.18337492       1.41912451
H        2.59853487       1.27133556       0.37396663
H        0.63083373       1.63564504       1.48337820
17
Frame=10 idx=011519 GeodesicLength=1.0251111366647945 rxn_smarts="[C:1]([C@@:2]1([H:11])[N:3]([H:12])[C@:4]1([C@@:5]1([H:14])[C:6]([H:15])([H:16])[N:7]1[H:17])[H:13])([H:8])([H:9])[H:10]>>[C:1]([C@@:2]1([H:11])[N:3]([H:12])[C:4]1=[C:5]([H:13])[H:14])([H:8])([H:9])[H:10].[C:6](=[N:7][H:17])([H:15])[H:16]"
C       -2.18462780      -0.27200643       0.04070539
C       -1.25650799      -0.33986953      -1.14090436
N       -0.30788790       0.76414343      -1.42474122
C        0.18204774      -0.44542622      -0.93401531
C        1.12078394      -0.79932211       0.03685526
C        2.13598987       0.47979418       0.96282906
N        0.97830527       0.73057888       1.64342394
H       -3.00028869       0.42958676      -0.14620122
H       -1.65840713       0.04145034       0.94416923
H       -2.61984518      -1.25314892       0.23883753
H       -1.67527922      -0.77002257      -2.04493130
H       -0.27689938       1.49922739      -0.71971535
H        1.44920628      -1.04470519      -1.27052874
H        0.98093509      -1.77465704       0.49391255
H        2.83456168      -0.19531805       1.45420126
H        2.64716633       1.27610473       0.41249281
H        0.65074710       1.67359036       1.45361047
17
Frame=11 idx=011519 GeodesicLength=1.1277978550006444 rxn_smarts="[C:1]([C@@:2]1([H:11])[N:3]([H:12])[C@:4]1([C@@:5]1([H:14])[C:6]([H:15])([H:16])[N:7]1[H:17])[H:13])([H:8])([H:9])[H:10]>>[C:1]([C@@:2]1([H:11])[N:3]([H:12])[C:4]1=[C:5]([H:13])[H:14])([H:8])([H:9])[H:10].[C:6](=[N:7][H:17])([H:15])[H:16]"
C       -2.18264427      -0.27970031       0.04573330
C       -1.26029530      -0.33845099      -1.14109612
N       -0.31507999       0.76754198      -1.42265582
C        0.18017860      -0.45157948      -0.94930489
C        1.11071748      -0.80912352       0.02882568
C        2.14844506       0.49123376       0.97738511
N        0.96402906       0.75279095       1.60073917
H       -3.00432932       0.41645567      -0.13503956
H       -1.65475865       0.03537553       0.94749665
H       -2.60965930      -1.26434747       0.24482425
H       -1.68686748      -0.76191100      -2.04483577
H       -0.27965739       1.48941482      -0.70411155
H        1.44467785      -1.04444777      -1.29399485
H        0.97061311      -1.78817702       0.47815270
H        2.80962398      -0.20600702       1.48825765
H        2.69499653       1.28195836       0.45555251
H        0.67001001       1.70897352       1.42407155
17
Frame=12 idx=011519 GeodesicLength=1.2305058764158023 rxn_smarts="[C:1]([C@@:2]1([H:11])[N:3]([H:12])[C@:4]1([C@@:5]1([H:14])[C:6]([H:15])([H:16])[N:7]1[H:17])[H:13])([H:8])([H:9])[H:10]>>[C:1]([C@@:2]1([H:11])[N:3]([H:12])[C:4]1=[C:5]([H:13])[H:14])([H:8])([H:9])[H:10].[C:6](=[N:7][H:17])([H:15])[H:16]"
C       -2.18033722      -0.28671123       0.05114959
C       -1.26422544      -0.33741073      -1.14113975
N       -0.32231150       0.77018461      -1.42162907
C        0.17806886      -0.45801446      -0.96494867
C        1.10050478      -0.81932764       0.02018855
C        2.16092948       0.50323274       0.99280949
N        0.95182090       0.77449706       1.55666777
H       -3.00784315       0.40407708      -0.12360867
H       -1.65035976       0.03033531       0.95084396
H       -2.59932811      -1.27459004       0.25188434
H       -1.69899241      -0.75481664      -2.04400244
H       -0.28217499       1.47943312      -0.69065700
H        1.43988240      -1.04415298      -1.31838237
H        0.96060050      -1.80222161       0.46152878
H        2.78364935      -0.21548479       1.52109153
H        2.74172661       1.28914225       0.50355247
H        0.68838969       1.74182795       1.39465149
17
Frame=13 idx=011519 GeodesicLength=1.3330766592677519 rxn_smarts="[C:1]([C@@:2]1([H:11])[N:3]([H:12])[C@:4]1([C@@:5]1([H:14])[C:6]([H:15])([H:16])[N:7]1[H:17])[H:13])([H:8])([H:9])[H:10]>>[C:1]([C@@:2]1([H:11])[N:3]([H:12])[C:4]1=[C:5]([H:13])[H:14])([H:8])([H:9])[H:10].[C:6](=[N:7][H:17])([H:15])[H:16]"
C       -2.17761656      -0.29297208       0.05697128
C       -1.26831340      -0.33673244      -1.14101134
N       -0.32962598       0.77201123      -1.42168529
C        0.17567662      -0.46476647      -0.98094286
C        1.09014886      -0.82995182       0.01090943
C        2.17340029       0.51579332       1.00914935
N        0.94180663       0.79552012       1.51116667
H       -3.01075073       0.39249320      -0.11187017
H       -1.64505135       0.02640679       0.95414778
H       -2.58872901      -1.28375375       0.26008321
H       -1.71172242      -0.74871478      -2.04235069
H       -0.28442248       1.46923361      -0.67938155
H        1.43473167      -1.04383251      -1.34368839
H        0.95096179      -1.81676487       0.44397581
H        2.75681334      -0.22374932       1.55251706
H        2.78697087       1.29769088       0.55693417
H        0.70572185       1.77208889       1.36507552
17
Frame=14 idx=011519 GeodesicLength=1.43562099492603 rxn_smarts="[C:1]([C@@:2]1([H:11])[N:3]([H:12])[C@:4]1([C@@:5]1([H:14])[C:6]([H:15])([H:16])[N:7]1[H:17])[H:13])([H:8])([H:9])[H:10]>>[C:1]([C@@:2]1([H:11])[N:3]([H:12])[C:4]1=[C:5]([H:13])[H:14])([H:8])([H:9])[H:10].[C:6](=[N:7][H:17])([H:15])[H:16]"
C       -2.17445357      -0.29839759       0.06328038
C       -1.27254522      -0.33645553      -1.14073407
N       -0.33694050       0.77298803      -1.42295973
C        0.17300627      -0.47197971      -0.99737905
C        1.07968242      -0.84113447       0.00088553
C        2.18583395       0.52900249       1.02640942
N        0.93405429       0.81568009       1.46427347
H       -3.01297267       0.38189564      -0.09970453
H       -1.63875378       0.02368489       0.95747193
H       -2.57792269      -1.29176430       0.26956780
H       -1.72508930      -0.74367422      -2.03989536
H       -0.28623705       1.45886979      -0.67036841
H        1.42919352      -1.04370116      -1.37008477
H        0.94173579      -1.83198274       0.42541273
H        2.72931068      -0.23086656       1.58224909
H        2.83026527       1.30799450       0.61619822
H        0.72183259       1.79984084       1.33537736
17
Frame=15 idx=011519 GeodesicLength=1.538090659551567 rxn_smarts="[C:1]([C@@:2]1([H:11])[N:3]([H:12])[C@:4]1([C@@:5]1([H:14])[C:6]([H:15])([H:16])[N:7]1[H:17])[H:13])([H:8])([H:9])[H:10]>>[C:1]([C@@:2]1([H:11])[N:3]([H:12])[C:4]1=[C:5]([H:13])[H:14])([H:8])([H:9])[H:10].[C:6](=[N:7][H:17])([H:15])[H:16]"
C       -2.17076520      -0.30290888       0.07012076
C       -1.27692598      -0.33658310      -1.14030157
N       -0.34425214       0.77305653      -1.42551938
C        0.17002350      -0.47974624      -1.01430610
C        1.06912015      -0.85294915      -0.00996387
C        2.19818842       0.54291252       1.04460547
N        0.92868338       0.83482605       1.41590816
H       -3.01441100       0.37239299      -0.08703017
H       -1.63131419       0.02225548       0.96079494
H       -2.56683620      -1.29850935       0.28044114
H       -1.73915929      -0.73969263      -2.03658295
H       -0.28752260       1.44830756      -0.66366670
H        1.42316936      -1.04389075      -1.39766089
H        0.93296427      -1.84792331       0.40576709
H        2.70136475      -0.23687514       1.61002318
H        2.87104466       1.32023313       0.68193359
H        0.73662812       1.82509430       1.30543730
17
Frame=16 idx=011519 GeodesicLength=1.6404732305491743 rxn_smarts="[C:1]([C@@:2]1([H:11])[N:3]([H:12])[C@:4]1([C@@:5]1([H:14])[C:6]([H:15])([H:16])[N:7]1[H:17])[H:13])([H:8])([H:9])[H:10]>>[C:1]([C@@:2]1([H:11])[N:3]([H:12])[C:4]1=[C:5]([H:13])[H:14])([H:8])([H:9])[H:10].[C:6](=[N:7][H:17])([H:15])[H:16]"
C       -2.16646483      -0.30641247       0.07754864
C       -1.28145229      -0.33712390      -1.13970937
N       -0.35153233       0.77215215      -1.42944885
C        0.16669973      -0.48818796      -1.03179178
C        1.05849068      -0.86549658      -0.02174007
C        2.21043166       0.55761161       1.06372080
N        0.92583421       0.85281247       1.36595131
H       -3.01494282       0.36414765      -0.07374108
H       -1.62256910       0.02219600       0.96411170
H       -2.55542897      -1.30386205       0.29281389
H       -1.75399658      -0.73676707      -2.03236059
H       -0.28814573       1.43751094      -0.65934127
H        1.41654950      -1.04460947      -1.42654520
H        0.92467838      -1.86465923       0.38498120
H        2.67324913      -0.24182008       1.63550516
H        2.90858456       1.33465442       0.75481530
H        0.75001481       1.84785355       1.27523020
