13
Frame=0 idx=003445 GeodesicLength=0.0 rxn_smarts="[N:1]([C:2](=[O:3])[C:4]1([H:9])[C:5]([H:10])([H:11])[C:6]1([H:12])[H:13])([H:7])[H:8]>>[C:2](#[O+:3])[C@:4]1([H:9])[C-:5]([H:10])[C:6]1([H:12])[H:13].[N:1]([H:7])([H:8])[H:11]"
N        1.47166501      -0.75590435      -0.43055582
C        0.89548191       0.60688413       0.05227934
O        1.35832406       1.61682173      -0.38007502
C       -0.27508057       0.18788801       0.78324589
C       -1.00672536      -0.42326573      -0.47547589
C       -1.68425812       0.53983483       0.48168513
H        1.96340467      -1.26225845       0.29737533
H        2.07587108      -0.63218129      -1.23524279
H       -0.10190741      -0.57885365       1.53211499
H       -0.74314058       0.19675155      -1.34671415
H        0.35630196      -1.19485330      -0.61166066
H       -2.39652493       0.16145636       1.20795480
H       -1.91341169       1.53768018       0.12506886
13
Frame=1 idx=003445 GeodesicLength=0.10774271604020358 rxn_smarts="[N:1]([C:2](=[O:3])[C:4]1([H:9])[C:5]([H:10])([H:11])[C:6]1([H:12])[H:13])([H:7])[H:8]>>[C:2](#[O+:3])[C@:4]1([H:9])[C-:5]([H:10])[C:6]1([H:12])[H:13].[N:1]([H:7])([H:8])[H:11]"
N        1.48811731      -0.75985052      -0.43184924
C        0.89280780       0.61280427       0.06063152
O        1.33904836       1.62420050      -0.38323690
C       -0.27841511       0.18312196       0.78229592
C       -1.01827693      -0.42338184      -0.47316980
C       -1.68720648       0.54504522       0.48077971
H        1.97454743      -1.27119477       0.29575963
H        2.10071827      -0.62742704      -1.22843385
H       -0.10234977      -0.58144467       1.53243523
H       -0.75976099       0.18885225      -1.35078210
H        0.35192369      -1.21155346      -0.62451948
H       -2.39993412       0.17197845       1.20924316
H       -1.90121945       1.54884966       0.13084622
13
Frame=2 idx=003445 GeodesicLength=0.21542726171790866 rxn_smarts="[N:1]([C:2](=[O:3])[C:4]1([H:9])[C:5]([H:10])([H:11])[C:6]1([H:12])[H:13])([H:7])[H:8]>>[C:2](#[O+:3])[C@:4]1([H:9])[C-:5]([H:10])[C:6]1([H:12])[H:13].[N:1]([H:7])([H:8])[H:11]"
N        1.50499041      -0.76368539      -0.43304290
C        0.89007594       0.61896931       0.06908320
O        1.31985702       1.63124414      -0.38657548
C       -0.28175482       0.17840183       0.78116384
C       -1.03005248      -0.42334235      -0.47088496
C       -1.69015363       0.55036474       0.47995254
H        1.98574559      -1.28032941       0.29419073
H        2.12606647      -0.62248249      -1.22116338
H       -0.10276416      -0.58396603       1.53258140
H       -0.77683234       0.18104044      -1.35483968
H        0.34716920      -1.22858093      -0.63783084
H       -2.40317395       0.18258580       1.21072209
H       -1.88917326       1.55978035       0.13664344
13
Frame=3 idx=003445 GeodesicLength=0.3230763974475543 rxn_smarts="[N:1]([C:2](=[O:3])[C:4]1([H:9])[C:5]([H:10])([H:11])[C:6]1([H:12])[H:13])([H:7])[H:8]>>[C:2](#[O+:3])[C@:4]1([H:9])[C-:5]([H:10])[C:6]1([H:12])[H:13].[N:1]([H:7])([H:8])[H:11]"
N        1.52231069      -0.76739954      -0.43412406
C        0.88728130       0.62539328       0.07763577
O        1.30075721       1.63795311      -0.39010487
C       -0.28509592       0.17372879       0.77983651
C       -1.04205776      -0.42314225      -0.46862315
C       -1.69309851       0.55579122       0.47920867
H        1.99700162      -1.28967251       0.29266286
H        2.15193981      -0.61733740      -1.21340118
H       -0.10314525      -0.58641636       1.53254027
H       -0.79437446       0.17332102      -1.35888611
H        0.34199762      -1.24597050      -0.65160770
H       -2.40623586       0.19327193       1.21240161
H       -1.87728049       1.57047922       0.14246136
13
Frame=4 idx=003445 GeodesicLength=0.43071491315845756 rxn_smarts="[N:1]([C:2](=[O:3])[C:4]1([H:9])[C:5]([H:10])([H:11])[C:6]1([H:12])[H:13])([H:7])[H:8]>>[C:2](#[O+:3])[C@:4]1([H:9])[C-:5]([H:10])[C:6]1([H:12])[H:13].[N:1]([H:7])([H:8])[H:11]"
N        1.54010366      -0.77098332      -0.43508137
C        0.88441691       0.63208989       0.08628721
O        1.28175421       1.64432448      -0.39384556
C       -0.28843496       0.16910317       0.77829707
C       -1.05430179      -0.42277700      -0.46638660
C       -1.69604140       0.56132259       0.47855177
H        2.00831648      -1.29923631       0.29116902
H        2.17838029      -0.61197030      -1.20510503
H       -0.10348772      -0.58879284       1.53229622
H       -0.81241152       0.16569782      -1.36292174
H        0.33635758      -1.26376392      -0.66586369
H       -2.40910842       0.20403213       1.21429326
H       -1.86554333       1.58095360       0.14830942
13
Frame=5 idx=003445 GeodesicLength=0.538360010710704 rxn_smarts="[N:1]([C:2](=[O:3])[C:4]1([H:9])[C:5]([H:10])([H:11])[C:6]1([H:12])[H:13])([H:7])[H:8]>>[C:2](#[O+:3])[C@:4]1([H:9])[C-:5]([H:10])[C:6]1([H:12])[H:13].[N:1]([H:7])([H:8])[H:11]"
N        1.55840308      -0.77442059      -0.43589598
C        0.88147688       0.63907407       0.09503871
O        1.26285509       1.65035817      -0.39780942
C       -0.29176723       0.16452448       0.77653243
C       -1.06679026      -0.42224191      -0.46417595
C       -1.69898052       0.56695725       0.47798746
H        2.01969593      -1.30903111       0.28970377
H        2.20541368      -0.60637115      -1.19625187
H       -0.10378534      -0.59109695       1.53183517
H       -0.83096161       0.15817398      -1.36694593
H        0.33019561      -1.28199921      -0.68061186
H       -2.41178510       0.21486165       1.21640719
H       -1.85397019       1.59121132       0.15418629
13
Frame=6 idx=003445 GeodesicLength=0.6460277025437068 rxn_smarts="[N:1]([C:2](=[O:3])[C:4]1([H:9])[C:5]([H:10])([H:11])[C:6]1([H:12])[H:13])([H:7])[H:8]>>[C:2](#[O+:3])[C@:4]1([H:9])[C-:5]([H:10])[C:6]1([H:12])[H:13].[N:1]([H:7])([H:8])[H:11]"
N        1.57723982      -0.77769979      -0.43655573
C        0.87845357       0.64636173       0.10388635
O        1.24406121       1.65605018      -0.40202471
C       -0.29508742       0.15999349       0.77452190
C       -1.07953356      -0.42153114      -0.46199423
C       -1.70191530       0.57269355       0.47752060
H        2.03113854      -1.31907360       0.28825263
H        2.23308809      -0.60051174      -1.18677605
H       -0.10403051      -0.59332799       1.53113615
H       -0.85005511       0.15075606      -1.37095818
H        0.32345226      -1.30072656      -0.69586918
H       -2.41424905       0.22575558       1.21875889
H       -1.84256254       1.60126024       0.16010156
13
Frame=7 idx=003445 GeodesicLength=0.7537308687698655 rxn_smarts="[N:1]([C:2](=[O:3])[C:4]1([H:9])[C:5]([H:10])([H:11])[C:6]1([H:12])[H:13])([H:7])[H:8]>>[C:2](#[O+:3])[C@:4]1([H:9])[C-:5]([H:10])[C:6]1([H:12])[H:13].[N:1]([H:7])([H:8])[H:11]"
N        1.59665026      -0.78080180      -0.43703730
C        0.87533841       0.65397267       0.11283341
O        1.22538155       1.66139657      -0.40650677
C       -0.29839035       0.15550889       0.77224873
C       -1.09253892      -0.42063933      -0.45984269
C       -1.70484463       0.57852880       0.47715546
H        2.04265214      -1.32937410       0.28680795
H        2.26144031      -0.59437682      -1.17665191
H       -0.10421655      -0.59548599       1.53018203
H       -0.86971526       0.14345120      -1.37495561
H        0.31605983      -1.31999512      -0.71164773
H       -2.41649117       0.23670769       1.22135829
H       -1.83132563       1.61110734       0.16605614
13
Frame=8 idx=003445 GeodesicLength=0.861477327383205 rxn_smarts="[N:1]([C:2](=[O:3])[C:4]1([H:9])[C:5]([H:10])([H:11])[C:6]1([H:12])[H:13])([H:7])[H:8]>>[C:2](#[O+:3])[C@:4]1([H:9])[C-:5]([H:10])[C:6]1([H:12])[H:13].[N:1]([H:7])([H:8])[H:11]"
N        1.61667468      -0.78370839      -0.43732117
C        0.87212116       0.66192391       0.12187194
O        1.20681773       1.66638879      -0.41128686
C       -0.30166960       0.15106983       0.76968905
C       -1.10582069      -0.41956016      -0.45772474
C       -1.70776596       0.58446281       0.47690063
H        2.05423905      -1.33995039       0.28535190
H        2.29052168      -0.58793431      -1.16580275
H       -0.10433369      -0.59757257       1.52894678
H       -0.88997615       0.13626624      -1.37893801
H        0.30794711      -1.33986222      -0.72796987
H       -2.41849378       0.24771301       1.22422416
H       -1.82026155       1.62076346       0.17205894
13
Frame=9 idx=003445 GeodesicLength=0.9692409459654296 rxn_smarts="[N:1]([C:2](=[O:3])[C:4]1([H:9])[C:5]([H:10])([H:11])[C:6]1([H:12])[H:13])([H:7])[H:8]>>[C:2](#[O+:3])[C@:4]1([H:9])[C-:5]([H:10])[C:6]1([H:12])[H:13].[N:1]([H:7])([H:8])[H:11]"
N        1.63735370      -0.78639654      -0.43737681
C        0.86879373       0.67023758       0.13100965
O        1.18838056       1.67102158      -0.41637587
C       -0.30491847       0.14667483       0.76682790
C       -1.11938271      -0.41828817      -0.45563955
C       -1.71067698       0.59049182       0.47676021
H        2.06590620      -1.35081488       0.28387000
H        2.32036223      -0.58117099      -1.15421171
H       -0.10437387      -0.59958752       1.52741477
H       -0.91085946       0.12921156      -1.38289975
H        0.29904194      -1.36037503      -0.74484399
H       -2.42024816       0.25876471       1.22736518
H       -1.80937870       1.63023105       0.17809998
13
Frame=10 idx=003445 GeodesicLength=1.0770691378457595 rxn_smarts="[N:1]([C:2](=[O:3])[C:4]1([H:9])[C:5]([H:10])([H:11])[C:6]1([H:12])[H:13])([H:7])[H:8]>>[C:2](#[O+:3])[C@:4]1([H:9])[C-:5]([H:10])[C:6]1([H:12])[H:13].[N:1]([H:7])([H:8])[H:11]"
N        1.65874116      -0.78883672      -0.43718178
C        0.86534140       0.67893682       0.14023102
O        1.17006947       1.67528275      -0.42181939
C       -0.30812766       0.14232288       0.76362973
C       -1.13324479      -0.41681444      -0.45359362
C       -1.71357492       0.59661596       0.47674436
H        2.07765670      -1.36198978       0.28233072
H        2.35104230      -0.57404055      -1.14175563
H       -0.10432194      -0.60153562       1.52554717
H       -0.93240904       0.12229709      -1.38684119
H        0.28922933      -1.38161700      -0.76229629
H       -2.42172495       0.26985640       1.23080874
H       -1.79867705       1.63952221       0.18419617
13
Frame=11 idx=003445 GeodesicLength=1.184938510585957 rxn_smarts="[N:1]([C:2](=[O:3])[C:4]1([H:9])[C:5]([H:10])([H:11])[C:6]1([H:12])[H:13])([H:7])[H:8]>>[C:2](#[O+:3])[C@:4]1([H:9])[C-:5]([H:10])[C:6]1([H:12])[H:13].[N:1]([H:7])([H:8])[H:11]"
N        1.68088805      -0.79099966      -0.43670375
C        0.86175241       0.68804246       0.14952706
O        1.15189176       1.67916045      -0.42764502
C       -0.31128866       0.13801193       0.76006527
C       -1.14742107      -0.41513142      -0.45158934
C       -1.71645489       0.60283259       0.47686309
H        2.08949788      -1.37349312       0.28070522
H        2.38262041      -0.56650749      -1.12835550
H       -0.10416414      -0.60341866       1.52331258
H       -0.95466297       0.11553345      -1.39075809
H        0.27840597      -1.40365616      -0.78034340
H       -2.42290488       0.28097955       1.23457440
H       -1.78815987       1.64864609       0.19034749
13
Frame=12 idx=003445 GeodesicLength=1.2928454114027859 rxn_smarts="[N:1]([C:2](=[O:3])[C:4]1([H:9])[C:5]([H:10])([H:11])[C:6]1([H:12])[H:13])([H:7])[H:8]>>[C:2](#[O+:3])[C@:4]1([H:9])[C-:5]([H:10])[C:6]1([H:12])[H:13].[N:1]([H:7])([H:8])[H:11]"
N        1.70385488      -0.79285141      -0.43590402
C        0.85801119       0.69758042       0.15888652
O        1.13385258       1.68263759      -0.43388845
C       -0.31439098       0.13374050       0.75609959
C       -1.16192756      -0.41323211      -0.44963179
C       -1.71931359       0.60913984       0.47712288
H        2.10143704      -1.38534488       0.27896306
H        2.41516480      -0.55852826      -1.11391594
H       -0.10388508      -0.60523865       1.52067409
H       -0.97766642       0.10893672      -1.39464639
H        0.26645189      -1.42657761      -0.79900785
H       -2.42376022       0.29212675       1.23868398
H       -1.77782853       1.65761110       0.19656432
13
Frame=13 idx=003445 GeodesicLength=1.40076734908644 rxn_smarts="[N:1]([C:2](=[O:3])[C:4]1([H:9])[C:5]([H:10])([H:11])[C:6]1([H:12])[H:13])([H:7])[H:8]>>[C:2](#[O+:3])[C@:4]1([H:9])[C-:5]([H:10])[C:6]1([H:12])[H:13].[N:1]([H:7])([H:8])[H:11]"
N        1.72770486      -0.79435202      -0.43474026
C        0.85410199       0.70758039       0.16830090
O        1.11596023       1.68570004      -0.44057855
C       -0.31742305       0.12950694       0.75169668
C       -1.17677862      -0.41110618      -0.44772566
C       -1.72214584       0.61553489       0.47753334
H        2.11348878      -1.39756084       0.27706290
H        2.44874042      -0.55006872      -1.09834253
H       -0.10346712      -0.60699986       1.51759139
H       -1.00145728       0.10252115      -1.39850230
H        0.25322958      -1.45046747      -0.81830305
H       -2.42426522       0.30328621       1.24315895
H       -1.76768873       1.66642547       0.20284820
13
Frame=14 idx=003445 GeodesicLength=1.5086886592247117 rxn_smarts="[N:1]([C:2](=[O:3])[C:4]1([H:9])[C:5]([H:10])([H:11])[C:6]1([H:12])[H:13])([H:7])[H:8]>>[C:2](#[O+:3])[C@:4]1([H:9])[C-:5]([H:10])[C:6]1([H:12])[H:13].[N:1]([H:7])([H:8])[H:11]"
N        1.75251093      -0.79545625      -0.43316979
C        0.85000464       0.71806742       0.17774072
O        1.09822000       1.68831928      -0.44777218
C       -0.32037176       0.12530758       0.74680713
C       -1.19200164      -0.40874498      -0.44587508
C       -1.72494435       0.62201684       0.47810930
H        2.12565845      -1.41017081       0.27493969
H        2.48345120      -0.54105889      -1.08145796
H       -0.10288597      -0.60870485       1.51401190
H       -1.02610117       0.09630509      -1.40231853
H        0.23857946      -1.47542991      -0.83825960
H       -2.42438028       0.31444967       1.24803489
H       -1.75773952       1.67509981       0.20920948
13
Frame=15 idx=003445 GeodesicLength=1.6165686816397051 rxn_smarts="[N:1]([C:2](=[O:3])[C:4]1([H:9])[C:5]([H:10])([H:11])[C:6]1([H:12])[H:13])([H:7])[H:8]>>[C:2](#[O+:3])[C@:4]1([H:9])[C-:5]([H:10])[C:6]1([H:12])[H:13].[N:1]([H:7])([H:8])[H:11]"
N        1.77834925      -0.79611576      -0.43114182
C        0.84569936       0.72907373       0.18718550
O        1.08064357       1.69047056      -0.45551128
C       -0.32322167       0.12114042       0.74138362
C       -1.20761529      -0.40613893      -0.44408520
C       -1.72770230       0.62858200       0.47886204
H        2.13796076      -1.42319257       0.27252740
H        2.51938214      -0.53144806      -1.06311251
H       -0.10211616      -0.61035892       1.50988283
H       -1.05165455       0.09031099      -1.40608601
H        0.22233046      -1.50157044      -0.85889618
H       -2.42406823       0.32560397       1.25334112
H       -1.74798734       1.68364300       0.21565049
13
Frame=16 idx=003445 GeodesicLength=1.7243786844359352 rxn_smarts="[N:1]([C:2](=[O:3])[C:4]1([H:9])[C:5]([H:10])([H:11])[C:6]1([H:12])[H:13])([H:7])[H:8]>>[C:2](#[O+:3])[C@:4]1([H:9])[C-:5]([H:10])[C:6]1([H:12])[H:13].[N:1]([H:7])([H:8])[H:11]"
N        1.80530671      -0.79627190      -0.42859817
C        0.84116209       0.74063162       0.19659836
O        1.06323901       1.69212132      -0.46385677
C       -0.32595552       0.11700303       0.73536515
C       -1.22364798      -0.40327718      -0.44236081
C       -1.73040994       0.63522776       0.47980800
H        2.15040437      -1.43665802       0.26973101
H        2.55665507      -0.52115739      -1.04309104
H       -0.10112556      -0.61196382       1.50513885
H       -1.07818678       0.08456045      -1.40979576
H        0.20427241      -1.52901512      -0.88023762
H       -2.42327954       0.33673591       1.25911836
H       -1.73843434       1.69206334       0.22218042
