15
Frame=0 idx=011886 GeodesicLength=0.0 rxn_smarts="[C:1]([C:2]([n:3]1[c:4]([H:13])[c:5]([H:14])[n:6][c:7]1[H:15])([H:11])[H:12])([H:8])([H:9])[H:10]>>[C:1]([C:2]([N:3]=[C:7]=[N:6][H:15])([H:11])[H:12])([H:8])([H:9])[H:10].[C:4](#[C:5][H:14])[H:13]"
C       -2.28230063       0.36809120       0.28449271
C       -1.35166416      -0.19460195      -0.78088612
N        0.02531007      -0.29134726      -0.33731581
C        2.26575139      -1.46076203       0.61090091
C        3.05588175      -0.54852893       0.69545222
N        1.96608852       1.10954536       0.01796911
C        0.81489255       0.68442155      -0.26928556
H       -3.31710882       0.36606180      -0.06503131
H       -2.22425512      -0.22681463       1.19727268
H       -2.01237367       1.39631320       0.53679209
H       -1.42747721       0.40030373      -1.69884921
H       -1.67016775      -1.20523718      -1.04453013
H        1.55462717      -2.24732639       0.52444184
H        3.92771630       0.03912349       0.86811256
H        0.67507964       1.81075799      -0.53953594
15
Frame=1 idx=011886 GeodesicLength=0.08845763618521711 rxn_smarts="[C:1]([C:2]([n:3]1[c:4]([H:13])[c:5]([H:14])[n:6][c:7]1[H:15])([H:11])[H:12])([H:8])([H:9])[H:10]>>[C:1]([C:2]([N:3]=[C:7]=[N:6][H:15])([H:11])[H:12])([H:8])([H:9])[H:10].[C:4](#[C:5][H:14])[H:13]"
C       -2.24812533       0.35420277       0.30083787
C       -1.34485283      -0.20084150      -0.79133923
N        0.04559882      -0.28506647      -0.38877865
C        2.19171417      -1.43543907       0.63790665
C        3.00810192      -0.54053290       0.71707400
N        1.96959642       1.12531825      -0.02247705
C        0.83279977       0.69568801      -0.35606766
H       -3.29301653       0.33777416      -0.01685802
H       -2.15541849      -0.23705892       1.21315646
H       -1.98552611       1.38702214       0.54112318
H       -1.45239840       0.39251559      -1.70675974
H       -1.66140986      -1.21454983      -1.04570973
H        1.51815537      -2.24820475       0.50281795
H        3.89170706       0.01609810       0.93001659
H        0.68307401       1.85307442      -0.51494261
15
Frame=2 idx=011886 GeodesicLength=0.17816824724555208 rxn_smarts="[C:1]([C:2]([n:3]1[c:4]([H:13])[c:5]([H:14])[n:6][c:7]1[H:15])([H:11])[H:12])([H:8])([H:9])[H:10]>>[C:1]([C:2]([N:3]=[C:7]=[N:6][H:15])([H:11])[H:12])([H:8])([H:9])[H:10].[C:4](#[C:5][H:14])[H:13]"
C       -2.21663618       0.33992215       0.31527489
C       -1.33679382      -0.20630476      -0.79982986
N        0.06455800      -0.27657168      -0.43383415
C        2.11812239      -1.40857921       0.65850351
C        2.95971628      -0.53141399       0.73758426
N        1.98037094       1.13566214      -0.07820354
C        0.84664580       0.71033849      -0.42740483
H       -3.26934648       0.30804110       0.02586666
H       -2.09183172      -0.24750574       1.22627199
H       -1.96351810       1.37730972       0.54517765
H       -1.47280852       0.38571988      -1.71194208
H       -1.64919130      -1.22320936      -1.04679590
H        1.48178661      -2.24460262       0.48655961
H        3.85452018      -0.00756460       0.98573967
H        0.69440593       1.88875849      -0.48296788
15
Frame=3 idx=011886 GeodesicLength=0.2677022764113999 rxn_smarts="[C:1]([C:2]([n:3]1[c:4]([H:13])[c:5]([H:14])[n:6][c:7]1[H:15])([H:11])[H:12])([H:8])([H:9])[H:10]>>[C:1]([C:2]([N:3]=[C:7]=[N:6][H:15])([H:11])[H:12])([H:8])([H:9])[H:10].[C:4](#[C:5][H:14])[H:13]"
C       -2.18758361       0.32902082       0.32882920
C       -1.32922604      -0.21306241      -0.80452863
N        0.08113412      -0.26896714      -0.47193172
C        2.05224605      -1.38443028       0.66234200
C        2.91464823      -0.52238859       0.74963669
N        1.99447578       1.14082603      -0.14146524
C        0.85707877       0.72432600      -0.48938466
H       -3.24648021       0.28147384       0.06537730
H       -2.03328432      -0.25115086       1.23998885
H       -1.94394912       1.37132813       0.54573190
H       -1.49078315       0.37446788      -1.71500749
H       -1.63732075      -1.23370589      -1.04158504
H        1.45244129      -2.24149248       0.46204066
H        3.80560952      -0.02260857       1.05844095
H        0.71099342       1.91636352      -0.44848477
15
Frame=4 idx=011886 GeodesicLength=0.35852752365450646 rxn_smarts="[C:1]([C:2]([n:3]1[c:4]([H:13])[c:5]([H:14])[n:6][c:7]1[H:15])([H:11])[H:12])([H:8])([H:9])[H:10]>>[C:1]([C:2]([N:3]=[C:7]=[N:6][H:15])([H:11])[H:12])([H:8])([H:9])[H:10].[C:4](#[C:5][H:14])[H:13]"
C       -2.16000675       0.31738895       0.34068583
C       -1.32124751      -0.21944602      -0.80938287
N        0.09666761      -0.26095425      -0.50806804
C        1.98731398      -1.35868276       0.66544465
C        2.86739958      -0.50995506       0.76613725
N        2.00819093       1.14454607      -0.20071169
C        0.86493817       0.73954681      -0.54297442
H       -3.22376465       0.25459356       0.10126634
H       -1.97790771      -0.25625144       1.25087923
H       -1.92626623       1.36407155       0.54649472
H       -1.50651282       0.36432972      -1.71738390
H       -1.62412074      -1.24357030      -1.03827991
H        1.42159789      -2.23448411       0.44529513
H        3.76084463      -0.04044599       1.11228494
H        0.73287363       1.93931327      -0.41168728
15
Frame=5 idx=011886 GeodesicLength=0.4484981183866329 rxn_smarts="[C:1]([C:2]([n:3]1[c:4]([H:13])[c:5]([H:14])[n:6][c:7]1[H:15])([H:11])[H:12])([H:8])([H:9])[H:10]>>[C:1]([C:2]([N:3]=[C:7]=[N:6][H:15])([H:11])[H:12])([H:8])([H:9])[H:10].[C:4](#[C:5][H:14])[H:13]"
C       -2.13523472       0.30924446       0.35105011
C       -1.31362140      -0.22729634      -0.81116150
N        0.11037175      -0.25381853      -0.53781609
C        1.93034275      -1.33641236       0.65733615
C        2.82527160      -0.49890573       0.77385787
N        2.02046413       1.14670298      -0.25518961
C        0.87037354       0.75407498      -0.58889004
H       -3.20257195       0.23095077       0.13332311
H       -1.92789946      -0.25420531       1.26223913
H       -1.91151715       1.36067980       0.54267492
H       -1.51987232       0.34924597      -1.71888912
H       -1.61090518      -1.25552821      -1.02895183
H        1.39701894      -2.22901428       0.42191792
H        3.70941096      -0.05255839       1.17234524
H        0.75836851       1.95684020      -0.37384626
15
Frame=6 idx=011886 GeodesicLength=0.5391308962796475 rxn_smarts="[C:1]([C:2]([n:3]1[c:4]([H:13])[c:5]([H:14])[n:6][c:7]1[H:15])([H:11])[H:12])([H:8])([H:9])[H:10]>>[C:1]([C:2]([N:3]=[C:7]=[N:6][H:15])([H:11])[H:12])([H:8])([H:9])[H:10].[C:4](#[C:5][H:14])[H:13]"
C       -2.11173563       0.30115324       0.36024837
C       -1.30580188      -0.23520426      -0.81269693
N        0.12329534      -0.24639570      -0.56586408
C        1.87555762      -1.31388630       0.64785964
C        2.78430613      -0.48713526       0.78004067
N        2.03100795       1.14907128      -0.30379619
C        0.87411254       0.76949516      -0.62905185
H       -3.18174793       0.20760521       0.16290117
H       -1.88040755      -0.25192852       1.27204709
H       -1.89829900       1.35699723       0.53829775
H       -1.53181676       0.33387649      -1.72005984
H       -1.59674131      -1.26749725      -1.01982866
H        1.37159324      -2.22156306       0.40320728
H        3.65970109      -0.06609356       1.22339467
H        0.78697616       1.97150529      -0.33669910
15
Frame=7 idx=011886 GeodesicLength=0.6296698806315627 rxn_smarts="[C:1]([C:2]([n:3]1[c:4]([H:13])[c:5]([H:14])[n:6][c:7]1[H:15])([H:11])[H:12])([H:8])([H:9])[H:10]>>[C:1]([C:2]([N:3]=[C:7]=[N:6][H:15])([H:11])[H:12])([H:8])([H:9])[H:10].[C:4](#[C:5][H:14])[H:13]"
C       -2.08938404       0.29454584       0.36902427
C       -1.29812027      -0.24361150      -0.81279438
N        0.13524665      -0.23933469      -0.59134138
C        1.82565614      -1.29354583       0.63254004
C        2.74680881      -0.47657676       0.78103440
N        2.04039645       1.15082315      -0.34914167
C        0.87648831       0.78472243      -0.66478514
H       -3.16133737       0.18606513       0.19115986
H       -1.83525791      -0.24681744       1.28181847
H       -1.88611232       1.35463578       0.53257644
H       -1.54275195       0.31663622      -1.72045916
H       -1.58242021      -1.28006850      -1.00824719
H        1.34864126      -2.21470076       0.38205751
H        3.60363641      -0.07586110       1.27791492
H        0.81851005       1.98308803      -0.30135698
15
Frame=8 idx=011886 GeodesicLength=0.7203329434012004 rxn_smarts="[C:1]([C:2]([n:3]1[c:4]([H:13])[c:5]([H:14])[n:6][c:7]1[H:15])([H:11])[H:12])([H:8])([H:9])[H:10]>>[C:1]([C:2]([N:3]=[C:7]=[N:6][H:15])([H:11])[H:12])([H:8])([H:9])[H:10].[C:4](#[C:5][H:14])[H:13]"
C       -2.06847273       0.28876039       0.37677463
C       -1.29034372      -0.25238889      -0.81216136
N        0.14646442      -0.23216134      -0.61463770
C        1.77823755      -1.27383856       0.61618304
C        2.70969984      -0.46528323       0.78310811
N        2.04784923       1.15336884      -0.38846150
C        0.87765671       0.80038112      -0.69584383
H       -3.14161944       0.16522864       0.21731076
H       -1.79264244      -0.23972200       1.29086192
H       -1.87580203       1.35296271       0.52525493
H       -1.55241531       0.29798033      -1.72065007
H       -1.56730321      -1.29310571      -0.99539960
H        1.32754362      -2.20737199       0.36055978
H        3.54999545      -0.08795171       1.32515702
H        0.85115207       1.99314140      -0.26805611
15
Frame=9 idx=011886 GeodesicLength=0.8114413617357857 rxn_smarts="[C:1]([C:2]([n:3]1[c:4]([H:13])[c:5]([H:14])[n:6][c:7]1[H:15])([H:11])[H:12])([H:8])([H:9])[H:10]>>[C:1]([C:2]([N:3]=[C:7]=[N:6][H:15])([H:11])[H:12])([H:8])([H:9])[H:10].[C:4](#[C:5][H:14])[H:13]"
C       -2.04827714       0.28274280       0.38417933
C       -1.28241920      -0.26098941      -0.81130404
N        0.15715263      -0.22473694      -0.63684262
C        1.73278075      -1.25440325       0.59895488
C        2.67429527      -0.45412710       0.78338340
N        2.05421162       1.15636108      -0.42424310
C        0.87803114       0.81643961      -0.72357246
H       -3.12204858       0.14480116       0.24221488
H       -1.75179003      -0.23333522       1.29892279
H       -1.86608756       1.35056325       0.51866675
H       -1.56124791       0.27966164      -1.72027689
H       -1.55156035      -1.30573575      -0.98308661
H        1.30534509      -2.19915290       0.34227746
H        3.49615331      -0.10060385       1.36895121
H        0.88546096       2.00251487      -0.23822499
15
Frame=10 idx=011886 GeodesicLength=0.9029951155113812 rxn_smarts="[C:1]([C:2]([n:3]1[c:4]([H:13])[c:5]([H:14])[n:6][c:7]1[H:15])([H:11])[H:12])([H:8])([H:9])[H:10]>>[C:1]([C:2]([N:3]=[C:7]=[N:6][H:15])([H:11])[H:12])([H:8])([H:9])[H:10].[C:4](#[C:5][H:14])[H:13]"
C       -2.02892200       0.27692902       0.39089468
C       -1.27431601      -0.26970687      -0.81018870
N        0.16738177      -0.21697895      -0.65805323
C        1.68935163      -1.23501545       0.58081780
C        2.64102944      -0.44350366       0.78121665
N        2.05965241       1.15980275      -0.45754765
C        0.87750758       0.83313586      -0.74819088
H       -3.10274463       0.12444736       0.26582167
H       -1.71238320      -0.22615074       1.30618662
H       -1.85767026       1.34814575       0.51134354
H       -1.56926050       0.26073432      -1.71972002
H       -1.53502423      -1.31842751      -0.97049907
H        1.28216546      -2.18991984       0.32685664
H        3.44218786      -0.11390239       1.40901552
H        0.92104469       2.01041035      -0.20795357
15
Frame=11 idx=011886 GeodesicLength=0.9952321472327035 rxn_smarts="[C:1]([C:2]([n:3]1[c:4]([H:13])[c:5]([H:14])[n:6][c:7]1[H:15])([H:11])[H:12])([H:8])([H:9])[H:10]>>[C:1]([C:2]([N:3]=[C:7]=[N:6][H:15])([H:11])[H:12])([H:8])([H:9])[H:10].[C:4](#[C:5][H:14])[H:13]"
C       -2.01055751       0.27082851       0.39683114
C       -1.26599391      -0.27838811      -0.80914189
N        0.17718693      -0.20870120      -0.67831071
C        1.64688323      -1.21500090       0.56355424
C        2.60886623      -0.43242144       0.77869379
N        2.06396241       1.16421707      -0.48765405
C        0.87616848       0.85062666      -0.76977814
H       -3.08387328       0.10380235       0.28776708
H       -1.67478963      -0.21920240       1.31238761
H       -1.85064903       1.34515112       0.50383368
H       -1.57636207       0.24174282      -1.71913643
H       -1.51758241      -1.33096673      -0.95851742
H        1.25709830      -2.17930721       0.31573584
H        3.39232110      -0.13026687       1.44247871
H        0.95732115       2.01788632      -0.17874343
15
Frame=12 idx=011886 GeodesicLength=1.0878380770160971 rxn_smarts="[C:1]([C:2]([n:3]1[c:4]([H:13])[c:5]([H:14])[n:6][c:7]1[H:15])([H:11])[H:12])([H:8])([H:9])[H:10]>>[C:1]([C:2]([N:3]=[C:7]=[N:6][H:15])([H:11])[H:12])([H:8])([H:9])[H:10].[C:4](#[C:5][H:14])[H:13]"
C       -1.99252016       0.26523478       0.40285710
C       -1.25769320      -0.28715288      -0.80745365
N        0.18645241      -0.20053298      -0.69775515
C        1.60646634      -1.19606487       0.54471354
C        2.57682578      -0.42110525       0.77680442
N        2.06754921       1.16847082      -0.51584339
C        0.87438497       0.86785059      -0.78959147
H       -3.06492421       0.08395639       0.30964089
H       -1.63799186      -0.21130504       1.31850268
H       -1.84393694       1.34237827       0.49630688
H       -1.58310706       0.22220911      -1.71792752
H       -1.49996591      -1.34344966      -0.94570620
H        1.23406271      -2.16904418       0.30192980
H        3.33975891      -0.14627154       1.47638468
H        0.99463901       2.02482645      -0.15286262
15
Frame=13 idx=011886 GeodesicLength=1.181027520622555 rxn_smarts="[C:1]([C:2]([n:3]1[c:4]([H:13])[c:5]([H:14])[n:6][c:7]1[H:15])([H:11])[H:12])([H:8])([H:9])[H:10]>>[C:1]([C:2]([N:3]=[C:7]=[N:6][H:15])([H:11])[H:12])([H:8])([H:9])[H:10].[C:4](#[C:5][H:14])[H:13]"
C       -1.97534113       0.25949207       0.40834463
C       -1.24926017      -0.29587941      -0.80570559
N        0.19527773      -0.19202990      -0.71626451
C        1.56688964      -1.17673697       0.52675893
C        2.54520994      -0.40917996       0.77541670
N        2.07022047       1.17335606      -0.54154398
C        0.87200810       0.88545011      -0.80713258
H       -3.04636522       0.06402708       0.33026014
H       -1.60281399      -0.20347142       1.32385090
H       -1.83837616       1.33916691       0.48870244
H       -1.58910104       0.20258363      -1.71658652
H       -1.48171995      -1.35573617      -0.93326644
H        1.21031878      -2.15778028       0.29050604
H        3.29067426      -0.16510754       1.50550865
H        1.03237874       2.03184580      -0.12884881
15
Frame=14 idx=011886 GeodesicLength=1.2746131737851008 rxn_smarts="[C:1]([C:2]([n:3]1[c:4]([H:13])[c:5]([H:14])[n:6][c:7]1[H:15])([H:11])[H:12])([H:8])([H:9])[H:10]>>[C:1]([C:2]([N:3]=[C:7]=[N:6][H:15])([H:11])[H:12])([H:8])([H:9])[H:10].[C:4](#[C:5][H:14])[H:13]"
C       -1.95848087       0.25413768       0.41394526
C       -1.24083897      -0.30461932      -0.80340535
N        0.20360758      -0.18363371      -0.73401643
C        1.52897731      -1.15831328       0.50782526
C        2.51336675      -0.39684267       0.77505578
N        2.07233865       1.17800336      -0.56572667
C        0.86933377       0.90269632      -0.82329942
H       -3.02776364       0.04476682       0.35082723
H       -1.56842543      -0.19493721       1.32911204
H       -1.83314568       1.33605793       0.48122160
H       -1.59473920       0.18262018      -1.71465193
H       -1.46333244      -1.36785994      -0.92022902
H        1.18867584      -2.14685260       0.27659828
H        3.23952351      -0.18403610       1.53472130
H        1.07090283       2.03881254      -0.10797793
15
Frame=15 idx=011886 GeodesicLength=1.3687689631362085 rxn_smarts="[C:1]([C:2]([n:3]1[c:4]([H:13])[c:5]([H:14])[n:6][c:7]1[H:15])([H:11])[H:12])([H:8])([H:9])[H:10]>>[C:1]([C:2]([N:3]=[C:7]=[N:6][H:15])([H:11])[H:12])([H:8])([H:9])[H:10].[C:4](#[C:5][H:14])[H:13]"
C       -1.94197271       0.24900106       0.41956099
C       -1.23241324      -0.31333516      -0.80072346
N        0.21146435      -0.17527558      -0.75112342
C        1.49217421      -1.14038987       0.48871280
C        2.48082788      -0.38374145       0.77623923
N        2.07390452       1.18247653      -0.58835409
C        0.86638347       0.91966647      -0.83822976
H       -3.00915825       0.02595987       0.37120369
H       -1.53485529      -0.18598240       1.33414698
H       -1.82834121       1.33288213       0.47390285
H       -1.60000967       0.16246918      -1.71223852
H       -1.44475293      -1.37977231      -0.90691280
H        1.16880470      -2.13595981       0.26103660
H        3.18794198      -0.20403770       1.56288866
H        1.11000218       2.04603905      -0.09010975
15
Frame=16 idx=011886 GeodesicLength=1.46360030877028 rxn_smarts="[C:1]([C:2]([n:3]1[c:4]([H:13])[c:5]([H:14])[n:6][c:7]1[H:15])([H:11])[H:12])([H:8])([H:9])[H:10]>>[C:1]([C:2]([N:3]=[C:7]=[N:6][H:15])([H:11])[H:12])([H:8])([H:9])[H:10].[C:4](#[C:5][H:14])[H:13]"
C       -1.92606757       0.24402830       0.42490833
C       -1.22395873      -0.32207093      -0.79779619
N        0.21886235      -0.16683917      -0.76749520
C        1.45599581      -1.12243017       0.47032712
C        2.44725359      -0.36944657       0.77940841
N        2.07479117       1.18705022      -0.60913826
C        0.86307674       0.93654189      -0.85184220
H       -2.99076827       0.00735660       0.39098437
H       -1.50240943      -0.17650239       1.33878610
H       -1.82440729       1.32961075       0.46636300
H       -1.60479085       0.14199072      -1.70957985
H       -1.42583320      -1.39154235      -0.89342110
H        1.15034686      -2.12465039       0.24497857
H        3.13864931      -0.22686972       1.58817528
H        1.14925952       2.05377322      -0.07465837
