18
Frame=0 idx=008114 GeodesicLength=0.0 rxn_smarts="[C:1]([N:2]([C:3](=[O:4])[C:5]([C:6]([H:13])([H:14])[H:15])([C:7]([H:16])([H:17])[H:18])[H:12])[H:11])([H:8])([H:9])[H:10]>>[C:1]([N:2]([C@:3]1([H:12])[O:4][C:5]1([C:6]([H:13])([H:14])[H:15])[C:7]([H:16])([H:17])[H:18])[H:11])([H:8])([H:9])[H:10]"
C        2.36601447      -0.33249484      -0.12039539
N        1.24370006      -0.04146945      -1.00831541
C        0.24190999       0.84583055      -0.38919175
O        0.62937318       1.73496464       0.48310797
C       -0.91874937       0.08071072       0.12852831
C       -1.02935341      -1.37825915       0.04173996
C       -1.97562733       0.85067785       0.78434124
H        2.84233906       0.56543169       0.27802870
H        3.09657497      -0.93092826      -0.66706818
H        2.02323780      -0.92291377       0.73382263
H        1.59619072       0.41255232      -1.83897207
H       -0.32172977       1.25208169      -1.31529713
H       -1.76160413      -1.80055534       0.72946896
H       -0.04822677      -1.84659540       0.12290906
H       -1.35160101      -1.59413466      -0.98518346
H       -2.96655185       0.42092153       0.62357435
H       -1.76065979       0.77542086       1.85961597
H       -1.90523687       1.90875902       0.53928621
18
Frame=1 idx=008114 GeodesicLength=0.11009878278985018 rxn_smarts="[C:1]([N:2]([C:3](=[O:4])[C:5]([C:6]([H:13])([H:14])[H:15])([C:7]([H:16])([H:17])[H:18])[H:12])[H:11])([H:8])([H:9])[H:10]>>[C:1]([N:2]([C@:3]1([H:12])[O:4][C:5]1([C:6]([H:13])([H:14])[H:15])[C:7]([H:16])([H:17])[H:18])[H:11])([H:8])([H:9])[H:10]"
C        2.39099162      -0.33745344      -0.14189130
N        1.25895059      -0.01472432      -1.00239375
C        0.25723627       0.84485826      -0.36263755
O        0.62203596       1.67801760       0.57039100
C       -0.92108962       0.09053386       0.12465527
C       -1.02432807      -1.37261249       0.05865205
C       -1.99890885       0.85759277       0.75669175
H        2.90185963       0.54941513       0.23821684
H        3.08945869      -0.96046147      -0.70338379
H        2.05607230      -0.91248341       0.72537017
H        1.58726760       0.43944187      -1.84189742
H       -0.34132241       1.24945157      -1.28509502
H       -1.73206942      -1.78767603       0.77593416
H       -0.04363451      -1.84327238       0.12744471
H       -1.37274689      -1.60646997      -0.95530736
H       -2.98451040       0.43136578       0.55818650
H       -1.82171854       0.77727691       1.83800548
H       -1.92354396       1.91719976       0.51905825
18
Frame=2 idx=008114 GeodesicLength=0.21969956821718278 rxn_smarts="[C:1]([N:2]([C:3](=[O:4])[C:5]([C:6]([H:13])([H:14])[H:15])([C:7]([H:16])([H:17])[H:18])[H:12])[H:11])([H:8])([H:9])[H:10]>>[C:1]([N:2]([C@:3]1([H:12])[O:4][C:5]1([C:6]([H:13])([H:14])[H:15])[C:7]([H:16])([H:17])[H:18])[H:11])([H:8])([H:9])[H:10]"
C        2.41455414      -0.34083666      -0.16143242
N        1.27475945       0.01306403      -0.99533001
C        0.27145277       0.84414593      -0.33755010
O        0.61251805       1.61767987       0.65253352
C       -0.92321417       0.09987370       0.11971781
C       -1.02026876      -1.36711636       0.07415960
C       -2.01962206       0.86415242       0.73045453
H        2.95818246       0.53443634       0.19987164
H        3.08067396      -0.98732502      -0.73626952
H        2.08762899      -0.90091835       0.71819168
H        1.57907605       0.46590683      -1.84367201
H       -0.36021372       1.24420648      -1.25855508
H       -1.70260609      -1.77334764       0.82069538
H       -0.04039361      -1.84077498       0.12928679
H       -1.39599007      -1.61835328      -0.92544350
H       -2.99917363       0.44192764       0.49638828
H       -1.87794958       0.77791476       1.81613393
H       -1.93941418       1.92536428       0.50081948
18
Frame=3 idx=008114 GeodesicLength=0.3289267098786526 rxn_smarts="[C:1]([N:2]([C:3](=[O:4])[C:5]([C:6]([H:13])([H:14])[H:15])([C:7]([H:16])([H:17])[H:18])[H:12])[H:11])([H:8])([H:9])[H:10]>>[C:1]([N:2]([C@:3]1([H:12])[O:4][C:5]1([C:6]([H:13])([H:14])[H:15])[C:7]([H:16])([H:17])[H:18])[H:11])([H:8])([H:9])[H:10]"
C        2.43683638      -0.34274647      -0.17909746
N        1.29113872       0.04202216      -0.98701842
C        0.28466251       0.84372153      -0.31362437
O        0.60088306       1.55442828       0.72917698
C       -0.92503304       0.10870138       0.11396674
C       -1.01708867      -1.36184052       0.08826985
C       -2.03800730       0.87037215       0.70565643
H        3.01199362       0.52031414       0.16266037
H        3.07005939      -1.01206077      -0.76582775
H        2.11797448      -0.88796637       0.71241832
H        1.57146712       0.49184748      -1.84434842
H       -0.37837941       1.23651395      -1.23539670
H       -1.67307845      -1.75793212       0.86353674
H       -0.03845719      -1.83912143       0.12845710
H       -1.42112120      -1.62964565      -0.89557473
H       -3.01093005       0.45261318       0.43812370
H       -1.92968841       0.77757873       1.79421670
H       -1.95323155       1.93320035       0.48440490
18
Frame=4 idx=008114 GeodesicLength=0.4378788350022681 rxn_smarts="[C:1]([N:2]([C:3](=[O:4])[C:5]([C:6]([H:13])([H:14])[H:15])([C:7]([H:16])([H:17])[H:18])[H:12])[H:11])([H:8])([H:9])[H:10]>>[C:1]([N:2]([C@:3]1([H:12])[O:4][C:5]1([C:6]([H:13])([H:14])[H:15])[C:7]([H:16])([H:17])[H:18])[H:11])([H:8])([H:9])[H:10]"
C        2.45798871      -0.34330948      -0.19501221
N        1.30808643       0.07228600      -0.97734481
C        0.29696786       0.84361400      -0.29052984
O        0.58728650       1.48885785       0.80020409
C       -0.92647008       0.11699832       0.10766585
C       -1.01468167      -1.35683024       0.10101409
C       -2.05434299       0.87624424       0.68227423
H        3.06397620       0.50669359       0.12606711
H        3.05732648      -1.03516329      -0.79211135
H        2.14732783      -0.87337394       0.70817593
H        1.56420577       0.51712770      -1.84399990
H       -0.39578500       1.22663497      -1.21527363
H       -1.64342153      -1.74176520       0.90421359
H       -0.03775115      -1.83828006       0.12509727
H       -1.44779903      -1.64020841      -0.86569626
H       -3.02016888       0.46336090       0.38323606
H       -1.97735727       0.77646149       1.77244953
H       -1.96538818       1.94065156       0.46957025
18
Frame=5 idx=008114 GeodesicLength=0.5465013042803781 rxn_smarts="[C:1]([N:2]([C:3](=[O:4])[C:5]([C:6]([H:13])([H:14])[H:15])([C:7]([H:16])([H:17])[H:18])[H:12])[H:11])([H:8])([H:9])[H:10]>>[C:1]([N:2]([C@:3]1([H:12])[O:4][C:5]1([C:6]([H:13])([H:14])[H:15])[C:7]([H:16])([H:17])[H:18])[H:11])([H:8])([H:9])[H:10]"
C        2.47815070      -0.34271232      -0.20935583
N        1.32549787       0.10387522      -0.96624151
C        0.30849474       0.84384415      -0.26796707
O        0.57193734       1.42143092       0.86628993
C       -0.92747840       0.12483300       0.10108724
C       -1.01295095      -1.35201480       0.11245337
C       -2.06892288       0.88173120       0.66017284
H        3.11475166       0.49320757       0.08935480
H        3.04247668      -1.05694906      -0.81541542
H        2.17611434      -0.85682416       0.70567150
H        1.55682829       0.54119059      -1.84284320
H       -0.41231433       1.21501732      -1.19767596
H       -1.61366855      -1.72496350       0.94265806
H       -0.03818998      -1.83801394       0.11945357
H       -1.47566220      -1.64993078      -0.83578735
H       -3.02719872       0.47404600       0.33119474
H       -2.02162925       0.77453047       1.75085903
H       -1.97623637       1.94770212       0.45609127
18
Frame=6 idx=008114 GeodesicLength=0.6549470556657947 rxn_smarts="[C:1]([N:2]([C:3](=[O:4])[C:5]([C:6]([H:13])([H:14])[H:15])([C:7]([H:16])([H:17])[H:18])[H:12])[H:11])([H:8])([H:9])[H:10]>>[C:1]([N:2]([C@:3]1([H:12])[O:4][C:5]1([C:6]([H:13])([H:14])[H:15])[C:7]([H:16])([H:17])[H:18])[H:11])([H:8])([H:9])[H:10]"
C        2.49738975      -0.34097815      -0.22214897
N        1.34349054       0.13703441      -0.95353207
C        0.31932614       0.84440697      -0.24566011
O        0.55499897       1.35284291       0.92688561
C       -0.92798167       0.13215990       0.09442299
C       -1.01181193      -1.34750718       0.12250079
C       -2.08187001       0.88682598       0.63944004
H        3.16466847       0.47953470       0.05205980
H        3.02490902      -1.07783264      -0.83539204
H        2.20450633      -0.83795234       0.70502598
H        1.54914667       0.56383248      -1.84081530
H       -0.42801316       1.20176057      -1.18239509
H       -1.58389241      -1.70801549       0.97839549
H       -0.03969579      -1.83836888       0.11161361
H       -1.50433229      -1.65864621      -0.80607523
H       -3.03228023       0.48466444       0.28213967
H       -2.06255987       0.77194913       1.72969283
H       -1.98599854       1.95428942       0.44384199
18
Frame=7 idx=008114 GeodesicLength=0.7632563822002654 rxn_smarts="[C:1]([N:2]([C:3](=[O:4])[C:5]([C:6]([H:13])([H:14])[H:15])([C:7]([H:16])([H:17])[H:18])[H:12])[H:11])([H:8])([H:9])[H:10]>>[C:1]([N:2]([C@:3]1([H:12])[O:4][C:5]1([C:6]([H:13])([H:14])[H:15])[C:7]([H:16])([H:17])[H:18])[H:11])([H:8])([H:9])[H:10]"
C        2.51578527      -0.33815499      -0.23347777
N        1.36210746       0.17195085      -0.93906160
C        0.32955012       0.84528976      -0.22334370
O        0.53671015       1.28366229       0.98211990
C       -0.92793480       0.13898106       0.08788900
C       -1.01117515      -1.34334400       0.13113328
C       -2.09336223       0.89152284       0.62004653
H        3.21403953       0.46520491       0.01352139
H        3.00422727      -1.09804298      -0.85188977
H        2.23289391      -0.81635127       0.70633478
H        1.54082097       0.58462570      -1.83795735
H       -0.44287204       1.18708940      -1.16908630
H       -1.55423848      -1.69128592       1.01115097
H       -0.04217024      -1.83927540       0.10178873
H       -1.53337812      -1.66622979      -0.77677063
H       -3.03566952       0.49519987       0.23584981
H       -2.10047277       0.76875855       1.70906541
H       -1.99486133       1.96039914       0.43268732
18
Frame=8 idx=008114 GeodesicLength=0.8714397285597884 rxn_smarts="[C:1]([N:2]([C:3](=[O:4])[C:5]([C:6]([H:13])([H:14])[H:15])([C:7]([H:16])([H:17])[H:18])[H:12])[H:11])([H:8])([H:9])[H:10]>>[C:1]([N:2]([C@:3]1([H:12])[O:4][C:5]1([C:6]([H:13])([H:14])[H:15])[C:7]([H:16])([H:17])[H:18])[H:11])([H:8])([H:9])[H:10]"
C        2.53336973      -0.33428056      -0.24343867
N        1.38140059       0.20888125      -0.92268961
C        0.33928371       0.84649332      -0.20076212
O        0.51732802       1.21436883       1.03230429
C       -0.92727986       0.14534061       0.08164593
C       -1.01092963      -1.33951519       0.13829341
C       -2.10352101       0.89580722       0.60192980
H        3.26300373       0.44986407      -0.02697165
H        2.97992715      -1.11774915      -0.86465558
H        2.26169296      -0.79161902       0.70969409
H        1.53140049       0.60285025      -1.83427527
H       -0.45683004       1.17126692      -1.15739216
H       -1.52487041      -1.67509858       1.04064679
H       -0.04547924      -1.84061363       0.09015138
H       -1.56236639      -1.67254460      -0.74812698
H       -3.03750782       0.50560332       0.19209092
H       -2.13564722       0.76492487       1.68902378
H       -2.00297476       1.96602008       0.42253164
18
Frame=9 idx=008114 GeodesicLength=0.9794550444362551 rxn_smarts="[C:1]([N:2]([C:3](=[O:4])[C:5]([C:6]([H:13])([H:14])[H:15])([C:7]([H:16])([H:17])[H:18])[H:12])[H:11])([H:8])([H:9])[H:10]>>[C:1]([N:2]([C@:3]1([H:12])[O:4][C:5]1([C:6]([H:13])([H:14])[H:15])[C:7]([H:16])([H:17])[H:18])[H:11])([H:8])([H:9])[H:10]"
C        2.55005252      -0.32935941      -0.25216618
N        1.40133547       0.24802362      -0.90433534
C        0.34863507       0.84803437      -0.17778749
O        0.49703407       1.14509755       1.07817948
C       -0.92593759       0.15135256       0.07590998
C       -1.01094900      -1.33593735       0.14388153
C       -2.11247487       0.89966381       0.58505777
H        3.31168163       0.43283285      -0.07020938
H        2.95198456      -1.13704103      -0.87356875
H        2.29119312      -0.76284578       0.71521634
H        1.52042383       0.61753408      -1.82986114
H       -0.46977954       1.15462336      -1.14690427
H       -1.49602502      -1.65955547       1.06668340
H       -0.04943173      -1.84216861       0.07691703
H       -1.59091982      -1.67756960      -0.72046981
H       -3.03784189       0.51582870       0.15050078
H       -2.16850465       0.76030538       1.66953585
H       -2.01047616       1.97118096       0.41342021
18
Frame=10 idx=008114 GeodesicLength=1.087325004930176 rxn_smarts="[C:1]([N:2]([C:3](=[O:4])[C:5]([C:6]([H:13])([H:14])[H:15])([C:7]([H:16])([H:17])[H:18])[H:12])[H:11])([H:8])([H:9])[H:10]>>[C:1]([N:2]([C@:3]1([H:12])[O:4][C:5]1([C:6]([H:13])([H:14])[H:15])[C:7]([H:16])([H:17])[H:18])[H:11])([H:8])([H:9])[H:10]"
C        2.56589683      -0.32331094      -0.25963881
N        1.42209273       0.28983210      -0.88391578
C        0.35771862       0.84984824      -0.15415927
O        0.47624330       1.07633463       1.11974486
C       -0.92388969       0.15701836       0.07065955
C       -1.01109913      -1.33262578       0.14774797
C       -2.12027557       0.90310150       0.56936230
H        3.35974928       0.41383538      -0.11686645
H        2.91939981      -1.15578413      -0.87780689
H        2.32215109      -0.72984721       0.72283895
H        1.50730207       0.62754565      -1.82439143
H       -0.48177025       1.13744599      -1.13735034
H       -1.46780450      -1.64516652       1.08892970
H       -0.05381597      -1.84381266       0.06207926
H       -1.61862938      -1.68109765      -0.69420577
H       -3.03683617       0.52594892       0.11098155
H       -2.19908808       0.75485179       1.65068654
H       -2.01734499       1.97588233       0.40530404
18
Frame=11 idx=008114 GeodesicLength=1.1950714441627017 rxn_smarts="[C:1]([N:2]([C:3](=[O:4])[C:5]([C:6]([H:13])([H:14])[H:15])([C:7]([H:16])([H:17])[H:18])[H:12])[H:11])([H:8])([H:9])[H:10]>>[C:1]([N:2]([C@:3]1([H:12])[O:4][C:5]1([C:6]([H:13])([H:14])[H:15])[C:7]([H:16])([H:17])[H:18])[H:11])([H:8])([H:9])[H:10]"
C        2.58067277      -0.31608070      -0.26596520
N        1.44366728       0.33444713      -0.86152592
C        0.36664744       0.85176127      -0.12989074
O        0.45523286       1.00825855       1.15705296
C       -0.92106974       0.16230981       0.06596854
C       -1.01133501      -1.32964925       0.14983440
C       -2.12687994       0.90613749       0.55483846
H        3.40661911       0.39242796      -0.16745008
H        2.88192348      -1.17384395      -0.87697002
H        2.35471154      -0.69202990       0.73241744
H        1.49221682       0.63272407      -1.81724818
H       -0.49277901       1.11968602      -1.12862372
H       -1.44042523      -1.63217096       1.10724445
H       -0.05856681      -1.84561094       0.04573940
H       -1.64526314      -1.68310446      -0.66957503
H       -3.03450143       0.53598416       0.07353770
H       -2.22734837       0.74862563       1.63252072
H       -2.02352261       1.98012807       0.39809483
18
Frame=12 idx=008114 GeodesicLength=1.3027691711566967 rxn_smarts="[C:1]([N:2]([C:3](=[O:4])[C:5]([C:6]([H:13])([H:14])[H:15])([C:7]([H:16])([H:17])[H:18])[H:12])[H:11])([H:8])([H:9])[H:10]>>[C:1]([N:2]([C@:3]1([H:12])[O:4][C:5]1([C:6]([H:13])([H:14])[H:15])[C:7]([H:16])([H:17])[H:18])[H:11])([H:8])([H:9])[H:10]"
C        2.59426815      -0.30757104      -0.27129524
N        1.46581567       0.38152642      -0.83760250
C        0.37555040       0.85336057      -0.10512800
O        0.43442496       0.94068299       1.19019813
C       -0.91749522       0.16713601       0.06177884
C       -1.01178552      -1.32710958       0.15020558
C       -2.13222927       0.90884395       0.54140136
H        3.45128931       0.36844888      -0.22239126
H        2.83973379      -1.19074098      -0.87053714
H        2.38937588      -0.64906824       0.74346956
H        1.47577669       0.63358507      -1.80744905
H       -0.50283964       1.10129065      -1.12066853
H       -1.41425791      -1.62074408       1.12181643
H       -0.06378807      -1.84768832       0.02815768
H       -1.67092537      -1.68378282      -0.64670237
H       -3.03086235       0.54610072       0.03806578
H       -2.25328160       0.74175239       1.61499087
H       -2.02876992       1.98397740       0.39168989
18
Frame=13 idx=008114 GeodesicLength=1.4106921846286764 rxn_smarts="[C:1]([N:2]([C:3](=[O:4])[C:5]([C:6]([H:13])([H:14])[H:15])([C:7]([H:16])([H:17])[H:18])[H:12])[H:11])([H:8])([H:9])[H:10]>>[C:1]([N:2]([C@:3]1([H:12])[O:4][C:5]1([C:6]([H:13])([H:14])[H:15])[C:7]([H:16])([H:17])[H:18])[H:11])([H:8])([H:9])[H:10]"
C        2.60669592      -0.29751753      -0.27573807
N        1.48793911       0.42989522      -0.81287109
C        0.38457519       0.85404407      -0.08018774
O        0.41416757       0.87294803       1.21935643
C       -0.91324249       0.17131915       0.05807501
C       -1.01283951      -1.32528666       0.14889803
C       -2.13622917       0.91138570       0.52906799
H        3.49270411       0.34135093      -0.28263753
H        2.79359129      -1.20597151      -0.85737389
H        2.42689283      -0.59950337       0.75549099
H        1.45915689       0.63179670      -1.79410070
H       -0.51199164       1.08200083      -1.11348677
H       -1.39012295      -1.61116965       1.13283849
H       -0.06986006      -1.85045123       0.00975452
H       -1.69595890      -1.68358349      -0.62590854
H       -3.02593143       0.55672883       0.00449748
H       -2.27688829       0.73441467       1.59815572
H       -2.03265846       1.98759930       0.38616967
18
Frame=14 idx=008114 GeodesicLength=1.5188367660357565 rxn_smarts="[C:1]([N:2]([C:3](=[O:4])[C:5]([C:6]([H:13])([H:14])[H:15])([C:7]([H:16])([H:17])[H:18])[H:12])[H:11])([H:8])([H:9])[H:10]>>[C:1]([N:2]([C@:3]1([H:12])[O:4][C:5]1([C:6]([H:13])([H:14])[H:15])[C:7]([H:16])([H:17])[H:18])[H:11])([H:8])([H:9])[H:10]"
C        2.61809925      -0.28622312      -0.27952966
N        1.50944975       0.47789531      -0.78792328
C        0.39370901       0.85306085      -0.05554736
O        0.39499245       0.80478342       1.24391897
C       -0.90850208       0.17447218       0.05464005
C       -1.01508777      -1.32450032       0.14645733
C       -2.13873834       0.91389092       0.51770393
H        3.52911152       0.31234175      -0.34708724
H        2.74517342      -1.21911571      -0.83759155
H        2.46722859      -0.54452751       0.76750028
H        1.44461602       0.63138950      -1.77682632
H       -0.52051203       1.06096106      -1.10756840
H       -1.36849975      -1.60347596       1.14117972
H       -0.07745068      -1.85444761      -0.00896542
H       -1.72120312      -1.68279780      -0.60649953
H       -3.01986634       0.56800136      -0.02685811
H       -2.29776501       0.72726298       1.58205082
H       -2.03475489       1.99102869       0.38094576
18
Frame=15 idx=008114 GeodesicLength=1.6272201469682432 rxn_smarts="[C:1]([N:2]([C:3](=[O:4])[C:5]([C:6]([H:13])([H:14])[H:15])([C:7]([H:16])([H:17])[H:18])[H:12])[H:11])([H:8])([H:9])[H:10]>>[C:1]([N:2]([C@:3]1([H:12])[O:4][C:5]1([C:6]([H:13])([H:14])[H:15])[C:7]([H:16])([H:17])[H:18])[H:11])([H:8])([H:9])[H:10]"
C        2.62870633      -0.27376583      -0.28264390
N        1.52981093       0.52418329      -0.76323173
C        0.40296137       0.85001724      -0.03162142
O        0.37724787       0.73583839       1.26377512
C       -0.90338615       0.17640102       0.05138864
C       -1.01892121      -1.32492093       0.14310527
C       -2.13965563       0.91652051       0.50734163
H        3.55939879       0.28208947      -0.41448115
H        2.69639654      -1.22968759      -0.81109208
H        2.51012600      -0.48450717       0.77867227
H        1.43313787       0.63427013      -1.75622855
H       -0.52861300       1.03765959      -1.10315861
H       -1.34970947      -1.59769850       1.14733149
H       -0.08702498      -1.86002818      -0.02783540
H       -1.74727874      -1.68162365      -0.58824199
H       -3.01278945       0.58013565      -0.05578337
H       -2.31569483       0.72072704       1.56684761
H       -2.03471224       1.99438952       0.37585617
18
Frame=16 idx=008114 GeodesicLength=1.7358441120828456 rxn_smarts="[C:1]([N:2]([C:3](=[O:4])[C:5]([C:6]([H:13])([H:14])[H:15])([C:7]([H:16])([H:17])[H:18])[H:12])[H:11])([H:8])([H:9])[H:10]>>[C:1]([N:2]([C@:3]1([H:12])[O:4][C:5]1([C:6]([H:13])([H:14])[H:15])[C:7]([H:16])([H:17])[H:18])[H:11])([H:8])([H:9])[H:10]"
C        2.63874788      -0.26013912      -0.28487939
N        1.54874735       0.56811868      -0.73909459
C        0.41236052       0.84490554      -0.00868351
O        0.36116785       0.66603515       1.27892460
C       -0.89792805       0.17713312       0.04825566
C       -1.02444209      -1.32652303       0.13883156
C       -2.13890924       0.91941943       0.49810899
H        3.58301660       0.25129764      -0.48299991
H        2.64912625      -1.23713604      -0.77799129
H        2.55476882      -0.42007254       0.78834167
H        1.42444421       0.63994351      -1.73350892
H       -0.53650269       1.01201063      -1.10032889
H       -1.33362976      -1.59386703       1.15152110
H       -0.09876654      -1.86725378      -0.04714109
H       -1.77452725      -1.68003808      -0.57108846
H       -3.00480573       0.59328908      -0.08204982
H       -2.33050103       0.71504914       1.55279818
H       -2.03236710       1.99782773       0.37098411
