16
Frame=0 idx=001481 GeodesicLength=0.0 rxn_smarts="[C:1]([C@@:2]1([H:10])[C@@:3]2([H:11])[C:4]([H:12])([H:13])[C:5]([H:14])([H:15])[C@@:6]12[H:16])([H:7])([H:8])[H:9]>>[C:1]([C@@:2]1([H:10])[C@@:3]([C:6][H:16])([H:11])[C:4]([H:12])([H:13])[C:5]1([H:14])[H:15])([H:7])([H:8])[H:9]"
C        1.45008530      -0.15900021       0.95973771
C        0.53107182      -0.63917004      -0.14056647
C       -0.94567685      -0.81121159      -0.00207619
C       -1.25160971       0.65392125       0.33921392
C       -0.15190095       1.07586464      -0.67527381
C       -0.91943910      -0.58512418      -1.50266424
H        1.73138681      -1.02734381       1.56258215
H        0.99505904       0.57411972       1.62306019
H        2.36576239       0.26798394       0.54377068
H        1.04476831      -1.40764659      -0.71278173
H       -1.40469333      -1.68941718       0.45119736
H       -2.25074797       0.96960296       0.04629486
H       -1.05139829       0.96467461       1.36672404
H        0.71919667       1.59808653      -0.27364599
H       -0.47336183       1.61153711      -1.55833478
H       -0.38850237      -1.39687714      -2.02723771
16
Frame=1 idx=001481 GeodesicLength=0.05711200546854249 rxn_smarts="[C:1]([C@@:2]1([H:10])[C@@:3]2([H:11])[C:4]([H:12])([H:13])[C:5]([H:14])([H:15])[C@@:6]12[H:16])([H:7])([H:8])[H:9]>>[C:1]([C@@:2]1([H:10])[C@@:3]([C:6][H:16])([H:11])[C:4]([H:12])([H:13])[C:5]1([H:14])[H:15])([H:7])([H:8])[H:9]"
C        1.45348968      -0.16840722       0.95981919
C        0.53564501      -0.63205895      -0.14811710
C       -0.94416666      -0.80564373       0.00031755
C       -1.25722560       0.65898422       0.33554876
C       -0.15549688       1.08213250      -0.67557135
C       -0.89813450      -0.59029651      -1.49765732
H        1.72493800      -1.04205215       1.55929111
H        1.00201122       0.56572716       1.62455961
H        2.37407733       0.25447961       0.55057130
H        1.05309285      -1.39594806      -0.72399471
H       -1.39413329      -1.68325534       0.46248626
H       -2.25674463       0.97021804       0.03907329
H       -1.06424974       0.97179897       1.36371529
H        0.70742103       1.61611418      -0.27163390
H       -0.47926535       1.62044946      -1.55674858
H       -0.40125847      -1.42224217      -2.02165941
16
Frame=2 idx=001481 GeodesicLength=0.1141772443570653 rxn_smarts="[C:1]([C@@:2]1([H:10])[C@@:3]2([H:11])[C:4]([H:12])([H:13])[C:5]([H:14])([H:15])[C@@:6]12[H:16])([H:7])([H:8])[H:9]>>[C:1]([C@@:2]1([H:10])[C@@:3]([C:6][H:16])([H:11])[C:4]([H:12])([H:13])[C:5]1([H:14])[H:15])([H:7])([H:8])[H:9]"
C        1.45699380      -0.17794937       0.95996125
C        0.54039077      -0.62495564      -0.15541689
C       -0.94250046      -0.80015551       0.00266834
C       -1.26288753       0.66389023       0.33175856
C       -0.15911660       1.08821473      -0.67597016
C       -0.87693684      -0.59552879      -1.49244898
H        1.71828551      -1.05674839       1.55617909
H        1.00922871       0.55750169       1.62587398
H        2.38260953       0.24034848       0.55740438
H        1.06157550      -1.38411916      -0.73508903
H       -1.38334436      -1.67697531       0.47384854
H       -2.26277344       0.97057859       0.03168666
H       -1.07733925       0.97887046       1.36052670
H        0.69531677       1.63415290      -0.26986581
H       -0.48522724       1.62894075      -1.55538579
H       -0.41427486      -1.44606565      -2.01573084
16
Frame=3 idx=001481 GeodesicLength=0.1712043053633262 rxn_smarts="[C:1]([C@@:2]1([H:10])[C@@:3]2([H:11])[C:4]([H:12])([H:13])[C:5]([H:14])([H:15])[C@@:6]12[H:16])([H:7])([H:8])[H:9]>>[C:1]([C@@:2]1([H:10])[C@@:3]([C:6][H:16])([H:11])[C:4]([H:12])([H:13])[C:5]1([H:14])[H:15])([H:7])([H:8])[H:9]"
C        1.46060182      -0.18762880       0.96016307
C        0.54530532      -0.61785970      -0.16246132
C       -0.94068563      -0.79474794       0.00499527
C       -1.26859597       0.66864015       0.32785322
C       -0.16276782       1.09410522      -0.67647485
C       -0.85587284      -0.60082174      -1.48702458
H        1.71142968      -1.07142649       1.55325007
H        1.01673488       0.54945250       1.62700135
H        2.39135689       0.22557238       0.56425597
H        1.07020035      -1.37219791      -0.74601745
H       -1.37234533      -1.67057192       0.48529354
H       -2.26883666       0.97068541       0.02415366
H       -1.09066165       0.98589284       1.35716223
H        0.68286534       1.65220378      -0.26836446
H       -0.49126787       1.63701132      -1.55424573
H       -0.42746049      -1.46830911      -2.00953998
16
Frame=4 idx=001481 GeodesicLength=0.2282278967957046 rxn_smarts="[C:1]([C@@:2]1([H:10])[C@@:3]2([H:11])[C:4]([H:12])([H:13])[C:5]([H:14])([H:15])[C@@:6]12[H:16])([H:7])([H:8])[H:9]>>[C:1]([C@@:2]1([H:10])[C@@:3]([C:6][H:16])([H:11])[C:4]([H:12])([H:13])[C:5]1([H:14])[H:15])([H:7])([H:8])[H:9]"
C        1.46432031      -0.19744486       0.96042074
C        0.55039122      -0.61077554      -0.16925561
C       -0.93873981      -0.78943416       0.00731889
C       -1.27436437       0.67324374       0.32385502
C       -0.16644645       1.09981715      -0.67708805
C       -0.83495697      -0.60618697      -1.48137949
H        1.70436031      -1.08608974       1.55050429
H        1.02454805       0.54160157       1.62794615
H        2.40033600       0.21014170       0.57110528
H        1.07897233      -1.36022706      -0.75676239
H       -1.36117975      -1.66406580       0.49683525
H       -2.27495464       0.97054842       0.01650962
H       -1.10423402       0.99288498       1.35364600
H        0.67006512       1.67029742      -0.26714946
H       -0.49738691       1.64468619      -1.55332732
H       -0.44073040      -1.48899706      -2.00317892
16
Frame=5 idx=001481 GeodesicLength=0.2851689049371995 rxn_smarts="[C:1]([C@@:2]1([H:10])[C@@:3]2([H:11])[C:4]([H:12])([H:13])[C:5]([H:14])([H:15])[C@@:6]12[H:16])([H:7])([H:8])[H:9]>>[C:1]([C@@:2]1([H:10])[C@@:3]([C:6][H:16])([H:11])[C:4]([H:12])([H:13])[C:5]1([H:14])[H:15])([H:7])([H:8])[H:9]"
C        1.46813376      -0.20740995       0.96074166
C        0.55562696      -0.60367222      -0.17577446
C       -0.93662686      -0.78416731       0.00965059
C       -1.28014647       0.67767383       0.31973431
C       -0.17018847       1.10530001      -0.67781221
C       -0.81421987      -0.61157297      -1.47547323
H        1.69708684      -1.10070689       1.54795052
H        1.03269992       0.53390576       1.62868527
H        2.40947404       0.19400977       0.57796963
H        1.08783101      -1.34817547      -0.76722945
H       -1.34977572      -1.65736452       0.50846539
H       -2.28106100       0.97013478       0.00871584
H       -1.11798127       0.99979518       1.34991762
H        0.65684372       1.68834989      -0.26624042
H       -0.50365302       1.65189951      -1.55262385
H       -0.45404357      -1.50799942      -1.99667721
16
Frame=6 idx=001481 GeodesicLength=0.34212138164604616 rxn_smarts="[C:1]([C@@:2]1([H:10])[C@@:3]2([H:11])[C:4]([H:12])([H:13])[C:5]([H:14])([H:15])[C@@:6]12[H:16])([H:7])([H:8])[H:9]>>[C:1]([C@@:2]1([H:10])[C@@:3]([C:6][H:16])([H:11])[C:4]([H:12])([H:13])[C:5]1([H:14])[H:15])([H:7])([H:8])[H:9]"
C        1.47206573      -0.21751785       0.96111992
C        0.56103322      -0.59656285      -0.18204345
C       -0.93438766      -0.77898398       0.01200822
C       -1.28599023       0.68196341       0.31553404
C       -0.17396783       1.11060930      -0.67864297
C       -0.79365582      -0.61701957      -1.46932707
H        1.68959462      -1.11530432       1.54557705
H        1.04120322       0.52640743       1.62924715
H        2.41884076       0.17718326       0.58482352
H        1.09683106      -1.33609096      -0.77746936
H       -1.33823089      -1.65053936       0.52020120
H       -2.28722612       0.96947597       0.00083023
H       -1.13197707       1.00668185       1.34604040
H        0.64323681       1.70645615      -0.26564174
H       -0.51002690       1.65872741      -1.55213186
H       -0.46734288      -1.52548589      -1.99012527
16
Frame=7 idx=001481 GeodesicLength=0.3990530677416507 rxn_smarts="[C:1]([C@@:2]1([H:10])[C@@:3]2([H:11])[C:4]([H:12])([H:13])[C:5]([H:14])([H:15])[C@@:6]12[H:16])([H:7])([H:8])[H:9]>>[C:1]([C@@:2]1([H:10])[C@@:3]([C:6][H:16])([H:11])[C:4]([H:12])([H:13])[C:5]1([H:14])[H:15])([H:7])([H:8])[H:9]"
C        1.47610855      -0.22777279       0.96155844
C        0.56660001      -0.58943634      -0.18805038
C       -0.93201187      -0.77386696       0.01440632
C       -1.29187616       0.68610366       0.31125268
C       -0.17779768       1.11572935      -0.67958127
C       -0.77327250      -0.62250210      -1.46292312
H        1.68189101      -1.12986290       1.54339204
H        1.05007978       0.51909512       1.62962567
H        2.42839684       0.15964831       0.59166423
H        1.10594210      -1.32398620      -0.78742698
H       -1.32653354      -1.64355977       0.53203495
H       -2.29342286       0.96856185      -0.00714694
H       -1.14618726       1.01352419       1.34200068
H        0.62921064       1.72458709      -0.26537517
H       -0.51653737       1.66514934      -1.55185045
H       -0.48058971      -1.54141184      -1.98358071
16
Frame=8 idx=001481 GeodesicLength=0.45595877723490463 rxn_smarts="[C:1]([C@@:2]1([H:10])[C@@:3]2([H:11])[C:4]([H:12])([H:13])[C:5]([H:14])([H:15])[C@@:6]12[H:16])([H:7])([H:8])[H:9]>>[C:1]([C@@:2]1([H:10])[C@@:3]([C:6][H:16])([H:11])[C:4]([H:12])([H:13])[C:5]1([H:14])[H:15])([H:7])([H:8])[H:9]"
C        1.48026617      -0.23817263       0.96205489
C        0.57232435      -0.58228919      -0.19379093
C       -0.92950782      -0.76881319       0.01685462
C       -1.29780565       0.69009995       0.30690109
C       -0.18167831       1.12066853      -0.68062071
C       -0.75307023      -0.62801208      -1.45625534
H        1.67399123      -1.14437220       1.54138970
H        1.05934624       0.51196633       1.62982581
H        2.43813070       0.14141165       0.59847819
H        1.11515639      -1.31188411      -0.79707425
H       -1.31472103      -1.63642675       0.54394727
H       -2.29965366       0.96739997      -0.01519828
H       -1.16060794       1.02031802       1.33780621
H        0.61475982       1.74274632      -0.26545689
H       -0.52318832       1.67117631      -1.55177010
H       -0.49374195      -1.55581692      -1.97709127
16
Frame=9 idx=001481 GeodesicLength=0.5128535733562892 rxn_smarts="[C:1]([C@@:2]1([H:10])[C@@:3]2([H:11])[C:4]([H:12])([H:13])[C:5]([H:14])([H:15])[C@@:6]12[H:16])([H:7])([H:8])[H:9]>>[C:1]([C@@:2]1([H:10])[C@@:3]([C:6][H:16])([H:11])[C:4]([H:12])([H:13])[C:5]1([H:14])[H:15])([H:7])([H:8])[H:9]"
C        1.48453663      -0.24872403       0.96261426
C        0.57821189      -0.57510631      -0.19926923
C       -0.92686718      -0.76381488       0.01936788
C       -1.30377641       0.69395345       0.30248270
C       -0.18561051       1.12543436      -0.68176068
C       -0.73303943      -0.63354135      -1.44931913
H        1.66587544      -1.15883396       1.53957505
H        1.06902427       0.50501571       1.62985135
H        2.44803486       0.12244142       0.60527316
H        1.12448638      -1.29975875      -0.80642343
H       -1.30278429      -1.62912875       0.55595510
H       -2.30591511       0.96598019      -0.02332424
H       -1.17524215       1.02706833       1.33345686
H        0.59986184       1.76094300      -0.26589332
H       -0.52998944       1.67681089      -1.55189222
H       -0.50680681      -1.56873931      -1.97069411
16
Frame=10 idx=001481 GeodesicLength=0.5697067037360928 rxn_smarts="[C:1]([C@@:2]1([H:10])[C@@:3]2([H:11])[C:4]([H:12])([H:13])[C:5]([H:14])([H:15])[C@@:6]12[H:16])([H:7])([H:8])[H:9]>>[C:1]([C@@:2]1([H:10])[C@@:3]([C:6][H:16])([H:11])[C:4]([H:12])([H:13])[C:5]1([H:14])[H:15])([H:7])([H:8])[H:9]"
C        1.48892068      -0.25942615       0.96323863
C        0.58425602      -0.56787651      -0.20447525
C       -0.92408612      -0.75885560       0.02194851
C       -1.30977634       0.69765847       0.29799452
C       -0.18959979       1.13001983      -0.68299289
C       -0.71318001      -0.63906885      -1.44210488
H        1.65756228      -1.17322594       1.53794420
H        1.07913327       0.49822361       1.62970439
H        2.45808188       0.10274286       0.61205111
H        1.13391536      -1.28760167      -0.81544334
H       -1.29073639      -1.62164310       0.56802998
H       -2.31219110       0.96429664      -0.03152724
H       -1.19006627       1.03375376       1.32893972
H        0.58450100       1.77914822      -0.26669562
H       -0.53695267       1.68203800      -1.55220778
H       -0.51978178      -1.58018354      -1.96440408
16
Frame=11 idx=001481 GeodesicLength=0.6265572987885634 rxn_smarts="[C:1]([C@@:2]1([H:10])[C@@:3]2([H:11])[C:4]([H:12])([H:13])[C:5]([H:14])([H:15])[C@@:6]12[H:16])([H:7])([H:8])[H:9]>>[C:1]([C@@:2]1([H:10])[C@@:3]([C:6][H:16])([H:11])[C:4]([H:12])([H:13])[C:5]1([H:14])[H:15])([H:7])([H:8])[H:9]"
C        1.49342521      -0.27027939       0.96392675
C        0.59046736      -0.56060571      -0.20941667
C       -0.92118504      -0.75395164       0.02461599
C       -1.31582811       0.70123442       0.29346202
C       -0.19363242       1.13445622      -0.68431545
C       -0.69347595      -0.64461538      -1.43461884
H        1.64905407      -1.18756360       1.53649137
H        1.08968210       0.49160333       1.62940604
H        2.46828631       0.08232487       0.61879403
H        1.14347071      -1.27544376      -0.82415659
H       -1.27862677      -1.61400741       0.58018749
H       -2.31851322       0.96236659      -0.03977593
H       -1.20511554       1.04040760       1.32428929
H        0.56868708       1.79741086      -0.26787741
H       -0.54405740       1.68688840      -1.55272416
H       -0.53263837      -1.59022540      -1.95828795
16
Frame=12 idx=001481 GeodesicLength=0.6833603548468513 rxn_smarts="[C:1]([C@@:2]1([H:10])[C@@:3]2([H:11])[C:4]([H:12])([H:13])[C:5]([H:14])([H:15])[C@@:6]12[H:16])([H:7])([H:8])[H:9]>>[C:1]([C@@:2]1([H:10])[C@@:3]([C:6][H:16])([H:11])[C:4]([H:12])([H:13])[C:5]1([H:14])[H:15])([H:7])([H:8])[H:9]"
C        1.49803659      -0.28129228       0.96468501
C        0.59683223      -0.55326865      -0.21407626
C       -0.91813708      -0.74906704       0.02737719
C       -1.32189922       0.70466529       0.28886474
C       -0.19772554       1.13871749      -0.68572472
C       -0.67392793      -0.65013939      -1.42683413
H        1.64036399      -1.20182521       1.53521277
H        1.10069021       0.48510657       1.62895085
H        2.47858428       0.06116785       0.62551965
H        1.15311790      -1.26323787      -0.83252495
H       -1.26640889      -1.60615985       0.59242158
H       -2.32483328       0.96016846      -0.04810069
H       -1.22034033       1.04699254       1.31946340
H        0.55237402       1.81566984      -0.26945128
H       -0.55133843       1.69131504      -1.55343744
H       -0.54538852      -1.59881280      -1.95234570
16
Frame=13 idx=001481 GeodesicLength=0.7401639993645045 rxn_smarts="[C:1]([C@@:2]1([H:10])[C@@:3]2([H:11])[C:4]([H:12])([H:13])[C:5]([H:14])([H:15])[C@@:6]12[H:16])([H:7])([H:8])[H:9]>>[C:1]([C@@:2]1([H:10])[C@@:3]([C:6][H:16])([H:11])[C:4]([H:12])([H:13])[C:5]1([H:14])[H:15])([H:7])([H:8])[H:9]"
C        1.50276908      -0.29246653       0.96551276
C        0.60336812      -0.54586250      -0.21846428
C       -0.91495671      -0.74421552       0.03024359
C       -1.32801701       0.70796694       0.28422251
C       -0.20186678       1.14283909      -0.68721505
C       -0.65451096      -0.65566256      -1.41876266
H        1.63147117      -1.21602050       1.53411288
H        1.11218287       0.47875313       1.62834884
H        2.48901105       0.03924506       0.63221514
H        1.16290059      -1.25098126      -0.84058693
H       -1.25413053      -1.59813499       0.60474024
H       -2.33119013       0.95770543      -0.05647992
H       -1.23578657       1.05353628       1.31449137
H        0.53556856       1.83397549      -0.27142555
H       -0.55877890       1.69535181      -1.55434993
H       -0.55803385      -1.60602937      -1.94660300
16
Frame=14 idx=001481 GeodesicLength=0.7969465097895743 rxn_smarts="[C:1]([C@@:2]1([H:10])[C@@:3]2([H:11])[C:4]([H:12])([H:13])[C:5]([H:14])([H:15])[C@@:6]12[H:16])([H:7])([H:8])[H:9]>>[C:1]([C@@:2]1([H:10])[C@@:3]([C:6][H:16])([H:11])[C:4]([H:12])([H:13])[C:5]1([H:14])[H:15])([H:7])([H:8])[H:9]"
C        1.50761700      -0.30380205       0.96641332
C        0.61006926      -0.53838141      -0.22256959
C       -0.91164172      -0.73938518       0.03322528
C       -1.33417007       0.71113735       0.27953420
C       -0.20605451       1.14681592      -0.68878256
C       -0.63521612      -0.66117314      -1.41039276
H        1.62240992      -1.23014034       1.53317674
H        1.12416278       0.47250696       1.62762061
H        2.49952278       0.01658963       0.63888144
H        1.17280442      -1.23866864      -0.84832585
H       -1.24179750      -1.58991780       0.61714080
H       -2.33756513       0.95497539      -0.06491890
H       -1.25143677       1.06002870       1.30936447
H        0.51826041       1.85230184      -0.27381479
H       -0.56637577       1.69897609      -1.55546694
H       -0.57058897      -1.61186331      -1.94108547
16
Frame=15 idx=001481 GeodesicLength=0.8537217401951679 rxn_smarts="[C:1]([C@@:2]1([H:10])[C@@:3]2([H:11])[C:4]([H:12])([H:13])[C:5]([H:14])([H:15])[C@@:6]12[H:16])([H:7])([H:8])[H:9]>>[C:1]([C@@:2]1([H:10])[C@@:3]([C:6][H:16])([H:11])[C:4]([H:12])([H:13])[C:5]1([H:14])[H:15])([H:7])([H:8])[H:9]"
C        1.51258261      -0.31530719       0.96738968
C        0.61694079      -0.53080991      -0.22638853
C       -0.90818417      -0.73456610       0.03633368
C       -1.34036058       0.71417629       0.27479912
C       -0.21029260       1.15065430      -0.69042263
C       -0.61602835      -0.66666591      -1.40171481
H        1.61316426      -1.24418087       1.53241115
H        1.13666192       0.46635840       1.62676311
H        2.51011407      -0.00684685       0.64552085
H        1.18284312      -1.22626171      -0.85575287
H       -1.22940724      -1.58149354       0.62963552
H       -2.34395943       0.95196203      -0.07342664
H       -1.26729776       1.06646936       1.30407532
H        0.50042539       1.87064781      -0.27663195
H       -0.57414159       1.70217769      -1.55679037
H       -0.58306044      -1.61631383      -1.93580061
16
Frame=16 idx=001481 GeodesicLength=0.9104802759364926 rxn_smarts="[C:1]([C@@:2]1([H:10])[C@@:3]2([H:11])[C:4]([H:12])([H:13])[C:5]([H:14])([H:15])[C@@:6]12[H:16])([H:7])([H:8])[H:9]>>[C:1]([C@@:2]1([H:10])[C@@:3]([C:6][H:16])([H:11])[C:4]([H:12])([H:13])[C:5]1([H:14])[H:15])([H:7])([H:8])[H:9]"
C        1.51766254      -0.32698067       0.96844211
C        0.62398011      -0.52314804      -0.22991194
C       -0.90458850      -0.72975294       0.03957958
C       -1.34658426       0.71708747       0.27002049
C       -0.21457482       1.15435612      -0.69213268
C       -0.59693514      -0.67214011      -1.39271923
H        1.60377356      -1.25813912       1.53179597
H        1.14967710       0.46027152       1.62580136
H        2.52074660      -0.03101783       0.65212627
H        1.19300879      -1.21377023      -0.86285519
H       -1.21697711      -1.57286280       0.64222267
H       -2.35036471       0.94867222      -0.08199829
H       -1.28336421       1.07285796       1.29862271
H        0.48205971       1.88899774      -0.27989184
H       -0.58206275       1.70494144      -1.55832970
H       -0.59545692      -1.61937273      -1.93077229
