14
Frame=0 idx=008717 GeodesicLength=0.0 rxn_smarts="[C:1](/[N:2]=[C:3](\[N:4]([H:11])[H:12])[C:5](=[O:6])[N:7]([H:13])[H:14])([H:8])([H:9])[H:10]>>[C:1](=[N:2][C:3](=[N+:4]([H:11])[H:12])[C:5](=[O:6])[N-:7][H:14])([H:8])[H:10].[H:9][H:13]"
C        1.46602828       0.95837660      -0.49051541
N        1.08396319      -0.27492807      -0.55775341
C        0.13320727      -0.89055781       0.10966067
N        0.24587814      -2.15402022       0.43525960
C       -1.24436745      -0.30590264       0.47262034
O       -2.05551234      -1.11507087       0.92903314
N       -1.31548757       0.98691196       0.25214362
H        1.41825738       1.51906583       0.44053358
H        0.26203637       2.10488044      -1.18099907
H        2.14545042       1.31220854      -1.25854639
H       -0.59517454      -2.55315341       0.84191412
H        1.06504559      -2.69277667       0.21719584
H       -0.36642611       1.77903019      -0.70300581
H       -2.24289867       1.32593617       0.49245917
14
Frame=1 idx=008717 GeodesicLength=0.08221490073700863 rxn_smarts="[C:1](/[N:2]=[C:3](\[N:4]([H:11])[H:12])[C:5](=[O:6])[N:7]([H:13])[H:14])([H:8])([H:9])[H:10]>>[C:1](=[N:2][C:3](=[N+:4]([H:11])[H:12])[C:5](=[O:6])[N-:7][H:14])([H:8])[H:10].[H:9][H:13]"
C        1.46669187       0.94264446      -0.51314395
N        1.04715632      -0.27897093      -0.62240528
C        0.11153728      -0.89543355       0.06337311
N        0.25802025      -2.13653532       0.45729405
C       -1.26520462      -0.31524573       0.43543646
O       -2.06957469      -1.12703129       0.89877952
N       -1.32796057       0.98415496       0.25295226
H        1.46731972       1.45784586       0.44532553
H        0.27694058       2.12903425      -1.13483419
H        2.14973034       1.30236026      -1.27543670
H       -0.58156666      -2.54353639       0.85918908
H        1.10336689      -2.65369026       0.29420398
H       -0.38377087       1.81052391      -0.66209052
H       -2.25268583       1.32387977       0.50135666
14
Frame=2 idx=008717 GeodesicLength=0.16488717598691355 rxn_smarts="[C:1](/[N:2]=[C:3](\[N:4]([H:11])[H:12])[C:5](=[O:6])[N:7]([H:13])[H:14])([H:8])([H:9])[H:10]>>[C:1](=[N:2][C:3](=[N+:4]([H:11])[H:12])[C:5](=[O:6])[N-:7][H:14])([H:8])[H:10].[H:9][H:13]"
C        1.46780849       0.92720115      -0.53369439
N        1.01188434      -0.28101731      -0.68034906
C        0.09141104      -0.89948023       0.02209836
N        0.26868839      -2.11731994       0.47435824
C       -1.28532576      -0.32399577       0.40100876
O       -2.08231778      -1.13867811       0.87168579
N       -1.34128911       0.98026833       0.25215859
H        1.51609012       1.39599189       0.44743448
H        0.29296381       2.14810131      -1.08843448
H        2.15408699       1.29064476      -1.29152781
H       -0.56684738      -2.53160012       0.87727060
H        1.13760472      -2.60817375       0.36264037
H       -0.40086995       1.83788378      -0.62163944
H       -2.26388792       1.32017399       0.50698999
14
Frame=3 idx=008717 GeodesicLength=0.24791973579295873 rxn_smarts="[C:1](/[N:2]=[C:3](\[N:4]([H:11])[H:12])[C:5](=[O:6])[N:7]([H:13])[H:14])([H:8])([H:9])[H:10]>>[C:1](=[N:2][C:3](=[N+:4]([H:11])[H:12])[C:5](=[O:6])[N-:7][H:14])([H:8])[H:10].[H:9][H:13]"
C        1.46946515       0.91230256      -0.55239513
N        0.97830295      -0.28126208      -0.73213777
C        0.07305265      -0.90251917      -0.01423621
N        0.27832850      -2.09722289       0.48764975
C       -1.30436819      -0.33209404       0.36981263
O       -2.09404524      -1.15017533       0.84663971
N       -1.35541003       0.97564017       0.24996793
H        1.56489905       1.33392667       0.44683382
H        0.30981823       2.16285496      -1.04169494
H        2.15825823       1.27771556      -1.30723155
H       -0.55159352      -2.51771999       0.89573170
H        1.16792536      -2.55841425       0.42338536
H       -0.41812608       1.86179222      -0.58183277
H       -2.27650705       1.31517563       0.50950747
14
Frame=4 idx=008717 GeodesicLength=0.331314667979206 rxn_smarts="[C:1](/[N:2]=[C:3](\[N:4]([H:11])[H:12])[C:5](=[O:6])[N:7]([H:13])[H:14])([H:8])([H:9])[H:10]>>[C:1](=[N:2][C:3](=[N+:4]([H:11])[H:12])[C:5](=[O:6])[N-:7][H:14])([H:8])[H:10].[H:9][H:13]"
C        1.47174609       0.89812668      -0.56957747
N        0.94651406      -0.27993966      -0.77833746
C        0.05654108      -0.90446639      -0.04586839
N        0.28713661      -2.07695016       0.49800879
C       -1.32223619      -0.33958756       0.34176107
O       -2.10486616      -1.16155863       0.82333335
N       -1.37019662       0.97060684       0.24670325
H        1.61419188       1.27201792       0.44329976
H        0.32731654       2.17397611      -0.99447706
H        2.16195870       1.26414325      -1.32310783
H       -0.53662759      -2.50291967       0.91289476
H        1.19482649      -2.50559391       0.47875842
H       -0.43585606       1.88290668      -0.54271425
H       -2.29044882       1.30923850       0.50932305
14
Frame=5 idx=008717 GeodesicLength=0.41492214462075233 rxn_smarts="[C:1](/[N:2]=[C:3](\[N:4]([H:11])[H:12])[C:5](=[O:6])[N:7]([H:13])[H:14])([H:8])([H:9])[H:10]>>[C:1](=[N:2][C:3](=[N+:4]([H:11])[H:12])[C:5](=[O:6])[N-:7][H:14])([H:8])[H:10].[H:9][H:13]"
C        1.47465222       0.88465547      -0.58531126
N        0.91642270      -0.27721951      -0.81975984
C        0.04164086      -0.90542604      -0.07372957
N        0.29547329      -2.05653254       0.50643712
C       -1.33906434      -0.34661105       0.31622547
O       -2.11472792      -1.17276574       0.80171586
N       -1.38570288       0.96528919       0.24217798
H        1.66404449       1.20991374       0.43697187
H        0.34549759       2.18204013      -0.94623167
H        2.16505468       1.25044767      -1.33908855
H       -0.52175133      -2.48703349       0.92949906
H        1.21838804      -2.45103413       0.52896097
H       -0.45425225       1.90174860      -0.50430486
H       -2.30567516       1.30252770       0.50643742
14
Frame=6 idx=008717 GeodesicLength=0.49870742006183594 rxn_smarts="[C:1](/[N:2]=[C:3](\[N:4]([H:11])[H:12])[C:5](=[O:6])[N:7]([H:13])[H:14])([H:8])([H:9])[H:10]>>[C:1](=[N:2][C:3](=[N+:4]([H:11])[H:12])[C:5](=[O:6])[N-:7][H:14])([H:8])[H:10].[H:9][H:13]"
C        1.47825756       0.87196631      -0.59961176
N        0.88803021      -0.27322908      -0.85667044
C        0.02834780      -0.90534779      -0.09789603
N        0.30366029      -2.03587017       0.51415280
C       -1.35477275      -0.35311515       0.29331542
O       -2.12352415      -1.18360656       0.78221934
N       -1.40192673       0.95992355       0.23633979
H        1.71459400       1.14779333       0.42778506
H        0.36436577       2.18741476      -0.89663763
H        2.16741911       1.23704281      -1.35521488
H       -0.50721136      -2.47073241       0.94492073
H        1.23875085      -2.39618656       0.57391519
H       -0.47364335       1.91869428      -0.46699875
H       -2.32234724       1.29525268       0.50038117
14
Frame=7 idx=008717 GeodesicLength=0.5826224521553925 rxn_smarts="[C:1](/[N:2]=[C:3](\[N:4]([H:11])[H:12])[C:5](=[O:6])[N:7]([H:13])[H:14])([H:8])([H:9])[H:10]>>[C:1](=[N:2][C:3](=[N+:4]([H:11])[H:12])[C:5](=[O:6])[N-:7][H:14])([H:8])[H:10].[H:9][H:13]"
C        1.48257621       0.86001285      -0.61255481
N        0.86122795      -0.26809828      -0.88952921
C        0.01652862      -0.90427136      -0.11876591
N        0.31181393      -2.01486761       0.52176393
C       -1.36943651      -0.35913344       0.27271377
O       -2.13129105      -1.19400570       0.76475975
N       -1.41883682       0.95464200       0.22915494
H        1.76599191       1.08544476       0.41560575
H        0.38397671       2.19036701      -0.84505098
H        2.16881992       1.22432086      -1.37154163
H       -0.49294989      -2.45406329       0.95954134
H        1.25628738      -2.34203666       0.61386122
H       -0.49423265       1.93412757      -0.43087128
H       -2.34047571       1.28756130       0.49091312
14
Frame=8 idx=008717 GeodesicLength=0.6666698673954942 rxn_smarts="[C:1](/[N:2]=[C:3](\[N:4]([H:11])[H:12])[C:5](=[O:6])[N:7]([H:13])[H:14])([H:8])([H:9])[H:10]>>[C:1](=[N:2][C:3](=[N+:4]([H:11])[H:12])[C:5](=[O:6])[N-:7][H:14])([H:8])[H:10].[H:9][H:13]"
C        1.48764434       0.84869837      -0.62429872
N        0.83589861      -0.26195067      -0.91884956
C        0.00601649      -0.90226798      -0.13679919
N        0.31988764      -1.99357022       0.52942230
C       -1.38317592      -0.36471191       0.25407763
O       -2.13817494      -1.20394325       0.74908874
N       -1.43637562       0.94951888       0.22065892
H        1.81844225       1.02253501       0.40012115
H        0.40442229       2.19098701      -0.79072271
H        2.16900272       1.21268881      -1.38822616
H       -0.47902858      -2.43710795       0.97352076
H        1.27154892      -2.28881886       0.64983773
H       -0.51615528       1.94837023      -0.39594118
H       -2.35995291       1.27957251       0.47811028
14
Frame=9 idx=008717 GeodesicLength=0.7507418847649179 rxn_smarts="[C:1](/[N:2]=[C:3](\[N:4]([H:11])[H:12])[C:5](=[O:6])[N:7]([H:13])[H:14])([H:8])([H:9])[H:10]>>[C:1](=[N:2][C:3](=[N+:4]([H:11])[H:12])[C:5](=[O:6])[N-:7][H:14])([H:8])[H:10].[H:9][H:13]"
C        1.49349230       0.83792861      -0.63488333
N        0.81200933      -0.25489915      -0.94495557
C       -0.00329037      -0.89938185      -0.15231088
N        0.32790443      -1.97186182       0.53744617
C       -1.39606665      -0.36984258       0.23711380
O       -2.14425778      -1.21330791       0.73500778
N       -1.45452549       0.94460936       0.21073150
H        1.87194600       0.95882480       0.38103481
H        0.42571260       2.18910333      -0.73299121
H        2.16775548       1.20254259      -1.40520198
H       -0.46543050      -2.41976864       0.98719710
H        1.28494638      -2.23700669       0.68216404
H       -0.53955598       1.96166891      -0.36245400
H       -2.38063975       1.27139105       0.46210178
14
Frame=10 idx=008717 GeodesicLength=0.8348198787701061 rxn_smarts="[C:1](/[N:2]=[C:3](\[N:4]([H:11])[H:12])[C:5](=[O:6])[N:7]([H:13])[H:14])([H:8])([H:9])[H:10]>>[C:1](=[N:2][C:3](=[N+:4]([H:11])[H:12])[C:5](=[O:6])[N-:7][H:14])([H:8])[H:10].[H:9][H:13]"
C        1.50015714       0.82765290      -0.64439305
N        0.78959415      -0.24709400      -0.96810200
C       -0.01143857      -0.89565645      -0.16550240
N        0.33581075      -1.94971330       0.54610710
C       -1.40816625      -0.37453820       0.22146998
O       -2.14966786      -1.22209347       0.72215931
N       -1.47323313       0.93997026       0.19911526
H        1.92652659       0.89427325       0.35790991
H        0.44782234       2.18440737      -0.67124145
H        2.16480664       1.19437717      -1.42247452
H       -0.45223350      -2.40204267       1.00074884
H        1.29675098      -2.18690146       0.71147987
H       -0.56450850       1.97422641      -0.33063752
H       -2.40222077       1.26313220       0.44336067
14
Frame=11 idx=008717 GeodesicLength=0.9188330110319521 rxn_smarts="[C:1](/[N:2]=[C:3](\[N:4]([H:11])[H:12])[C:5](=[O:6])[N:7]([H:13])[H:14])([H:8])([H:9])[H:10]>>[C:1](=[N:2][C:3](=[N+:4]([H:11])[H:12])[C:5](=[O:6])[N-:7][H:14])([H:8])[H:10].[H:9][H:13]"
C        1.50765714       0.81777333      -0.65292648
N        0.76869384      -0.23870141      -0.98857462
C       -0.01849364      -0.89116448      -0.17664948
N        0.34355650      -1.92701787       0.55562690
C       -1.41954065      -0.37880844       0.20674652
O       -2.15453600      -1.23025491       0.71013094
N       -1.49242292       0.93560261       0.18553712
H        1.98209737       0.82878668       0.33022033
H        0.47063792       2.17632205      -0.60498309
H        2.15990282       1.18866454      -1.43994273
H       -0.43952759      -2.38383553       1.01436689
H        1.30724860      -2.13846296       0.73848296
H       -0.59091269       1.98622375      -0.30045309
H       -2.42436070       1.25487262       0.42241783
14
Frame=12 idx=008717 GeodesicLength=1.0027430947870861 rxn_smarts="[C:1](/[N:2]=[C:3](\[N:4]([H:11])[H:12])[C:5](=[O:6])[N:7]([H:13])[H:14])([H:8])([H:9])[H:10]>>[C:1](=[N:2][C:3](=[N+:4]([H:11])[H:12])[C:5](=[O:6])[N-:7][H:14])([H:8])[H:10].[H:9][H:13]"
C        1.51597891       0.80818152      -0.66062076
N        0.74934375      -0.22991194      -1.00669911
C       -0.02452734      -0.88601840      -0.18607149
N        0.35108778      -1.90365663       0.56617682
C       -1.43026086      -0.38268691       0.19248589
O       -2.15898274      -1.23777899       0.69848285
N       -1.51199953       0.93147534       0.16968793
H        2.03845311       0.76234072       0.29734804
H        0.49399453       2.16410314      -0.53403434
H        2.15281970       1.18584244      -1.45744430
H       -0.42738032      -2.36497834       1.02828373
H        1.31664614      -2.09140356       0.76396264
H       -0.61843165       1.99782657      -0.27126594
H       -2.44674147       1.24666504       0.39970804
14
Frame=13 idx=008717 GeodesicLength=1.0867013309631421 rxn_smarts="[C:1](/[N:2]=[C:3](\[N:4]([H:11])[H:12])[C:5](=[O:6])[N:7]([H:13])[H:14])([H:8])([H:9])[H:10]>>[C:1](=[N:2][C:3](=[N+:4]([H:11])[H:12])[C:5](=[O:6])[N-:7][H:14])([H:8])[H:10].[H:9][H:13]"
C        1.52509714       0.79875514      -0.66768716
N        0.73153103      -0.22092788      -1.02285558
C       -0.02962888      -0.88036125      -0.19409731
N        0.35834068      -1.87957219       0.57780842
C       -1.44039124      -0.38621791       0.17831957
O       -2.16311223      -1.24465162       0.68693748
N       -1.53181856       0.92754160       0.15134801
H        2.09538645       0.69502203       0.25852455
H        0.51784605       2.14695272      -0.45839194
H        2.14334978       1.18628482      -1.47484196
H       -0.41586592      -2.34538848       1.04256581
H        1.32504453      -2.04505606       0.78895793
H       -0.64661049       2.00909155      -0.24178611
H       -2.46916834       1.23852753       0.37519829
14
Frame=14 idx=008717 GeodesicLength=1.1705426856725607 rxn_smarts="[C:1](/[N:2]=[C:3](\[N:4]([H:11])[H:12])[C:5](=[O:6])[N:7]([H:13])[H:14])([H:8])([H:9])[H:10]>>[C:1](=[N:2][C:3](=[N+:4]([H:11])[H:12])[C:5](=[O:6])[N-:7][H:14])([H:8])[H:10].[H:9][H:13]"
C        1.53493607       0.78938830      -0.67413883
N        0.71535394      -0.21195625      -1.03741674
C       -0.03388299      -0.87443143      -0.20126122
N        0.36523895      -1.85468683       0.59044684
C       -1.44997004      -0.38949051       0.16361776
O       -2.16702057      -1.25097204       0.67475752
N       -1.55156173       0.92371902       0.13044923
H        2.15192821       0.62722498       0.21355184
H        0.54187580       2.12411846      -0.37945222
H        2.13182091       1.19001079      -1.49141756
H       -0.40509729      -2.32494159       1.05717552
H        1.33240787      -1.99849798       0.81450005
H       -0.67518257       2.01990545      -0.21138098
H       -2.49084656       1.23060963       0.35056878
14
Frame=15 idx=008717 GeodesicLength=1.2543865820518396 rxn_smarts="[C:1](/[N:2]=[C:3](\[N:4]([H:11])[H:12])[C:5](=[O:6])[N:7]([H:13])[H:14])([H:8])([H:9])[H:10]>>[C:1](=[N:2][C:3](=[N+:4]([H:11])[H:12])[C:5](=[O:6])[N-:7][H:14])([H:8])[H:10].[H:9][H:13]"
C        1.54544936       0.77993707      -0.67997332
N        0.70077063      -0.20311717      -1.05077229
C       -0.03740604      -0.86846826      -0.20805128
N        0.37172951      -1.82908045       0.60377845
C       -1.45898889      -0.39256021       0.14811135
O       -2.17073310      -1.25682561       0.66160630
N       -1.57078006       0.91999082       0.10758066
H        2.20721457       0.55934874       0.16236732
H        0.56602680       2.09516304      -0.29852122
H        2.11867284       1.19683118      -1.50649428
H       -0.39510427      -2.30367567       1.07188808
H        1.33859201      -1.95062701       0.84149987
H       -0.70415347       2.03007055      -0.17961424
H       -2.51128990       1.22301297       0.32659460
14
Frame=16 idx=008717 GeodesicLength=1.3383532361403918 rxn_smarts="[C:1](/[N:2]=[C:3](\[N:4]([H:11])[H:12])[C:5](=[O:6])[N:7]([H:13])[H:14])([H:8])([H:9])[H:10]>>[C:1](=[N:2][C:3](=[N+:4]([H:11])[H:12])[C:5](=[O:6])[N-:7][H:14])([H:8])[H:10].[H:9][H:13]"
C        1.55659775       0.77022377      -0.68511274
N        0.68755584      -0.19436758      -1.06325967
C       -0.04035759      -0.86269305      -0.21489299
N        0.37783299      -1.80296422       0.61729032
C       -1.46738418      -0.39542927       0.13195478
O       -2.17416245      -1.26226828       0.64761163
N       -1.58888639       0.91644093       0.08421463
H        2.26036478       0.49168770       0.10512983
H        0.59042986       2.05996861      -0.21683932
H        2.10445143       1.20636628      -1.51936908
H       -0.38577680      -2.28174941       1.08640770
H        1.34342179      -1.90041078       0.87041439
H       -0.73369179       2.03944723      -0.14641487
H       -2.53039526       1.21574808       0.30286539
