14
Frame=0 idx=008990 GeodesicLength=0.0 rxn_smarts="[C:1]([N:2]([C:3](=[O:4])[N:5](/[C:6](=[N:7]/[H:14])[H:13])[H:12])[H:11])([H:8])([H:9])[H:10]>>[C:1]([N:2]=[C:3]=[O:4])([H:8])([H:9])[H:10].[N-:5]([C+:6]([N:7]([H:11])[H:14])[H:13])[H:12]"
C        2.07276134      -0.12430224       0.53777370
N        0.69737730       0.24955208       0.25293803
C        0.39963501       0.35434367      -1.00436858
O        0.92572274       0.27544582      -2.07357582
N       -1.23658940       0.80126146      -1.06016710
C       -1.93251558      -0.14338237      -0.38710578
N       -1.69636988      -0.37038350       0.86768362
H        2.77700160       0.47152887      -0.04927294
H        2.26513447      -1.17864488       0.31178532
H        2.27471812       0.04138987       1.59612875
H       -0.64342089      -0.05995886       1.03936154
H       -1.11247081       1.59019265      -0.42975987
H       -2.63932113      -0.76763285      -0.93502850
H       -2.15166287      -1.13940974       1.33360767
14
Frame=1 idx=008990 GeodesicLength=0.12581536744064284 rxn_smarts="[C:1]([N:2]([C:3](=[O:4])[N:5](/[C:6](=[N:7]/[H:14])[H:13])[H:12])[H:11])([H:8])([H:9])[H:10]>>[C:1]([N:2]=[C:3]=[O:4])([H:8])([H:9])[H:10].[N-:5]([C+:6]([N:7]([H:11])[H:14])[H:13])[H:12]"
C        2.08927579      -0.11266857       0.54102762
N        0.70598918       0.20938325       0.23924244
C        0.40874068       0.33689329      -1.01501945
O        0.92146975       0.23682355      -2.08836173
N       -1.24672974       0.81556407      -1.04236050
C       -1.96202608      -0.11997689      -0.38065178
N       -1.70968361      -0.38535202       0.86528830
H        2.78063203       0.49074065      -0.05300473
H        2.31295064      -1.16530157       0.33834883
H        2.27564046       0.08425490       1.59689910
H       -0.61859573      -0.10637719       1.02960918
H       -1.09579608       1.59455041      -0.40617127
H       -2.67104961      -0.73066123      -0.94082406
H       -2.19081769      -1.14787265       1.31597807
14
Frame=2 idx=008990 GeodesicLength=0.25146992983185146 rxn_smarts="[C:1]([N:2]([C:3](=[O:4])[N:5](/[C:6](=[N:7]/[H:14])[H:13])[H:12])[H:11])([H:8])([H:9])[H:10]>>[C:1]([N:2]=[C:3]=[O:4])([H:8])([H:9])[H:10].[N-:5]([C+:6]([N:7]([H:11])[H:14])[H:13])[H:12]"
C        2.10472286      -0.10037264       0.54415975
N        0.71522813       0.16613749       0.22389520
C        0.41832134       0.31774816      -1.02676763
O        0.91702780       0.19773960      -2.10410050
N       -1.25568791       0.83007472      -1.02312709
C       -1.99055134      -0.09567372      -0.37285513
N       -1.72309844      -0.40106222       0.86261550
H        2.78283320       0.51072530      -0.05670302
H        2.36178440      -1.14961993       0.36644652
H        2.27242578       0.12855518       1.59671100
H       -0.59358929      -0.15502847       1.01780688
H       -1.07677305       1.59756886      -0.38096087
H       -2.70285859      -0.69088677      -0.94540008
H       -2.22978490      -1.15590557       1.29827948
14
Frame=3 idx=008990 GeodesicLength=0.37696025561498026 rxn_smarts="[C:1]([N:2]([C:3](=[O:4])[N:5](/[C:6](=[N:7]/[H:14])[H:13])[H:12])[H:11])([H:8])([H:9])[H:10]>>[C:1]([N:2]=[C:3]=[O:4])([H:8])([H:9])[H:10].[N-:5]([C+:6]([N:7]([H:11])[H:14])[H:13])[H:12]"
C        2.11869195      -0.08750175       0.54715286
N        0.72524376       0.12004825       0.20664470
C        0.42840375       0.29692051      -1.03979224
O        0.91257027       0.15879166      -2.12102502
N       -1.26332203       0.84465859      -1.00244023
C       -2.01776132      -0.07063339      -0.36356805
N       -1.73641629      -0.41741043       0.85975355
H        2.78348848       0.53115851      -0.06028252
H        2.41088787      -1.13147764       0.39627950
H        2.26432658       0.17399065       1.59540336
H       -0.56823481      -0.20556962       1.00387775
H       -1.05533189       1.59904769      -0.35424258
H       -2.73436916      -0.64852049      -0.94843650
H       -2.26817717      -1.16350253       1.28067541
14
Frame=4 idx=008990 GeodesicLength=0.5023084079377911 rxn_smarts="[C:1]([N:2]([C:3](=[O:4])[N:5](/[C:6](=[N:7]/[H:14])[H:13])[H:12])[H:11])([H:8])([H:9])[H:10]>>[C:1]([N:2]=[C:3]=[O:4])([H:8])([H:9])[H:10].[N-:5]([C+:6]([N:7]([H:11])[H:14])[H:13])[H:12]"
C        2.13076440      -0.07419138       0.54999771
N        0.73619485       0.07173185       0.18732876
C        0.43901384       0.27461094      -1.05422623
O        0.90827163       0.12056340      -2.13933174
N       -1.26955063       0.85918154      -0.98031940
C       -2.04333148      -0.04507801      -0.35266977
N       -1.74942118      -0.43425538       0.85681868
H        2.78262170       0.55152925      -0.06368082
H        2.45918625      -1.11089184       0.42805439
H        2.25074600       0.22015073       1.59278230
H       -0.54233161      -0.25748476       0.98779872
H       -1.03157176       1.59886086      -0.32622109
H       -2.76508693      -0.60398449      -0.94965417
H       -2.30550507      -1.17074273       1.26332267
14
Frame=5 idx=008990 GeodesicLength=0.6274911138679091 rxn_smarts="[C:1]([N:2]([C:3](=[O:4])[N:5](/[C:6](=[N:7]/[H:14])[H:13])[H:12])[H:11])([H:8])([H:9])[H:10]>>[C:1]([N:2]=[C:3]=[O:4])([H:8])([H:9])[H:10].[N-:5]([C+:6]([N:7]([H:11])[H:14])[H:13])[H:12]"
C        2.14059691      -0.06066294       0.55269656
N        0.74822715       0.02245790       0.16598486
C        0.45018450       0.25141317      -1.07007517
O        0.90429290       0.08376923      -2.15907268
N       -1.27445579       0.87348931      -0.95683326
C       -2.06695814      -0.01939858      -0.34012724
N       -1.76182041      -0.45160189       0.85383671
H        2.78063060       0.57075206      -0.06704505
H        2.50502221      -1.08825403       0.46223126
H        2.23157951       0.26679697       1.58853294
H       -0.51563549      -0.30997045       0.96962809
H       -1.00599963       1.59699796      -0.29719293
H       -2.79448514      -0.55792815      -0.94886078
H       -2.34117919      -1.17786057       1.24629670
14
Frame=6 idx=008990 GeodesicLength=0.7525827256431019 rxn_smarts="[C:1]([N:2]([C:3](=[O:4])[N:5](/[C:6](=[N:7]/[H:14])[H:13])[H:12])[H:11])([H:8])([H:9])[H:10]>>[C:1]([N:2]=[C:3]=[O:4])([H:8])([H:9])[H:10].[N-:5]([C+:6]([N:7]([H:11])[H:14])[H:13])[H:12]"
C        2.14806190      -0.04709903       0.55525235
N        0.76143194      -0.02643665       0.14283129
C        0.46195807       0.22792702      -1.08725760
O        0.90072908       0.04861540      -2.18016341
N       -1.27817771       0.88746758      -0.93212687
C       -2.08852580       0.00607473      -0.32597560
N       -1.77357576      -0.46920572       0.85094298
H        2.77798191       0.58826215      -0.07029296
H        2.54715965      -1.06391455       0.49867426
H        2.20704764       0.31325243       1.58246681
H       -0.48798305      -0.36236564       0.94947927
H       -0.97916340       1.59358141      -0.26752341
H       -2.82201843      -0.51121775      -0.94604542
H       -2.37492603      -1.18494138       1.22973832
14
Frame=7 idx=008990 GeodesicLength=0.877606886280606 rxn_smarts="[C:1]([N:2]([C:3](=[O:4])[N:5](/[C:6](=[N:7]/[H:14])[H:13])[H:12])[H:11])([H:8])([H:9])[H:10]>>[C:1]([N:2]=[C:3]=[O:4])([H:8])([H:9])[H:10].[N-:5]([C+:6]([N:7]([H:11])[H:14])[H:13])[H:12]"
C        2.15325725      -0.03367897       0.55767128
N        0.77583331      -0.07349798       0.11827218
C        0.47437693       0.20488056      -1.10556048
O        0.89760456       0.01519402      -2.20233431
N       -1.28098800       0.90101531      -0.90634849
C       -2.10806342       0.03097672      -0.31034974
N       -1.78471768      -0.48695050       0.84817138
H        2.77536889       0.60335154      -0.07347550
H        2.58443512      -1.03842696       0.53731603
H        2.17793508       0.35910253       1.57434656
H       -0.45926305      -0.41396705       0.92753180
H       -0.95182011       1.58881839      -0.23754441
H       -2.84732811      -0.46468139      -0.94134902
H       -2.40663077      -1.19213623       1.21365274
14
Frame=8 idx=008990 GeodesicLength=1.0026267700078182 rxn_smarts="[C:1]([N:2]([C:3](=[O:4])[N:5](/[C:6](=[N:7]/[H:14])[H:13])[H:12])[H:11])([H:8])([H:9])[H:10]>>[C:1]([N:2]=[C:3]=[O:4])([H:8])([H:9])[H:10].[N-:5]([C+:6]([N:7]([H:11])[H:14])[H:13])[H:12]"
C        2.15648667      -0.02051498       0.55995712
N        0.79139450      -0.11763631       0.09277266
C        0.48748422       0.18283948      -1.12473728
O        0.89489781      -0.01666045      -2.22526170
N       -1.28317983       0.91407173      -0.87963211
C       -2.12577668       0.05503807      -0.29343322
N       -1.79545982      -0.50471706       0.84555023
H        2.77347895       0.61563351      -0.07660968
H        2.61621184      -1.01229261       0.57791953
H        2.14530265       0.40405109       1.56400710
H       -0.42945746      -0.46418192       0.90405002
H       -0.92463377       1.58294681      -0.20749418
H       -2.87031358      -0.41896371      -0.93502761
H       -2.43643551      -1.19961365       1.19793912
14
Frame=9 idx=008990 GeodesicLength=1.127576169891116 rxn_smarts="[C:1]([N:2]([C:3](=[O:4])[N:5](/[C:6](=[N:7]/[H:14])[H:13])[H:12])[H:11])([H:8])([H:9])[H:10]>>[C:1]([N:2]=[C:3]=[O:4])([H:8])([H:9])[H:10].[N-:5]([C+:6]([N:7]([H:11])[H:14])[H:13])[H:12]"
C        2.15810642      -0.00760432       0.56210124
N        0.80803646      -0.15840578       0.06672797
C        0.50129400       0.16199310      -1.14456668
O        0.89256366      -0.04726954      -2.24866575
N       -1.28492154       0.92659607      -0.85197751
C       -2.14190750       0.07812894      -0.27538338
N       -1.80606369      -0.52259499       0.84296585
H        2.77278911       0.62497929      -0.07977025
H        2.64233933      -0.98580442       0.62032793
H        2.11017884       0.44825364       1.55125941
H       -0.39858159      -0.51265239       0.87934955
H       -0.89795459       1.57610259      -0.17737566
H       -2.89119043      -0.37415383      -0.92729282
H       -2.46468845      -1.20756836       1.18230011
14
Frame=10 idx=008990 GeodesicLength=1.2525617624400178 rxn_smarts="[C:1]([N:2]([C:3](=[O:4])[N:5](/[C:6](=[N:7]/[H:14])[H:13])[H:12])[H:11])([H:8])([H:9])[H:10]>>[C:1]([N:2]=[C:3]=[O:4])([H:8])([H:9])[H:10].[N-:5]([C+:6]([N:7]([H:11])[H:14])[H:13])[H:12]"
C        2.15850516       0.00503459       0.56408024
N        0.82568116      -0.19559459       0.04046883
C        0.51584209       0.14243266      -1.16487799
O        0.89062076      -0.07699883      -2.27227038
N       -1.28641979       0.93853622      -0.82351173
C       -2.15679277       0.10017112      -0.25639929
N       -1.81695134      -0.54024864       0.84058021
H        2.77350131       0.63188140      -0.08266407
H        2.66317776      -0.95910909       0.66370981
H        2.07346297       0.49109280       1.53622668
H       -0.36667288      -0.55904949       0.85376942
H       -0.87209052       1.56842300      -0.14734021
H       -2.90996432      -0.33073536      -0.91850126
H       -2.49189958      -1.21583578       1.16672974
14
Frame=11 idx=008990 GeodesicLength=1.3775760741746026 rxn_smarts="[C:1]([N:2]([C:3](=[O:4])[N:5](/[C:6](=[N:7]/[H:14])[H:13])[H:12])[H:11])([H:8])([H:9])[H:10]>>[C:1]([N:2]=[C:3]=[O:4])([H:8])([H:9])[H:10].[N-:5]([C+:6]([N:7]([H:11])[H:14])[H:13])[H:12]"
C        2.15797451       0.01749633       0.56586160
N        0.84426915      -0.22946222       0.01419433
C        0.53113238       0.12392068      -1.18556515
O        0.88906388      -0.10628269      -2.29590212
N       -1.28769841       0.94986081      -0.79419771
C       -2.17068587       0.12121776      -0.23660814
N       -1.82847279      -0.55758132       0.83842200
H        2.77555130       0.63691399      -0.08514222
H        2.67928985      -0.93212711       0.70751594
H        2.03578280       0.53244272       1.51898420
H       -0.33372526      -0.60336678       0.82758507
H       -0.84700717       1.55989312      -0.11729427
H       -2.92685983      -0.28859979      -0.90888762
H       -2.51861453      -1.22432551       1.15103408
14
Frame=12 idx=008990 GeodesicLength=1.5026575463745808 rxn_smarts="[C:1]([N:2]([C:3](=[O:4])[N:5](/[C:6](=[N:7]/[H:14])[H:13])[H:12])[H:11])([H:8])([H:9])[H:10]>>[C:1]([N:2]=[C:3]=[O:4])([H:8])([H:9])[H:10].[N-:5]([C+:6]([N:7]([H:11])[H:14])[H:13])[H:12]"
C        2.15676222       0.02988701       0.56740506
N        0.86376966      -0.26030590      -0.01194684
C        0.54717697       0.10621013      -1.20656162
O        0.88789548      -0.13551967      -2.31944382
N       -1.28875829       0.96056140      -0.76396595
C       -2.18382379       0.14135183      -0.21610852
N       -1.84097596      -0.57451553       0.83654564
H        2.77884080       0.64059640      -0.08712561
H        2.69121809      -0.90477076       0.75129533
H        1.99765453       0.57228078       1.49962212
H       -0.29970175      -0.64567475       0.80106257
H       -0.82263241       1.55047299      -0.08708971
H       -2.94209060      -0.24758057      -0.89866229
H       -2.54533495      -1.23299336       1.13497366
14
Frame=13 idx=008990 GeodesicLength=1.6278177881143963 rxn_smarts="[C:1]([N:2]([C:3](=[O:4])[N:5](/[C:6](=[N:7]/[H:14])[H:13])[H:12])[H:11])([H:8])([H:9])[H:10]>>[C:1]([N:2]=[C:3]=[O:4])([H:8])([H:9])[H:10].[N-:5]([C+:6]([N:7]([H:11])[H:14])[H:13])[H:12]"
C        2.15503778       0.04233133       0.56867044
N        0.88417081      -0.28851750      -0.03785944
C        0.56396795       0.08894529      -1.22782559
O        0.88710108      -0.16514020      -2.34278648
N       -1.28953040       0.97060638      -0.73273977
C       -2.19638288       0.16070428      -0.19498434
N       -1.85478738      -0.59088258       0.83505174
H        2.78305827       0.64365324      -0.08846973
H        2.69963948      -0.87683296       0.79447178
H        1.95938121       0.61041466       1.47833805
H       -0.26453257      -0.68616928       0.77438884
H       -0.79878202       1.54004450      -0.05658053
H       -2.95580051      -0.20745631      -0.88801237
H       -2.57254080      -1.24170087       1.11833742
14
Frame=14 idx=008990 GeodesicLength=1.7531157258858159 rxn_smarts="[C:1]([N:2]([C:3](=[O:4])[N:5](/[C:6](=[N:7]/[H:14])[H:13])[H:12])[H:11])([H:8])([H:9])[H:10]>>[C:1]([N:2]=[C:3]=[O:4])([H:8])([H:9])[H:10].[N-:5]([C+:6]([N:7]([H:11])[H:14])[H:13])[H:12]"
C        2.15297712       0.05494302       0.56959896
N        0.90548485      -0.31434367      -0.06345228
C        0.58152062       0.07191989      -1.24931852
O        0.88666776      -0.19546373      -2.36584631
N       -1.28999149       0.97999716      -0.70037488
C       -2.20855324       0.17937529      -0.17328561
N       -1.87023375      -0.60664907       0.83400983
H        2.78811600       0.64641353      -0.08925527
H        2.70497721      -0.84823989       0.83680200
H        1.92131100       0.64701043       1.45518385
H       -0.22811227      -0.72499918       0.74778928
H       -0.77537946       1.52850467      -0.02552255
H       -2.96814024      -0.16799383      -0.87710096
H       -2.60064411      -1.25047464       1.10077245
14
Frame=15 idx=008990 GeodesicLength=1.8785846874076753 rxn_smarts="[C:1]([N:2]([C:3](=[O:4])[N:5](/[C:6](=[N:7]/[H:14])[H:13])[H:12])[H:11])([H:8])([H:9])[H:10]>>[C:1]([N:2]=[C:3]=[O:4])([H:8])([H:9])[H:10].[N-:5]([C+:6]([N:7]([H:11])[H:14])[H:13])[H:12]"
C        2.15070793       0.06785085       0.57012857
N        0.92773799      -0.33807099      -0.08866131
C        0.59983006       0.05485935      -1.27100581
O        0.88655165      -0.22684050      -2.38852249
N       -1.29007036       0.98870678      -0.66670863
C       -2.22048300       0.19749562      -0.15104848
N       -1.88763845      -0.62172302       0.83350951
H        2.79380381       0.64933137      -0.08952873
H        2.70773820      -0.81882115       0.87796991
H        1.88364791       0.68211163       1.43025606
H       -0.19030153      -0.76237942       0.72143809
H       -0.75228056       1.51567638       0.00633933
H       -2.97920307      -0.12891372      -0.86607234
H       -2.63004058      -1.25928318       1.08190632
14
Frame=16 idx=008990 GeodesicLength=2.0042769610922706 rxn_smarts="[C:1]([N:2]([C:3](=[O:4])[N:5](/[C:6](=[N:7]/[H:14])[H:13])[H:12])[H:11])([H:8])([H:9])[H:10]>>[C:1]([N:2]=[C:3]=[O:4])([H:8])([H:9])[H:10].[N-:5]([C+:6]([N:7]([H:11])[H:14])[H:13])[H:12]"
C        2.14834403       0.08118645       0.57018504
N        0.95097609      -0.35994121      -0.11344009
C        0.61889346       0.03752640      -1.29285813
O        0.88670479      -0.25957337      -2.41071768
N       -1.28969584       0.99669631      -0.63153500
C       -2.23231061       0.21518741      -0.12828695
N       -1.90733686      -0.63604428       0.83363513
H        2.79996469       0.65275527      -0.08940846
H        2.70835579      -0.78841166       0.91776356
H        1.84655089       0.71584828       1.40359218
H       -0.15092098      -0.79854423       0.69549389
H       -0.72936472       1.50134002       0.03931396
H       -2.98904773      -0.08992908      -0.85505340
H       -2.66111300      -1.26809632       1.06131596
