13
Frame=0 idx=009474 GeodesicLength=0.0 rxn_smarts="[O:1]([C@@:2]1([H:9])[C:3]([H:10])([H:11])[C@:4]1([O:5][C:6](=[O:7])[H:13])[H:12])[H:8]>>[O:1]([C:2][C:3]([C:4]([O:5][C:6](=[O:7])[H:13])([H:9])[H:12])([H:10])[H:11])[H:8]"
O       -1.00622987       1.44075731       0.49721430
C       -1.33349428       0.12060733       0.62377261
C       -1.32421972      -0.52397270      -0.74603674
C        0.04257073      -0.81795990      -0.25908545
O        1.03652290       0.00367265      -0.78795425
C        2.00158165       0.40024794       0.05795555
O        2.08755082       0.09185296       1.20700789
H       -0.94752735       1.80246612       1.38405403
H       -0.26641550      -0.52077337       1.01561877
H       -1.98172751      -1.37675724      -0.86803198
H       -1.36228226       0.16954623      -1.58028240
H        0.35268875      -1.84033966      -0.06331396
H        2.70098169       1.05065234      -0.48091832
13
Frame=1 idx=009474 GeodesicLength=0.05712305046743976 rxn_smarts="[O:1]([C@@:2]1([H:9])[C:3]([H:10])([H:11])[C@:4]1([O:5][C:6](=[O:7])[H:13])[H:12])[H:8]>>[O:1]([C:2][C:3]([C:4]([O:5][C:6](=[O:7])[H:13])([H:9])[H:12])([H:10])[H:11])[H:8]"
O       -1.00835866       1.44477689       0.50236934
C       -1.32703228       0.12362403       0.62157519
C       -1.31969318      -0.51860166      -0.74779960
C        0.04363603      -0.82676953      -0.25522173
O        1.04747923      -0.01979172      -0.79230463
C        1.99406806       0.41124238       0.05576166
O        2.06629009       0.13719428       1.21460587
H       -0.93330478       1.79941241       1.39100669
H       -0.27473985      -0.55278953       1.02939173
H       -1.98586815      -1.36527856      -0.86713382
H       -1.34995249       0.17573216      -1.58179787
H        0.34657188      -1.85436984      -0.07776910
H        2.70090411       1.04561867      -0.49268373
13
Frame=2 idx=009474 GeodesicLength=0.11435373571213536 rxn_smarts="[O:1]([C@@:2]1([H:9])[C:3]([H:10])([H:11])[C@:4]1([O:5][C:6](=[O:7])[H:13])[H:12])[H:8]>>[O:1]([C:2][C:3]([C:4]([O:5][C:6](=[O:7])[H:13])([H:9])[H:12])([H:10])[H:11])[H:8]"
O       -1.01059744       1.44894714       0.50768980
C       -1.31961843       0.12663141       0.61982319
C       -1.31464730      -0.51301283      -0.74925358
C        0.04495221      -0.83599732      -0.25116052
O        1.05901802      -0.04413034      -0.79595899
C        1.98686370       0.42123376       0.05288210
O        2.04446370       0.18234072       1.22048108
H       -0.92030127       1.79705066       1.39766746
H       -0.28315347      -0.58506030       1.04284664
H       -1.98979802      -1.35317095      -0.86606523
H       -1.33669212       0.18210175      -1.58296482
H        0.33978392      -1.86874069      -0.09224755
H        2.69972650       1.04180701      -0.50373959
13
Frame=3 idx=009474 GeodesicLength=0.17172179004683663 rxn_smarts="[O:1]([C@@:2]1([H:9])[C:3]([H:10])([H:11])[C@:4]1([O:5][C:6](=[O:7])[H:13])[H:12])[H:8]>>[O:1]([C:2][C:3]([C:4]([O:5][C:6](=[O:7])[H:13])([H:9])[H:12])([H:10])[H:11])[H:8]"
O       -1.01376023       1.45314681       0.51350067
C       -1.31155408       0.12937991       0.61861685
C       -1.30911855      -0.50722876      -0.75039757
C        0.04657569      -0.84528782      -0.24693401
O        1.07091367      -0.06852854      -0.79880597
C        1.97974624       0.43105694       0.04942869
O        2.02191283       0.22799102       1.22463467
H       -0.90929158       1.79514348       1.40447168
H       -0.29166568      -0.61747218       1.05598689
H       -1.99326763      -1.34065964      -0.86497137
H       -1.32275730       0.18875835      -1.58366942
H        0.33272035      -1.88299772      -0.10695806
H        2.69954629       1.03669814      -0.51490305
13
Frame=4 idx=009474 GeodesicLength=0.22943105494883703 rxn_smarts="[O:1]([C@@:2]1([H:9])[C:3]([H:10])([H:11])[C@:4]1([O:5][C:6](=[O:7])[H:13])[H:12])[H:8]>>[O:1]([C:2][C:3]([C:4]([O:5][C:6](=[O:7])[H:13])([H:9])[H:12])([H:10])[H:11])[H:8]"
O       -1.01799651       1.45747721       0.51974532
C       -1.30290005       0.13196695       0.61795991
C       -1.30311518      -0.50125503      -0.75126904
C        0.04851596      -0.85470432      -0.24252127
O        1.08318652      -0.09305022      -0.80084753
C        1.97290109       0.44038156       0.04539192
O        1.99883169       0.27375681       1.22709242
H       -0.90012794       1.79382907       1.41142860
H       -0.30025330      -0.64994969       1.06889625
H       -1.99626939      -1.32776261      -0.86386525
H       -1.30815109       0.19567620      -1.58403638
H        0.32539592      -1.89722368      -0.12185106
H        2.69998227       1.03085774      -0.52612388
13
Frame=5 idx=009474 GeodesicLength=0.28678991983544827 rxn_smarts="[O:1]([C@@:2]1([H:9])[C:3]([H:10])([H:11])[C@:4]1([O:5][C:6](=[O:7])[H:13])[H:12])[H:8]>>[O:1]([C:2][C:3]([C:4]([O:5][C:6](=[O:7])[H:13])([H:9])[H:12])([H:10])[H:11])[H:8]"
O       -1.02344644       1.46163905       0.52640539
C       -1.29367574       0.13422109       0.61773235
C       -1.29665209      -0.49514601      -0.75174886
C        0.05068006      -0.86399827      -0.23794370
O        1.09562933      -0.11728359      -0.80200100
C        1.96627525       0.44947047       0.04074929
O        1.97513307       0.31995493       1.22744265
H       -0.89262690       1.79275085       1.41836751
H       -0.30890524      -0.68232750       1.08132964
H       -1.99876450      -1.31456737      -0.86262362
H       -1.29293835       0.20275439      -1.58374375
H        0.31771983      -1.91096772      -0.13701078
H        2.70157172       1.02349968      -0.53695512
13
Frame=6 idx=009474 GeodesicLength=0.34471689689142526 rxn_smarts="[O:1]([C@@:2]1([H:9])[C:3]([H:10])([H:11])[C@:4]1([O:5][C:6](=[O:7])[H:13])[H:12])[H:8]>>[O:1]([C:2][C:3]([C:4]([O:5][C:6](=[O:7])[H:13])([H:9])[H:12])([H:10])[H:11])[H:8]"
O       -1.03016334       1.46602892       0.53338862
C       -1.28395935       0.13645586       0.61800952
C       -1.28972647      -0.48886746      -0.75201550
C        0.05314538      -0.87353132      -0.23314763
O        1.10848366      -0.14178648      -0.80238477
C        1.96012459       0.45771603       0.03557818
O        1.95126358       0.36562496       1.22607109
H       -0.88647902       1.79240422       1.42536251
H       -0.31765807      -0.71468910       1.09364684
H       -2.00083503      -1.30098792      -0.86136775
H       -1.27702298       0.21004364      -1.58327557
H        0.30977448      -1.92478433      -0.15223493
H        2.70305256       1.01637298      -0.54763061
13
Frame=7 idx=009474 GeodesicLength=0.4022072063849528 rxn_smarts="[O:1]([C@@:2]1([H:9])[C:3]([H:10])([H:11])[C@:4]1([O:5][C:6](=[O:7])[H:13])[H:12])[H:8]>>[O:1]([C:2][C:3]([C:4]([O:5][C:6](=[O:7])[H:13])([H:9])[H:12])([H:10])[H:11])[H:8]"
O       -1.03755367       1.47035894       0.54038287
C       -1.27352996       0.13868409       0.61847435
C       -1.28224947      -0.48246113      -0.75198042
C        0.05569472      -0.88333122      -0.22801739
O        1.12170730      -0.16682666      -0.80160546
C        1.95442086       0.46485413       0.03014061
O        1.92746608       0.41014667       1.22279767
H       -0.88059187       1.79249204       1.43177910
H       -0.32673223      -0.74694281       1.10557292
H       -2.00258027      -1.28688430      -0.86001220
H       -1.26002652       0.21729427      -1.58235522
H        0.30100052      -1.93848829      -0.16739109
H        2.70297451       1.01110427      -0.55778574
13
Frame=8 idx=009474 GeodesicLength=0.4599943194882142 rxn_smarts="[O:1]([C@@:2]1([H:9])[C:3]([H:10])([H:11])[C@:4]1([O:5][C:6](=[O:7])[H:13])[H:12])[H:8]>>[O:1]([C:2][C:3]([C:4]([O:5][C:6](=[O:7])[H:13])([H:9])[H:12])([H:10])[H:11])[H:8]"
O       -1.04696870       1.47466087       0.54785837
C       -1.26284573       0.14071203       0.61943666
C       -1.27440324      -0.47595705      -0.75167943
C        0.05851808      -0.89302026      -0.22272348
O        1.13505502      -0.19137484      -0.80002760
C        1.94874114       0.47212531       0.02425254
O        1.90355304       0.45435881       1.21771054
H       -0.87592338       1.79301174       1.43821535
H       -0.33593873      -0.77909663       1.11727853
H       -2.00375515      -1.27264963      -0.85861440
H       -1.24264588       0.22474173      -1.58107083
H        0.29228799      -1.95170804      -0.18276398
H        2.70432554       1.00419596      -0.56787226
13
Frame=9 idx=009474 GeodesicLength=0.5178276840890857 rxn_smarts="[O:1]([C@@:2]1([H:9])[C:3]([H:10])([H:11])[C@:4]1([O:5][C:6](=[O:7])[H:13])[H:12])[H:8]>>[O:1]([C:2][C:3]([C:4]([O:5][C:6](=[O:7])[H:13])([H:9])[H:12])([H:10])[H:11])[H:8]"
O       -1.05793710       1.47889311       0.55565495
C       -1.25176255       0.14268484       0.62073891
C       -1.26608577      -0.46931818      -0.75111916
C        0.06151588      -0.90279408      -0.21715199
O        1.14863540      -0.21592927      -0.79746878
C        1.94357592       0.47856199       0.01802800
O        1.87973246       0.49780824       1.21085113
H       -0.87194000       1.79401045       1.44433508
H       -0.34544607      -0.81115318       1.12873622
H       -2.00443438      -1.25808648      -0.85720718
H       -1.22452100       0.23233141      -1.57938936
H        0.28325015      -1.96461347      -0.19819277
H        2.70541705       0.99760461      -0.57781505
13
Frame=10 idx=009474 GeodesicLength=0.5757150104528916 rxn_smarts="[O:1]([C@@:2]1([H:9])[C:3]([H:10])([H:11])[C@:4]1([O:5][C:6](=[O:7])[H:13])[H:12])[H:8]>>[O:1]([C:2][C:3]([C:4]([O:5][C:6](=[O:7])[H:13])([H:9])[H:12])([H:10])[H:11])[H:8]"
O       -1.07090630       1.48293784       0.56386395
C       -1.24040526       0.14453967       0.62241201
C       -1.25738122      -0.46259232      -0.75029257
C        0.06468412      -0.91252265      -0.21134357
O        1.16234095      -0.24017455      -0.79399204
C        1.93869752       0.48464387       0.01150432
O        1.85605603       0.54053788       1.20225279
H       -0.86836860       1.79543726       1.45003734
H       -0.35526953      -0.84312010       1.13992433
H       -2.00461131      -1.24333887      -0.85577561
H       -1.20585937       0.24005797      -1.57727763
H        0.27408381      -1.97699850      -0.21375192
H        2.70693916       0.99059250      -0.58756141
13
Frame=11 idx=009474 GeodesicLength=0.6336689923578838 rxn_smarts="[O:1]([C@@:2]1([H:9])[C:3]([H:10])([H:11])[C@:4]1([O:5][C:6](=[O:7])[H:13])[H:12])[H:8]>>[O:1]([C:2][C:3]([C:4]([O:5][C:6](=[O:7])[H:13])([H:9])[H:12])([H:10])[H:11])[H:8]"
O       -1.08581377       1.48672729       0.57250606
C       -1.22875907       0.14633941       0.62442526
C       -1.24825944      -0.45574630      -0.74921424
C        0.06800527      -0.92226960      -0.20525630
O        1.17621499      -0.26426763      -0.78955189
C        1.93423859       0.49013480       0.00472147
O        1.83268064       0.58235664       1.19200853
H       -0.86511935       1.79736049       1.45518070
H       -0.36550571      -0.87504580       1.15086109
H       -2.00428842      -1.22832764      -0.85435692
H       -1.18656521       0.24796214      -1.57472979
H        0.26475373      -1.98890310      -0.22937354
H        2.70841774       0.98367928      -0.59722043
13
Frame=12 idx=009474 GeodesicLength=0.6916779071017606 rxn_smarts="[O:1]([C@@:2]1([H:9])[C:3]([H:10])([H:11])[C@:4]1([O:5][C:6](=[O:7])[H:13])[H:12])[H:8]>>[O:1]([C:2][C:3]([C:4]([O:5][C:6](=[O:7])[H:13])([H:9])[H:12])([H:10])[H:11])[H:8]"
O       -1.10309444       1.49008078       0.58174606
C       -1.21690344       0.14799830       0.62683486
C       -1.23878000      -0.44880235      -0.74783115
C        0.07147908      -0.93189131      -0.19894167
O        1.19011451      -0.28785835      -0.78424413
C        1.93005190       0.49537445      -0.00235437
O        1.80950573       0.62350704       1.18005061
H       -0.86207244       1.79977138       1.45960747
H       -0.37612818      -0.90697727       1.16147596
H       -2.00341428      -1.21318465      -0.85289894
H       -1.16684424       0.25610982      -1.57161898
H        0.25545158      -2.00011568      -0.24517052
H        2.71063421       0.97598783      -0.60665520
13
Frame=13 idx=009474 GeodesicLength=0.7497682079253528 rxn_smarts="[O:1]([C@@:2]1([H:9])[C:3]([H:10])([H:11])[C@:4]1([O:5][C:6](=[O:7])[H:13])[H:12])[H:8]>>[O:1]([C:2][C:3]([C:4]([O:5][C:6](=[O:7])[H:13])([H:9])[H:12])([H:10])[H:11])[H:8]"
O       -1.12264464       1.49290758       0.59160122
C       -1.20480197       0.14959892       0.62961074
C       -1.22891455      -0.44173303      -0.74617560
C        0.07508193      -0.94149801      -0.19235078
O        1.20413267      -0.31120015      -0.77800547
C        1.92631417       0.50003875      -0.00960458
O        1.78677076       0.66364278       1.16657194
H       -0.85896254       1.80282472       1.46305035
H       -0.38728062      -0.93897810       1.17178931
H       -2.00203981      -1.19781049      -0.85146239
H       -1.14655916       0.26452315      -1.56796726
H        0.24609437      -2.01073288      -0.26104708
H        2.71280938       0.96841678      -0.61601041
13
Frame=14 idx=009474 GeodesicLength=0.8079536778915186 rxn_smarts="[O:1]([C@@:2]1([H:9])[C:3]([H:10])([H:11])[C@:4]1([O:5][C:6](=[O:7])[H:13])[H:12])[H:8]>>[O:1]([C:2][C:3]([C:4]([O:5][C:6](=[O:7])[H:13])([H:9])[H:12])([H:10])[H:11])[H:8]"
O       -1.14465344       1.49499362       0.60228671
C       -1.19250804       0.15109799       0.63280754
C       -1.21871014      -0.43453072      -0.74420675
C        0.07881719      -0.95100077      -0.18552688
O        1.21819041      -0.33409257      -0.77092954
C        1.92291816       0.50437754      -0.01711085
O        1.76442387       0.70295600       1.15152086
H       -0.85589934       1.80656677       1.46534270
H       -0.39894603      -0.97109656       1.18174148
H       -2.00013255      -1.18227635      -0.85001579
H       -1.12586621       0.27330471      -1.56365996
H        0.23683383      -2.02061785      -0.27705291
H        2.71553229       0.96031817      -0.62519659
13
Frame=15 idx=009474 GeodesicLength=0.8662999714947903 rxn_smarts="[O:1]([C@@:2]1([H:9])[C:3]([H:10])([H:11])[C@:4]1([O:5][C:6](=[O:7])[H:13])[H:12])[H:8]>>[O:1]([C:2][C:3]([C:4]([O:5][C:6](=[O:7])[H:13])([H:9])[H:12])([H:10])[H:11])[H:8]"
O       -1.16900901       1.49619335       0.61384916
C       -1.17992609       0.15255479       0.63640660
C       -1.20804170      -0.42712458      -0.74194558
C        0.08265700      -0.96057036      -0.17836546
O        1.23242201      -0.35692588      -0.76284632
C        1.92018085       0.50780322      -0.02459756
O        1.74262190       0.74109896       1.13510996
H       -0.85248388       1.81121824       1.46606084
H       -0.41134637      -1.00346766       1.19134020
H       -1.99769207      -1.16636948      -0.84867624
H       -1.10442781       0.28255108      -1.55865827
H        0.22749475      -2.02993460      -0.29307690
H        2.71755043       0.95297293      -0.63460045
13
Frame=16 idx=009474 GeodesicLength=0.9248243128035407 rxn_smarts="[O:1]([C@@:2]1([H:9])[C:3]([H:10])([H:11])[C@:4]1([O:5][C:6](=[O:7])[H:13])[H:12])[H:8]>>[O:1]([C:2][C:3]([C:4]([O:5][C:6](=[O:7])[H:13])([H:9])[H:12])([H:10])[H:11])[H:8]"
O       -1.19584046       1.49622747       0.62658599
C       -1.16710017       0.15391260       0.64048654
C       -1.19695804      -0.41949976      -0.73933598
C        0.08660929      -0.97011459      -0.17092333
O        1.24674936      -0.37949253      -0.75384730
C        1.91791929       0.51066415      -0.03217116
O        1.72128871       0.77829402       1.11726694
H       -0.84891876       1.81686843       1.46495595
H       -0.42445119      -1.03614724       1.20049819
H       -1.99468045      -1.15015687      -0.84740536
H       -1.08241142       0.29239033      -1.55280393
H        0.21823929      -2.03854176      -0.30918990
H        2.71955455       0.94559575      -0.64411663
