11
Frame=0 idx=000420 GeodesicLength=0.0 rxn_smarts="[O:1]([N:2]=[C:3]1[C:4]([H:8])([H:9])[O:5][C:6]1([H:10])[H:11])[H:7]>>[O-:1][N:2]([C+:3]1[C:4]([H:8])([H:9])[O:5][C:6]1([H:10])[H:11])[H:7]"
O        2.30767551      -0.88946431      -0.51013529
N        1.52766748       0.10639770       0.05770682
C        0.27458480       0.09623396       0.05635345
C       -0.82089071       0.98532732       0.55903410
O       -1.78354841       0.05597605       0.02989502
C       -0.76788560      -0.83842532      -0.47272331
H        2.63982862       0.19690264       0.10716643
H       -0.88687102       1.96966524       0.08731105
H       -0.89129003       1.08613032       1.64575494
H       -0.80079342      -1.82350943      -0.00022423
H       -0.79847723      -0.94523414      -1.56013903
11
Frame=1 idx=000420 GeodesicLength=0.036767356682659354 rxn_smarts="[O:1]([N:2]=[C:3]1[C:4]([H:8])([H:9])[O:5][C:6]1([H:10])[H:11])[H:7]>>[O-:1][N:2]([C+:3]1[C:4]([H:8])([H:9])[O:5][C:6]1([H:10])[H:11])[H:7]"
O        2.30270502      -0.88349960      -0.51381307
N        1.52755293       0.09319053       0.08270122
C        0.27422497       0.09357701       0.05924340
C       -0.82082993       0.98506326       0.55863526
O       -1.78387427       0.05823138       0.02547518
C       -0.76832633      -0.83895385      -0.47248242
H        2.64901095       0.20672144       0.08840328
H       -0.88262035       1.96962504       0.08675181
H       -0.89645646       1.08621593       1.64500461
H       -0.80662826      -1.82386758       0.00007473
H       -0.79475826      -0.94630356      -1.55999401
11
Frame=2 idx=000420 GeodesicLength=0.07390771443132813 rxn_smarts="[O:1]([N:2]=[C:3]1[C:4]([H:8])([H:9])[O:5][C:6]1([H:10])[H:11])[H:7]>>[O-:1][N:2]([C+:3]1[C:4]([H:8])([H:9])[O:5][C:6]1([H:10])[H:11])[H:7]"
O        2.29803755      -0.87823349      -0.51556528
N        1.52728913       0.08133408       0.10417562
C        0.27404043       0.09159189       0.06061066
C       -0.82048461       0.98478374       0.55818337
O       -1.78403662       0.05994631       0.02217975
C       -0.76873949      -0.83936601      -0.47252850
H        2.65678937       0.21555670       0.07243483
H       -0.87926520       1.96956105       0.08630910
H       -0.89996100       1.08616930       1.64428678
H       -0.81126213      -1.82416615       0.00001077
H       -0.79240743      -0.94717744      -1.56009709
11
Frame=3 idx=000420 GeodesicLength=0.11020804191630565 rxn_smarts="[O:1]([N:2]=[C:3]1[C:4]([H:8])([H:9])[O:5][C:6]1([H:10])[H:11])[H:7]>>[O-:1][N:2]([C+:3]1[C:4]([H:8])([H:9])[O:5][C:6]1([H:10])[H:11])[H:7]"
O        2.29353419      -0.87317038      -0.51658072
N        1.52695900       0.07158725       0.12141967
C        0.27397346       0.09059507       0.06011052
C       -0.82002451       0.98457541       0.55757508
O       -1.78417134       0.06089241       0.02031193
C       -0.76913469      -0.83967587      -0.47277813
H        2.66398301       0.22190211       0.06118862
H       -0.87740679       1.96951240       0.08576146
H       -0.90168233       1.08615723       1.64354401
H       -0.81429022      -1.82440158      -0.00017668
H       -0.79173980      -0.94797405      -1.56037576
11
Frame=4 idx=000420 GeodesicLength=0.14660022366838224 rxn_smarts="[O:1]([N:2]=[C:3]1[C:4]([H:8])([H:9])[O:5][C:6]1([H:10])[H:11])[H:7]>>[O-:1][N:2]([C+:3]1[C:4]([H:8])([H:9])[O:5][C:6]1([H:10])[H:11])[H:7]"
O        2.28916793      -0.86889703      -0.51600698
N        1.52643771       0.06312934       0.13615647
C        0.27393497       0.09012973       0.05863122
C       -0.81950935       0.98436081       0.55696685
O       -1.78425333       0.06142138       0.01921498
C       -0.76951128      -0.83986768      -0.47323560
H        2.67098038       0.22737098       0.05155432
H       -0.87637842       1.96944843       0.08536072
H       -0.90245126       1.08604285       1.64285403
H       -0.81643367      -1.82457225      -0.00066583
H       -0.79198368      -0.94856658      -1.56083017
11
Frame=5 idx=000420 GeodesicLength=0.1831501597394115 rxn_smarts="[O:1]([N:2]=[C:3]1[C:4]([H:8])([H:9])[O:5][C:6]1([H:10])[H:11])[H:7]>>[O-:1][N:2]([C+:3]1[C:4]([H:8])([H:9])[O:5][C:6]1([H:10])[H:11])[H:7]"
O        2.28491256      -0.86514547      -0.51429884
N        1.52579509       0.05535003       0.14948248
C        0.27393807       0.08989616       0.05670774
C       -0.81895348       0.98412633       0.55638443
O       -1.78431439       0.06175601       0.01849209
C       -0.76987441      -0.83998901      -0.47381660
H        2.67781759       0.23251966       0.04249986
H       -0.87573400       1.96937698       0.08507104
H       -0.90275186       1.08583443       1.64222826
H       -0.81815974      -1.82471763      -0.00134463
H       -0.79267544      -0.94900748      -1.56140585
11
Frame=6 idx=000420 GeodesicLength=0.21955232966591637 rxn_smarts="[O:1]([N:2]=[C:3]1[C:4]([H:8])([H:9])[O:5][C:6]1([H:10])[H:11])[H:7]>>[O-:1][N:2]([C+:3]1[C:4]([H:8])([H:9])[O:5][C:6]1([H:10])[H:11])[H:7]"
O        2.28076977      -0.86118710      -0.51270123
N        1.52505089       0.04792670       0.16190957
C        0.27397686       0.08972510       0.05462515
C       -0.81835865       0.98389988       0.55577677
O       -1.78436952       0.06199354       0.01796790
C       -0.77024316      -0.84012414      -0.47438741
H        2.68455018       0.23715127       0.03445457
H       -0.87523920       1.96929251       0.08472670
H       -0.90280553       1.08567779       1.64159335
H       -0.81972394      -1.82487857      -0.00199640
H       -0.79360771      -0.94947699      -1.56196897
11
Frame=7 idx=000420 GeodesicLength=0.2559024513952329 rxn_smarts="[O:1]([N:2]=[C:3]1[C:4]([H:8])([H:9])[O:5][C:6]1([H:10])[H:11])[H:7]>>[O-:1][N:2]([C+:3]1[C:4]([H:8])([H:9])[O:5][C:6]1([H:10])[H:11])[H:7]"
O        2.27669106      -0.85694537      -0.51138942
N        1.52427974       0.04050159       0.17411584
C        0.27407121       0.08947083       0.05264209
C       -0.81773077       0.98366546       0.55515720
O       -1.78443762       0.06224921       0.01743666
C       -0.77060748      -0.84028385      -0.47491360
H        2.69114225       0.24163034       0.02676260
H       -0.87465681       1.96919427       0.08429628
H       -0.90286452       1.08554893       1.64096122
H       -0.82135907      -1.82506494      -0.00255852
H       -0.79452798      -0.94996646      -1.56251034
11
Frame=8 idx=000420 GeodesicLength=0.29242707990408734 rxn_smarts="[O:1]([N:2]=[C:3]1[C:4]([H:8])([H:9])[O:5][C:6]1([H:10])[H:11])[H:7]>>[O-:1][N:2]([C+:3]1[C:4]([H:8])([H:9])[O:5][C:6]1([H:10])[H:11])[H:7]"
O        2.27269449      -0.85309305      -0.50919824
N        1.52329086       0.03357418       0.18534834
C        0.27414788       0.08933343       0.05046038
C       -0.81707494       0.98341300       0.55457291
O       -1.78443485       0.06239246       0.01710825
C       -0.77095363      -0.84039814      -0.47551711
H        2.69770530       0.24593023       0.01926043
H       -0.87427833       1.96907804       0.08400957
H       -0.90266899       1.08536063       1.64034320
H       -0.82275289      -1.82522790      -0.00330204
H       -0.79567491      -0.95036288      -1.56308571
11
Frame=9 idx=000420 GeodesicLength=0.3288931859587573 rxn_smarts="[O:1]([N:2]=[C:3]1[C:4]([H:8])([H:9])[O:5][C:6]1([H:10])[H:11])[H:7]>>[O-:1][N:2]([C+:3]1[C:4]([H:8])([H:9])[O:5][C:6]1([H:10])[H:11])[H:7]"
O        2.26878249      -0.84915383      -0.50699763
N        1.52226284       0.02676592       0.19627654
C        0.27425792       0.08916487       0.04833127
C       -0.81641441       0.98315498       0.55399500
O       -1.78445735       0.06252055       0.01681366
C       -0.77130117      -0.84051514      -0.47610929
H        2.70425203       0.25007044       0.01195153
H       -0.87390904       1.96895043       0.08368601
H       -0.90246409       1.08518623       1.63975071
H       -0.82415376      -1.82540425      -0.00402684
H       -0.79685546      -0.95074020      -1.56367097
11
Frame=10 idx=000420 GeodesicLength=0.36539413432400814 rxn_smarts="[O:1]([N:2]=[C:3]1[C:4]([H:8])([H:9])[O:5][C:6]1([H:10])[H:11])[H:7]>>[O-:1][N:2]([C+:3]1[C:4]([H:8])([H:9])[O:5][C:6]1([H:10])[H:11])[H:7]"
O        2.26493656      -0.84542259      -0.50429534
N        1.52115632       0.02016107       0.20680704
C        0.27438735       0.08900127       0.04622044
C       -0.81575140       0.98288269       0.55345185
O       -1.78447239       0.06261655       0.01657955
C       -0.77162929      -0.84060518      -0.47673442
H        2.71075558       0.25417988       0.00449575
H       -0.87359484       1.96881293       0.08341056
H       -0.90222390       1.08498128       1.63919887
H       -0.82549135      -1.82558247      -0.00483861
H       -0.79807265      -0.95102543      -1.56429569
11
Frame=11 idx=000420 GeodesicLength=0.4018725096105674 rxn_smarts="[O:1]([N:2]=[C:3]1[C:4]([H:8])([H:9])[O:5][C:6]1([H:10])[H:11])[H:7]>>[O-:1][N:2]([C+:3]1[C:4]([H:8])([H:9])[O:5][C:6]1([H:10])[H:11])[H:7]"
O        2.26117714      -0.84158550      -0.50160911
N        1.52001369       0.01356890       0.21718165
C        0.27455266       0.08873557       0.04427791
C       -0.81508725       0.98260280       0.55292845
O       -1.78451213       0.06275416       0.01629906
C       -0.77195349      -0.84070711      -0.47733227
H        2.71722125       0.25825609      -0.00299379
H       -0.87319730       1.96867301       0.08310607
H       -0.90207360       1.08478277       1.63868082
H       -0.82692368      -1.82578615      -0.00561876
H       -0.79921728      -0.95129454      -1.56492003
11
Frame=12 idx=000420 GeodesicLength=0.43846563319773246 rxn_smarts="[O:1]([N:2]=[C:3]1[C:4]([H:8])([H:9])[O:5][C:6]1([H:10])[H:11])[H:7]>>[O-:1][N:2]([C+:3]1[C:4]([H:8])([H:9])[O:5][C:6]1([H:10])[H:11])[H:7]"
O        2.25745789      -0.83802049      -0.49825385
N        1.51871707       0.00717543       0.22727744
C        0.27469486       0.08850699       0.04232805
C       -0.81439649       0.98230033       0.55243916
O       -1.78447234       0.06283444       0.01607555
C       -0.77224751      -0.84077185      -0.47798379
H        2.72359210       0.26236416      -0.01082475
H       -0.87283375       1.96849690       0.08290772
H       -0.90184281       1.08455210       1.63815697
H       -0.82827149      -1.82596872      -0.00656676
H       -0.80039753      -0.95146928      -1.56555573
11
Frame=13 idx=000420 GeodesicLength=0.47502770539591843 rxn_smarts="[O:1]([N:2]=[C:3]1[C:4]([H:8])([H:9])[O:5][C:6]1([H:10])[H:11])[H:7]>>[O-:1][N:2]([C+:3]1[C:4]([H:8])([H:9])[O:5][C:6]1([H:10])[H:11])[H:7]"
O        2.25382394      -0.83446013      -0.49476017
N        1.51740974       0.00082937       0.23722854
C        0.27487406       0.08820109       0.04053161
C       -0.81372733       0.98199177       0.55198106
O       -1.78447485       0.06295059       0.01581308
C       -0.77253151      -0.84083400      -0.47862370
H        2.72995489       0.26644941      -0.01883831
H       -0.87242996       1.96833062       0.08270025
H       -0.90171938       1.08431091       1.63768892
H       -0.82968170      -1.82617356      -0.00750415
H       -0.80149791      -0.95159606      -1.56621712
11
Frame=14 idx=000420 GeodesicLength=0.5115988977842114 rxn_smarts="[O:1]([N:2]=[C:3]1[C:4]([H:8])([H:9])[O:5][C:6]1([H:10])[H:11])[H:7]>>[O-:1][N:2]([C+:3]1[C:4]([H:8])([H:9])[O:5][C:6]1([H:10])[H:11])[H:7]"
O        2.25021749      -0.83101726      -0.49089311
N        1.51598086      -0.00535280       0.24695263
C        0.27505396       0.08789770       0.03878438
C       -0.81304980       0.98166898       0.55155009
O       -1.78443722       0.06303619       0.01557183
C       -0.77278855      -0.84087639      -0.47928431
H        2.73628430       0.27047881      -0.02704608
H       -0.87203958       1.96814045       0.08254634
H       -0.90158209       1.08405627       1.63723001
H       -0.83105032      -1.82636823      -0.00852715
H       -0.80258905      -0.95166372      -1.56688462
11
Frame=15 idx=000420 GeodesicLength=0.5481645145197687 rxn_smarts="[O:1]([N:2]=[C:3]1[C:4]([H:8])([H:9])[O:5][C:6]1([H:10])[H:11])[H:7]>>[O-:1][N:2]([C+:3]1[C:4]([H:8])([H:9])[O:5][C:6]1([H:10])[H:11])[H:7]"
O        2.24670052      -0.82753108      -0.48692413
N        1.51450344      -0.01151880       0.25658084
C        0.27524655       0.08754372       0.03714196
C       -0.81238464       0.98135322       0.55114427
O       -1.78441724       0.06313337       0.01532309
C       -0.77304046      -0.84092870      -0.47994297
H        2.74262274       0.27446404      -0.03537960
H       -0.87161937       1.96796839       0.08238489
H       -0.90150965       1.08382446       1.63681119
H       -0.83246677      -1.82660233      -0.00956500
H       -0.80363513      -0.95170629      -1.56757452
11
Frame=16 idx=000420 GeodesicLength=0.5847284633978493 rxn_smarts="[O:1]([N:2]=[C:3]1[C:4]([H:8])([H:9])[O:5][C:6]1([H:10])[H:11])[H:7]>>[O-:1][N:2]([C+:3]1[C:4]([H:8])([H:9])[O:5][C:6]1([H:10])[H:11])[H:7]"
O        2.24322448      -0.82419407      -0.48250640
N        1.51296150      -0.01756473       0.26610600
C        0.27545127       0.08716873       0.03559957
C       -0.81172622       0.98100041       0.55076437
O       -1.78438202       0.06323340       0.01504213
C       -0.77326248      -0.84093391      -0.48061238
H        2.74890037       0.27844663      -0.04413138
H       -0.87119556       1.96774747       0.08227831
H       -0.90148057       1.08353061       1.63639445
H       -0.83386926      -1.82678729      -0.01067578
H       -0.80462150      -0.95164725      -1.56825890
