14
Frame=0 idx=003360 GeodesicLength=0.0 rxn_smarts="[O:1]([C:2]([C@@:3]1([H:10])[C:4]([H:11])([H:12])[C@:5]1([O:6][H:14])[H:13])([H:8])[H:9])[H:7]>>[O:1]([C:2]([C@@:3]1([H:10])[C:4]([H:11])([H:12])[C:5]1)([H:8])[H:9])[H:7].[O:6]([H:13])[H:14]"
O        1.77819537      -1.27996511      -0.26652124
C        1.20972909      -0.07753944      -0.71231472
C        0.52359462       0.69709491       0.39827031
C       -0.81075242       1.33422091       0.13066964
C       -0.69256080       0.18097989       1.05087838
O       -1.18337332      -1.52492976       0.20108095
H        1.04802334      -1.86269139      -0.03551222
H        0.48626564      -0.25498488      -1.51589045
H        2.02384862       0.52371780      -1.12045330
H        1.20231220       1.17449306       1.10014316
H       -1.23291021       1.16714099      -0.85417435
H       -1.09740952       2.27796588       0.58104666
H       -1.20452117      -0.99212484       1.22692637
H       -2.05044142      -1.36337804      -0.18414916
14
Frame=1 idx=003360 GeodesicLength=0.04341614206169439 rxn_smarts="[O:1]([C:2]([C@@:3]1([H:10])[C:4]([H:11])([H:12])[C@:5]1([O:6][H:14])[H:13])([H:8])[H:9])[H:7]>>[O:1]([C:2]([C@@:3]1([H:10])[C:4]([H:11])([H:12])[C:5]1)([H:8])[H:9])[H:7].[O:6]([H:13])[H:14]"
O        1.77501992      -1.27973256      -0.26781850
C        1.20972170      -0.07569550      -0.71330715
C        0.52060429       0.69734571       0.39652375
C       -0.80774734       1.34469170       0.12524284
C       -0.70376617       0.18181569       1.03420869
O       -1.18015513      -1.53260272       0.20679383
H        1.04338661      -1.86193019      -0.03881602
H        0.48938593      -0.25065418      -1.52039917
H        2.02570703       0.52587292      -1.11730912
H        1.19756408       1.16473742       1.10661883
H       -1.22881656       1.18735111      -0.86173270
H       -1.08850115       2.28682116       0.58260613
H       -1.20074612      -0.99814027       1.24251781
H       -2.05165708      -1.38988028      -0.17512920
14
Frame=2 idx=003360 GeodesicLength=0.08684781658977947 rxn_smarts="[O:1]([C:2]([C@@:3]1([H:10])[C:4]([H:11])([H:12])[C@:5]1([O:6][H:14])[H:13])([H:8])[H:9])[H:7]>>[O:1]([C:2]([C@@:3]1([H:10])[C:4]([H:11])([H:12])[C:5]1)([H:8])[H:9])[H:7].[O:6]([H:13])[H:14]"
O        1.77178410      -1.27951337      -0.26922176
C        1.20965560      -0.07385392      -0.71435026
C        0.51743709       0.69749041       0.39472578
C       -0.80464866       1.35534700       0.11975086
C       -0.71533176       0.18258689       1.01678064
O       -1.17691892      -1.54044734       0.21283189
H        1.03870793      -1.86119865      -0.04223964
H        0.49252384      -0.24630969      -1.52499636
H        2.02751492       0.52807038      -1.11407935
H        1.19237250       1.15449982       1.11329276
H       -1.22423586       1.20830056      -0.86950495
H       -1.07960970       2.29554891       0.58448273
H       -1.19668413      -1.00338791       1.25815726
H       -2.05256694      -1.41713308      -0.16562959
14
Frame=3 idx=003360 GeodesicLength=0.13028911781200242 rxn_smarts="[O:1]([C:2]([C@@:3]1([H:10])[C:4]([H:11])([H:12])[C@:5]1([O:6][H:14])[H:13])([H:8])[H:9])[H:7]>>[O:1]([C:2]([C@@:3]1([H:10])[C:4]([H:11])([H:12])[C:5]1)([H:8])[H:9])[H:7].[O:6]([H:13])[H:14]"
O        1.76849271      -1.27931256      -0.27074517
C        1.20953073      -0.07202129      -0.71545435
C        0.51409234       0.69751923       0.39286640
C       -0.80145440       1.36616830       0.11421857
C       -0.72723650       0.18327734       0.99855892
O       -1.17364880      -1.54846603       0.21922405
H        1.03399559      -1.86049620      -0.04577133
H        0.49567861      -0.24195860      -1.52968981
H        2.02926736       0.53030522      -1.11077770
H        1.18671910       1.14377226       1.12013648
H       -1.21913921       1.23000023      -0.87746180
H       -1.07076851       2.30409900       0.58672505
H       -1.19243338      -1.00775466       1.27383196
H       -2.05309563      -1.44513225      -0.15566126
14
Frame=4 idx=003360 GeodesicLength=0.1737279295147959 rxn_smarts="[O:1]([C:2]([C@@:3]1([H:10])[C:4]([H:11])([H:12])[C@:5]1([O:6][H:14])[H:13])([H:8])[H:9])[H:7]>>[O:1]([C:2]([C@@:3]1([H:10])[C:4]([H:11])([H:12])[C:5]1)([H:8])[H:9])[H:7].[O:6]([H:13])[H:14]"
O        1.76515608      -1.27913505      -0.27240508
C        1.20935244      -0.07020135      -0.71662998
C        0.51057382       0.69742237       0.39093424
C       -0.79816461       1.37712814       0.10866843
C       -0.73945012       0.18386721       0.97951227
O       -1.17033233      -1.55665480       0.22599167
H        1.02925985      -1.85982209      -0.04940155
H        0.49885645      -0.23760221      -1.53448878
H        2.03096378       0.53257710      -1.10741515
H        1.18059219       1.13254595       1.12712008
H       -1.21350560       1.25245151      -0.88557137
H       -1.06201598       2.31240873       0.58937475
H       -1.18811374      -1.01112995       1.28952158
H       -2.05317225      -1.47385556      -0.14521111
14
Frame=5 idx=003360 GeodesicLength=0.21718881458600273 rxn_smarts="[O:1]([C:2]([C@@:3]1([H:10])[C:4]([H:11])([H:12])[C@:5]1([O:6][H:14])[H:13])([H:8])[H:9])[H:7]>>[O:1]([C:2]([C@@:3]1([H:10])[C:4]([H:11])([H:12])[C:5]1)([H:8])[H:9])[H:7].[O:6]([H:13])[H:14]"
O        1.76179973      -1.27899152      -0.27422297
C        1.20913081      -0.06840549      -0.71789224
C        0.50689210       0.69719278       0.38892100
C       -0.79478912       1.38820096       0.10313348
C       -0.75193257       0.18433283       0.95961487
O       -1.16696931      -1.56501492       0.23317522
H        1.02452594      -1.85918264      -0.05311584
H        0.50205848      -0.23325791      -1.53940425
H        2.03260813       0.53487718      -1.10401596
H        1.17399560       1.12082563       1.13421253
H       -1.20733816       1.27564677      -0.89378478
H       -1.05340403       2.32042494       0.59248492
H       -1.18385557      -1.01337400       1.30523391
H       -2.05272204      -1.50327461      -0.13433988
14
Frame=6 idx=003360 GeodesicLength=0.2602540323447591 rxn_smarts="[O:1]([C:2]([C@@:3]1([H:10])[C:4]([H:11])([H:12])[C@:5]1([O:6][H:14])[H:13])([H:8])[H:9])[H:7]>>[O:1]([C:2]([C@@:3]1([H:10])[C:4]([H:11])([H:12])[C:5]1)([H:8])[H:9])[H:7].[O:6]([H:13])[H:14]"
O        1.75836052      -1.27888643      -0.27615895
C        1.20882046      -0.06665373      -0.71922954
C        0.50301861       0.69683053       0.38683721
C       -0.79132114       1.39939949       0.09764101
C       -0.76470039       0.18468495       0.93887774
O       -1.16348205      -1.57353921       0.24083996
H        1.01976651      -1.85858220      -0.05687676
H        0.50523708      -0.22896061      -1.54442106
H        2.03415796       0.53717006      -1.10059812
H        1.16691901       1.10866276       1.14139912
H       -1.20062727       1.29954361      -0.90203165
H       -1.04490699       2.32819046       0.59606030
H       -1.17955911      -1.01452824       1.32079109
H       -2.05168321      -1.53333144      -0.12313033
14
Frame=7 idx=003360 GeodesicLength=0.30358379612625785 rxn_smarts="[O:1]([C:2]([C@@:3]1([H:10])[C:4]([H:11])([H:12])[C@:5]1([O:6][H:14])[H:13])([H:8])[H:9])[H:7]>>[O:1]([C:2]([C@@:3]1([H:10])[C:4]([H:11])([H:12])[C:5]1)([H:8])[H:9])[H:7].[O:6]([H:13])[H:14]"
O        1.75491775      -1.27882170      -0.27833291
C        1.20848591      -0.06490792      -0.72068641
C        0.49898678       0.69630178       0.38463118
C       -0.78775674       1.41061467       0.09218656
C       -0.77766595       0.18486197       0.91715859
O       -1.15989856      -1.58219912       0.24897690
H        1.01501817      -1.85800759      -0.06075214
H        0.50847904      -0.22460617      -1.54958853
H        2.03566234       0.53952443      -1.09713280
H        1.15930531       1.09591505       1.14864762
H       -1.19327295       1.32421097      -0.91034848
H       -1.03662862       2.33544871       0.60015827
H       -1.17567529      -1.01428081       1.33644513
H       -2.04995719      -1.56405427      -0.11136297
14
Frame=8 idx=003360 GeodesicLength=0.34667191482084037 rxn_smarts="[O:1]([C:2]([C@@:3]1([H:10])[C:4]([H:11])([H:12])[C@:5]1([O:6][H:14])[H:13])([H:8])[H:9])[H:7]>>[O:1]([C:2]([C@@:3]1([H:10])[C:4]([H:11])([H:12])[C:5]1)([H:8])[H:9])[H:7].[O:6]([H:13])[H:14]"
O        1.75153552      -1.27882169      -0.28071787
C        1.20818587      -0.06319874      -0.72225635
C        0.49482547       0.69560876       0.38230696
C       -0.78416846       1.42186049       0.08682022
C       -0.79078254       0.18484702       0.89451207
O       -1.15627514      -1.59095400       0.25753413
H        1.01032973      -1.85747247      -0.06473939
H        0.51185499      -0.22026619      -1.55493448
H        2.03718985       0.54191676      -1.09360742
H        1.15123363       1.08262971       1.15592274
H       -1.18537437       1.34960024      -0.91864921
H       -1.02868901       2.34225664       0.60480997
H       -1.17217074      -1.01259455       1.35188755
H       -2.04769481      -1.59541197      -0.09888891
14
Frame=9 idx=003360 GeodesicLength=0.3891910794313352 rxn_smarts="[O:1]([C:2]([C@@:3]1([H:10])[C:4]([H:11])([H:12])[C@:5]1([O:6][H:14])[H:13])([H:8])[H:9])[H:7]>>[O:1]([C:2]([C@@:3]1([H:10])[C:4]([H:11])([H:12])[C:5]1)([H:8])[H:9])[H:7].[O:6]([H:13])[H:14]"
O        1.74795121      -1.27886939      -0.28326419
C        1.20772077      -0.06154864      -0.72392345
C        0.49043853       0.69476324       0.37989022
C       -0.78045005       1.43314548       0.08156347
C       -0.80415041       0.18468588       0.87092255
O       -1.15235448      -1.59987764       0.26686592
H        1.00552032      -1.85697523      -0.06874826
H        0.51512702      -0.21595937      -1.56036753
H        2.03855169       0.54425181      -1.09011017
H        1.14260752       1.06889340       1.16320849
H       -1.17682915       1.37564725      -0.92681799
H       -1.02087326       2.34862497       0.61001762
H       -1.16887212      -1.00946518       1.36712703
H       -2.04438758      -1.62731656      -0.08636372
14
Frame=10 idx=003360 GeodesicLength=0.43157264527317374 rxn_smarts="[O:1]([C:2]([C@@:3]1([H:10])[C:4]([H:11])([H:12])[C@:5]1([O:6][H:14])[H:13])([H:8])[H:9])[H:7]>>[O:1]([C:2]([C@@:3]1([H:10])[C:4]([H:11])([H:12])[C:5]1)([H:8])[H:9])[H:7].[O:6]([H:13])[H:14]"
O        1.74443337      -1.27898764      -0.28607298
C        1.20729527      -0.05992287      -0.72573060
C        0.48592227       0.69374216       0.37733283
C       -0.77669140       1.44436495       0.07642439
C       -0.81759487       0.18432621       0.84633944
O       -1.14834114      -1.60885719       0.27675151
H        1.00077496      -1.85651847      -0.07288185
H        0.51853758      -0.21161687      -1.56600564
H        2.03993794       0.54663480      -1.08656742
H        1.13348915       1.05461047       1.17047071
H       -1.16770294       1.40237091      -0.93488749
H       -1.01342624       2.35435886       0.61580306
H       -1.16623614      -1.00478358       1.38217305
H       -2.04039780      -1.65972173      -0.07314900
14
Frame=11 idx=003360 GeodesicLength=0.47407088155457944 rxn_smarts="[O:1]([C:2]([C@@:3]1([H:10])[C:4]([H:11])([H:12])[C@:5]1([O:6][H:14])[H:13])([H:8])[H:9])[H:7]>>[O:1]([C:2]([C@@:3]1([H:10])[C:4]([H:11])([H:12])[C:5]1)([H:8])[H:9])[H:7].[O:6]([H:13])[H:14]"
O        1.74091053      -1.27918935      -0.28917201
C        1.20689103      -0.05832681      -0.72769607
C        0.48125457       0.69252681       0.37460874
C       -0.77289245       1.45549996       0.07143376
C       -0.83110751       0.18374819       0.82066993
O       -1.14414071      -1.61786901       0.28724760
H        0.99603319      -1.85609907      -0.07716763
H        0.52209236      -0.20722120      -1.57188325
H        2.04135511       0.54905112      -1.08297426
H        1.12380028       1.03972839       1.17767839
H       -1.15790076       1.42975974      -0.94279837
H       -1.00638658       2.35942274       0.62222709
H       -1.16434455      -0.99836765       1.39710923
H       -2.03556451      -1.69266385      -0.05928317
14
Frame=12 idx=003360 GeodesicLength=0.516602892081768 rxn_smarts="[O:1]([C:2]([C@@:3]1([H:10])[C:4]([H:11])([H:12])[C@:5]1([O:6][H:14])[H:13])([H:8])[H:9])[H:7]>>[O:1]([C:2]([C@@:3]1([H:10])[C:4]([H:11])([H:12])[C:5]1)([H:8])[H:9])[H:7].[O:6]([H:13])[H:14]"
O        1.73737099      -1.27950599      -0.29261532
C        1.20654029      -0.05676217      -0.72982732
C        0.47643966       0.69109460       0.37171863
C       -0.76909850       1.46651976       0.06659260
C       -0.84468828       0.18287461       0.79386081
O       -1.13971910      -1.62686855       0.29842251
H        0.99126129      -1.85574483      -0.08170509
H        0.52586525      -0.20272073      -1.57802901
H        2.04285811       0.55149105      -1.07928137
H        1.11354814       1.02420283       1.18485096
H       -1.14743657       1.45782913      -0.95051588
H       -0.99984185       2.36376258       0.62928168
H       -1.16328717      -0.99005409       1.41185958
H       -2.02981226      -1.72611821      -0.04461279
14
Frame=13 idx=003360 GeodesicLength=0.5591047575936318 rxn_smarts="[O:1]([C:2]([C@@:3]1([H:10])[C:4]([H:11])([H:12])[C@:5]1([O:6][H:14])[H:13])([H:8])[H:9])[H:7]>>[O:1]([C:2]([C@@:3]1([H:10])[C:4]([H:11])([H:12])[C:5]1)([H:8])[H:9])[H:7].[O:6]([H:13])[H:14]"
O        1.73381614      -1.27992020      -0.29646360
C        1.20625530      -0.05518693      -0.73214731
C        0.47147076       0.68943901       0.36864421
C       -0.76525568       1.47731664       0.06189845
C       -0.85825142       0.18171765       0.76581763
O       -1.13505023      -1.63577389       0.31039769
H        0.98645142      -1.85543711      -0.08657843
H        0.52987389      -0.19802651      -1.58448614
H        2.04446217       0.55400792      -1.07545951
H        1.10262622       1.00800283       1.19199268
H       -1.13617719       1.48650507      -0.95801031
H       -0.99378694       2.36719871       0.63698491
H       -1.16330914      -0.97977297       1.42634383
H       -2.02312530      -1.76007022      -0.02893411
14
Frame=14 idx=003360 GeodesicLength=0.6014801075853623 rxn_smarts="[O:1]([C:2]([C@@:3]1([H:10])[C:4]([H:11])([H:12])[C@:5]1([O:6][H:14])[H:13])([H:8])[H:9])[H:7]>>[O:1]([C:2]([C@@:3]1([H:10])[C:4]([H:11])([H:12])[C:5]1)([H:8])[H:9])[H:7].[O:6]([H:13])[H:14]"
O        1.73021583      -1.28045825      -0.30064767
C        1.20603398      -0.05365947      -0.73461931
C        0.46638038       0.68754187       0.36537412
C       -0.76146989       1.48787889       0.05742521
C       -0.87173548       0.18027063       0.73665899
O       -1.13010175      -1.64452698       0.32311640
H        0.98157560      -1.85516445      -0.09172031
H        0.53412855      -0.19322426      -1.59121433
H        2.04615717       0.55650485      -1.07149423
H        1.09118603       0.99114719       1.19895973
H       -1.12433431       1.51571240      -0.96511311
H       -0.98832416       2.36972935       0.64531358
H       -1.16433134      -0.96743308       1.44041668
H       -2.01538061      -1.79431868      -0.01245574
14
Frame=15 idx=003360 GeodesicLength=0.6438935014178898 rxn_smarts="[O:1]([C:2]([C@@:3]1([H:10])[C:4]([H:11])([H:12])[C@:5]1([O:6][H:14])[H:13])([H:8])[H:9])[H:7]>>[O:1]([C:2]([C@@:3]1([H:10])[C:4]([H:11])([H:12])[C:5]1)([H:8])[H:9])[H:7].[O:6]([H:13])[H:14]"
O        1.72660596      -1.28115514      -0.30528404
C        1.20595422      -0.05213199      -0.73728685
C        0.46117988       0.68541531       0.36190314
C       -0.75773104       1.49812080       0.05316515
C       -0.88507406       0.17849270       0.70632714
O       -1.12489342      -1.65306074       0.33665460
H        0.97662688      -1.85497655      -0.09728278
H        0.53874354      -0.18818429      -1.59829100
H        2.04806227       0.55904724      -1.06736051
H        1.07915131       0.97364616       1.20578747
H       -1.11181356       1.54539120      -0.97181020
H       -0.98352702       2.37124195       0.65427157
H       -1.16665548      -0.95297948       1.45405715
H       -2.00662950      -1.82886717       0.00514915
14
Frame=16 idx=003360 GeodesicLength=0.6863172041566559 rxn_smarts="[O:1]([C:2]([C@@:3]1([H:10])[C:4]([H:11])([H:12])[C@:5]1([O:6][H:14])[H:13])([H:8])[H:9])[H:7]>>[O:1]([C:2]([C@@:3]1([H:10])[C:4]([H:11])([H:12])[C:5]1)([H:8])[H:9])[H:7].[O:6]([H:13])[H:14]"
O        1.72295822      -1.28202324      -0.31039944
C        1.20603756      -0.05060301      -0.74014243
C        0.45588163       0.68303541       0.35821757
C       -0.75407801       1.50797423       0.04913363
C       -0.89820256       0.17635679       0.67480477
O       -1.11938087      -1.66127399       0.35104378
H        0.97156051      -1.85486281      -0.10335320
H        0.54377674      -0.18285376      -1.60573470
H        2.05021254       0.56161849      -1.06298452
H        1.06652782       0.95544402       1.21243876
H       -1.09864562       1.57547733      -0.97802375
H       -0.97946959       2.37163211       0.66383856
H       -1.17036986      -0.93629677       1.46712878
H       -1.99680852      -1.86362480       0.02403219
