12
Frame=0 idx=011941 GeodesicLength=0.0 rxn_smarts="[N:1]([c:2]1[c:3]([H:10])[n:4]([H:11])[c:5]([O:6][H:12])[n:7]1)([H:8])[H:9]>>[N:1]([C:2]1=[N:7][C:5]([O:6][H:12])=[N:4][C:3]1([H:10])[H:11])([H:8])[H:9]"
N        2.03553068       0.48182365      -0.20115986
C        0.73394564       0.09703459      -0.03015451
C        0.22519140      -1.19223102       0.13977027
N       -1.24475954      -1.03341746       0.27746707
C       -1.37389657       0.27849367       0.08663582
O       -2.58872317       0.82962566       0.03493219
N       -0.26397873       0.99377657      -0.06893635
H        2.74497826      -0.12044995       0.17490328
H        2.20322917       1.46519461      -0.07737321
H        0.69113540      -2.09053547       0.50980927
H       -0.69529692      -1.47976643      -0.72174816
H       -2.46735563       1.77045156      -0.12414581
12
Frame=1 idx=011941 GeodesicLength=0.04384783708309429 rxn_smarts="[N:1]([c:2]1[c:3]([H:10])[n:4]([H:11])[c:5]([O:6][H:12])[n:7]1)([H:8])[H:9]>>[N:1]([C:2]1=[N:7][C:5]([O:6][H:12])=[N:4][C:3]1([H:10])[H:11])([H:8])[H:9]"
N        2.03508269       0.48449058      -0.20038754
C        0.73351277       0.10017247      -0.03015235
C        0.22386642      -1.19143283       0.13626164
N       -1.24113329      -1.03022401       0.27589238
C       -1.37380149       0.28026613       0.08979381
O       -2.58931768       0.82858943       0.02694765
N       -0.26317220       0.99794423      -0.06147957
H        2.74599103      -0.12571941       0.15979012
H        2.20598589       1.46609329      -0.06668013
H        0.69218942      -2.08309711       0.51992232
H       -0.70114500      -1.49813344      -0.72762230
H       -2.46805856       1.77105067      -0.12228604
12
Frame=2 idx=011941 GeodesicLength=0.08769649994787038 rxn_smarts="[N:1]([c:2]1[c:3]([H:10])[n:4]([H:11])[c:5]([O:6][H:12])[n:7]1)([H:8])[H:9]>>[N:1]([C:2]1=[N:7][C:5]([O:6][H:12])=[N:4][C:3]1([H:10])[H:11])([H:8])[H:9]"
N        2.03460484       0.48721928      -0.19963778
C        0.73307377       0.10338676      -0.02995609
C        0.22254967      -1.19059006       0.13278752
N       -1.23754535      -1.02702092       0.27410500
C       -1.37371443       0.28207667       0.09306967
O       -2.58977948       0.82758673       0.01838855
N       -0.26233304       1.00218007      -0.05334396
H        2.74691944      -0.13086649       0.14395442
H        2.20882677       1.46687155      -0.05568341
H        0.69317618      -2.07549164       0.52987152
H       -0.70703809      -1.51701660      -0.73304792
H       -2.46874027       1.77166465      -0.12050752
12
Frame=3 idx=011941 GeodesicLength=0.13154457322533888 rxn_smarts="[N:1]([c:2]1[c:3]([H:10])[n:4]([H:11])[c:5]([O:6][H:12])[n:7]1)([H:8])[H:9]>>[N:1]([C:2]1=[N:7][C:5]([O:6][H:12])=[N:4][C:3]1([H:10])[H:11])([H:8])[H:9]"
N        2.03411000       0.48998704      -0.19887304
C        0.73262934       0.10666476      -0.02960143
C        0.22123792      -1.18971950       0.12925995
N       -1.23398846      -1.02381403       0.27211822
C       -1.37362293       0.28393065       0.09657569
O       -2.59006880       0.82666542       0.00955812
N       -0.26144955       1.00647289      -0.04445336
H        2.74772407      -0.13579394       0.12767909
H        2.21173965       1.46753563      -0.04458124
H        0.69410322      -2.06777953       0.53947722
H       -0.71303943      -1.53639517      -0.73803815
H       -2.46937501       1.77224578      -0.11912107
12
Frame=4 idx=011941 GeodesicLength=0.1753915322078269 rxn_smarts="[N:1]([c:2]1[c:3]([H:10])[n:4]([H:11])[c:5]([O:6][H:12])[n:7]1)([H:8])[H:9]>>[N:1]([C:2]1=[N:7][C:5]([O:6][H:12])=[N:4][C:3]1([H:10])[H:11])([H:8])[H:9]"
N        2.03361886       0.49275746      -0.19804319
C        0.73218166       0.10998560      -0.02914958
C        0.21992692      -1.18884011       0.12559905
N       -1.23045879      -1.02060847       0.26991735
C       -1.37351629       0.28582461       0.10033939
O       -2.59015474       0.82586436       0.00066113
N       -0.26051342       1.01078987      -0.03489526
H        2.74836844      -0.14038376       0.11140022
H        2.21469509       1.46811128      -0.03366679
H        0.69497280      -2.06002021       0.54859341
H       -0.71919709      -1.55628653      -0.74260412
H       -2.46992344       1.77280591      -0.11815161
12
Frame=5 idx=011941 GeodesicLength=0.21923731657207313 rxn_smarts="[N:1]([c:2]1[c:3]([H:10])[n:4]([H:11])[c:5]([O:6][H:12])[n:7]1)([H:8])[H:9]>>[N:1]([C:2]1=[N:7][C:5]([O:6][H:12])=[N:4][C:3]1([H:10])[H:11])([H:8])[H:9]"
N        2.03315435       0.49548750      -0.19710326
C        0.73173437       0.11332951      -0.02864813
C        0.21861174      -1.18796863       0.12173505
N       -1.22695708      -1.01741084       0.26746001
C       -1.37338684       0.28775098       0.10434710
O       -2.59001904       0.82521405      -0.00815473
N       -0.25951844       1.01509662      -0.02480082
H        2.74883391      -0.14453520       0.09559858
H        2.21765711       1.46864168      -0.02328142
H        0.69577671      -2.05226871       0.55710948
H       -0.72553778      -1.57671383      -0.74676642
H       -2.47034900       1.77337686      -0.11749543
12
Frame=6 idx=011941 GeodesicLength=0.2630683544947188 rxn_smarts="[N:1]([c:2]1[c:3]([H:10])[n:4]([H:11])[c:5]([O:6][H:12])[n:7]1)([H:8])[H:9]>>[N:1]([C:2]1=[N:7][C:5]([O:6][H:12])=[N:4][C:3]1([H:10])[H:11])([H:8])[H:9]"
N        2.03273707       0.49813493      -0.19602365
C        0.73129362       0.11667820      -0.02812557
C        0.21728763      -1.18712335       0.11759134
N       -1.22348431      -1.01422746       0.26468482
C       -1.37322583       0.28970533       0.10859194
O       -2.58965634       0.82473743      -0.01673635
N       -0.25845858       1.01936573      -0.01429087
H        2.74912018      -0.14817907       0.08073105
H        2.22058636       1.46918463      -0.01374933
H        0.69650234      -2.04456604       0.56493598
H       -0.73208365      -1.59769696      -0.75054791
H       -2.47061849       1.77398663      -0.11706146
12
Frame=7 idx=011941 GeodesicLength=0.3068866693764646 rxn_smarts="[N:1]([c:2]1[c:3]([H:10])[n:4]([H:11])[c:5]([O:6][H:12])[n:7]1)([H:8])[H:9]>>[N:1]([C:2]1=[N:7][C:5]([O:6][H:12])=[N:4][C:3]1([H:10])[H:11])([H:8])[H:9]"
N        2.03233701       0.50075983      -0.19483145
C        0.73084854       0.12005892      -0.02753238
C        0.21595468      -1.18628108       0.11319219
N       -1.22003962      -1.01105450       0.26161785
C       -1.37304521       0.29168534       0.11312624
O       -2.58907818       0.82443082      -0.02505876
N       -0.25734568       1.02360260      -0.00325600
H        2.74925653      -0.15141055       0.06639468
H        2.22349234       1.46974611      -0.00474645
H        0.69716742      -2.03690835       0.57209080
H       -0.73883561      -1.61924168      -0.75388019
H       -2.47071223       1.77461255      -0.11711653
12
Frame=8 idx=011941 GeodesicLength=0.35071775858644727 rxn_smarts="[N:1]([c:2]1[c:3]([H:10])[n:4]([H:11])[c:5]([O:6][H:12])[n:7]1)([H:8])[H:9]>>[N:1]([C:2]1=[N:7][C:5]([O:6][H:12])=[N:4][C:3]1([H:10])[H:11])([H:8])[H:9]"
N        2.03196668       0.50333237      -0.19351803
C        0.73040283       0.12346067      -0.02689957
C        0.21461378      -1.18543934       0.10855121
N       -1.21663926      -1.00789083       0.25816622
C       -1.37285639       0.29367332       0.11777321
O       -2.58827353       0.82429805      -0.03335643
N       -0.25618603       1.02777686       0.00810493
H        2.74925296      -0.15420473       0.05287082
H        2.22634117       1.47036911       0.00349922
H        0.69773737      -2.02929235       0.57865671
H       -0.74573201      -1.64143314      -0.75675299
H       -2.47062756       1.77535000      -0.11709531
12
Frame=9 idx=011941 GeodesicLength=0.39442267496552763 rxn_smarts="[N:1]([c:2]1[c:3]([H:10])[n:4]([H:11])[c:5]([O:6][H:12])[n:7]1)([H:8])[H:9]>>[N:1]([C:2]1=[N:7][C:5]([O:6][H:12])=[N:4][C:3]1([H:10])[H:11])([H:8])[H:9]"
N        2.03165778       0.50578205      -0.19204573
C        0.72997048       0.12684886      -0.02622621
C        0.21325177      -1.18464305       0.10349230
N       -1.21327885      -1.00475385       0.25420685
C       -1.37263454       0.29566634       0.12261360
O       -2.58724207       0.82437773      -0.04126016
N       -0.25496167       1.03185705       0.01977435
H        2.74912687      -0.15646803       0.04089929
H        2.22907219       1.47115910       0.01040434
H        0.69818654      -2.02178546       0.58445697
H       -0.75282982      -1.66423297      -0.75921678
H       -2.47031869       1.77619224      -0.11709883
12
Frame=10 idx=011941 GeodesicLength=0.43816721254193275 rxn_smarts="[N:1]([c:2]1[c:3]([H:10])[n:4]([H:11])[c:5]([O:6][H:12])[n:7]1)([H:8])[H:9]>>[N:1]([C:2]1=[N:7][C:5]([O:6][H:12])=[N:4][C:3]1([H:10])[H:11])([H:8])[H:9]"
N        2.03136491       0.50819949      -0.19045215
C        0.72953581       0.13026693      -0.02544436
C        0.21187704      -1.18384392       0.09813235
N       -1.20995930      -1.00162442       0.24980328
C       -1.37240257       0.29766289       0.12764736
O       -2.58599765       0.82464675      -0.04899767
N       -0.25368593       1.03586308       0.03184475
H        2.74890102      -0.15834875       0.02974469
H        2.23172461       1.47208547       0.01653375
H        0.69853821      -2.01434874       0.58960455
H       -0.76009541      -1.68769558      -0.76117913
H       -2.46980074       1.77713680      -0.11723739
12
Frame=11 idx=011941 GeodesicLength=0.4819426147629284 rxn_smarts="[N:1]([c:2]1[c:3]([H:10])[n:4]([H:11])[c:5]([O:6][H:12])[n:7]1)([H:8])[H:9]>>[N:1]([C:2]1=[N:7][C:5]([O:6][H:12])=[N:4][C:3]1([H:10])[H:11])([H:8])[H:9]"
N        2.03104942       0.51063174      -0.18880458
C        0.72908565       0.13373218      -0.02449012
C        0.21049065      -1.18302395       0.09255224
N       -1.20671109      -0.99849994       0.24487844
C       -1.37219779       0.29964651       0.13273881
O       -2.58450413       0.82510760      -0.05694972
N       -0.25239163       1.03978499       0.04446747
H        2.74859225      -0.15992016       0.01896476
H        2.23429011       1.47314092       0.02212943
H        0.69875651      -2.00692202       0.59430546
H       -0.76741195      -1.71191173      -0.76255145
H       -2.46904799       1.77823386      -0.11724075
12
Frame=12 idx=011941 GeodesicLength=0.5256598280802273 rxn_smarts="[N:1]([c:2]1[c:3]([H:10])[n:4]([H:11])[c:5]([O:6][H:12])[n:7]1)([H:8])[H:9]>>[N:1]([C:2]1=[N:7][C:5]([O:6][H:12])=[N:4][C:3]1([H:10])[H:11])([H:8])[H:9]"
N        2.03073504       0.51306123      -0.18706140
C        0.72862888       0.13723011      -0.02343563
C        0.20908963      -1.18219721       0.08660964
N       -1.20350466      -0.99538211       0.23940093
C       -1.37198833       0.30161557       0.13798071
O       -2.58279435       0.82577979      -0.06469381
N       -0.25105269       1.04360783       0.05761008
H        2.74820000      -0.16113541       0.00895459
H        2.23675482       1.47436809       0.02699385
H        0.69885800      -1.99955581       0.59836944
H       -0.77488283      -1.73684491      -0.76330139
H       -2.46804351       1.77945282      -0.11742700
12
Frame=13 idx=011941 GeodesicLength=0.5693836120269727 rxn_smarts="[N:1]([c:2]1[c:3]([H:10])[n:4]([H:11])[c:5]([O:6][H:12])[n:7]1)([H:8])[H:9]>>[N:1]([C:2]1=[N:7][C:5]([O:6][H:12])=[N:4][C:3]1([H:10])[H:11])([H:8])[H:9]"
N        2.03040556       0.51552466      -0.18526288
C        0.72815453       0.14076753      -0.02231801
C        0.20768247      -1.18134040       0.08040561
N       -1.20037227      -0.99225508       0.23328769
C       -1.37180999       0.30355465       0.14314324
O       -2.58081284       0.82668631      -0.07283266
N       -0.24969151       1.04730884       0.07119328
H        2.74773775      -0.16205394      -0.00067052
H        2.23911751       1.47573536       0.03140294
H        0.69880932      -1.99215520       0.60206403
H       -0.78237503      -1.76266721      -0.76329176
H       -2.46684549       1.78089447      -0.11712096
12
Frame=14 idx=011941 GeodesicLength=0.6130832531210204 rxn_smarts="[N:1]([c:2]1[c:3]([H:10])[n:4]([H:11])[c:5]([O:6][H:12])[n:7]1)([H:8])[H:9]>>[N:1]([C:2]1=[N:7][C:5]([O:6][H:12])=[N:4][C:3]1([H:10])[H:11])([H:8])[H:9]"
N        2.03006442       0.51796563      -0.18336055
C        0.72766869       0.14432356      -0.02104950
C        0.20625537      -1.18049045       0.07372887
N       -1.19729067      -0.98913820       0.22648916
C       -1.37163414       0.30545360       0.14856210
O       -2.57859385       0.82784940      -0.08055918
N       -0.24828785       1.05084505       0.08550482
H        2.74721471      -0.16257994      -0.00913751
H        2.24128684       1.47739370       0.03467684
H        0.69860905      -1.98488387       0.60497962
H       -0.79002739      -1.78920194      -0.76265386
H       -2.46526520       1.78246347      -0.11718082
12
Frame=15 idx=011941 GeodesicLength=0.6567818920410231 rxn_smarts="[N:1]([c:2]1[c:3]([H:10])[n:4]([H:11])[c:5]([O:6][H:12])[n:7]1)([H:8])[H:9]>>[N:1]([C:2]1=[N:7][C:5]([O:6][H:12])=[N:4][C:3]1([H:10])[H:11])([H:8])[H:9]"
N        2.02970399       0.52042336      -0.18138819
C        0.72716412       0.14790080      -0.01969673
C        0.20481650      -1.17962973       0.06665814
N       -1.19428359      -0.98602023       0.21889904
C       -1.37148355       0.30729519       0.15397110
O       -2.57609358       0.82929526      -0.08843528
N       -0.24685343       1.05420023       0.10042132
H        2.74664150      -0.16277063      -0.01677343
H        2.24327456       1.47930775       0.03708678
H        0.69822458      -1.97764356       0.60737696
H       -0.79772039      -1.81662929      -0.76121565
H       -2.46339070       1.78427085      -0.11690408
12
Frame=16 idx=011941 GeodesicLength=0.7004859094892475 rxn_smarts="[N:1]([c:2]1[c:3]([H:10])[n:4]([H:11])[c:5]([O:6][H:12])[n:7]1)([H:8])[H:9]>>[N:1]([C:2]1=[N:7][C:5]([O:6][H:12])=[N:4][C:3]1([H:10])[H:11])([H:8])[H:9]"
N        2.02928951       0.52297405      -0.17936931
C        0.72662174       0.15152326      -0.01829187
C        0.20337256      -1.17873463       0.05920460
N       -1.19134666      -0.98288042       0.21049144
C       -1.37137440       0.30907304       0.15935708
O       -2.57329789       0.83103861      -0.09652151
N       -0.24540649       1.05735361       0.11606270
H        2.74600664      -0.16268396      -0.02414777
H        2.24509637       1.48142650       0.03913782
H        0.69766867      -1.97037061       0.60932867
H       -0.80544063      -1.84502899      -0.75878644
H       -2.46118941       1.78630953      -0.11646541
