12
Frame=0 idx=003621 GeodesicLength=0.0 rxn_smarts="[C:1](#[C:2][C:3]([C@@:4]1([H:10])[C:5]([H:11])([H:12])[O:6]1)([H:8])[H:9])[H:7]>>[C:1](=[C:2])([C:3]([C@@:4]1([H:10])[C:5]([H:11])([H:12])[O:6]1)([H:8])[H:9])[H:7]"
C        2.26802342      -0.35848312       0.09339845
C        1.64904820      -0.04702567      -0.94594147
C        0.44638101      -0.66143216       0.10832695
C       -0.51412632       0.47543043       0.31866976
C       -1.64691427       0.67266845      -0.56859099
O       -1.81594347       0.09354275       0.72236109
H        2.88941976      -0.59468705       0.93267381
H        0.65751341      -1.11269660       1.08943264
H        0.02540683      -1.45816563      -0.49940006
H       -0.10089821       1.33409889       0.84322787
H       -1.78508629      -0.00691021      -1.40458516
H       -2.07282411       1.66365989      -0.68957293
12
Frame=1 idx=003621 GeodesicLength=0.04449169690354978 rxn_smarts="[C:1](#[C:2][C:3]([C@@:4]1([H:10])[C:5]([H:11])([H:12])[O:6]1)([H:8])[H:9])[H:7]>>[C:1](=[C:2])([C:3]([C@@:4]1([H:10])[C:5]([H:11])([H:12])[O:6]1)([H:8])[H:9])[H:7]"
C        2.26637396      -0.36844150       0.08648576
C        1.65204853      -0.08944323      -0.96297360
C        0.43936482      -0.67763493       0.10913431
C       -0.51409984       0.46502141       0.32392063
C       -1.63999220       0.68213817      -0.56802114
O       -1.82203503       0.09158489       0.71565043
H        2.90153614      -0.50267021       0.93800831
H        0.64376902      -1.13731585       1.08744237
H        0.00500480      -1.46914478      -0.49687994
H       -0.09836501       1.31469671       0.86116486
H       -1.77808944       0.01280238      -1.41231856
H       -2.05551575       1.67840694      -0.68161344
12
Frame=2 idx=003621 GeodesicLength=0.08874830450577079 rxn_smarts="[C:1](#[C:2][C:3]([C@@:4]1([H:10])[C:5]([H:11])([H:12])[O:6]1)([H:8])[H:9])[H:7]>>[C:1](=[C:2])([C:3]([C@@:4]1([H:10])[C:5]([H:11])([H:12])[O:6]1)([H:8])[H:9])[H:7]"
C        2.26494441      -0.37957858       0.08117923
C        1.65611604      -0.13391198      -0.97806592
C        0.43235421      -0.69472608       0.11028615
C       -0.51347221       0.45411268       0.32956417
C       -1.63168191       0.69181762      -0.56722521
O       -1.82766429       0.08989996       0.70872265
H        2.90721097      -0.40455507       0.93765556
H        0.62903734      -1.16333037       1.08558026
H       -0.01524728      -1.48024321      -0.49468872
H       -0.09539045       1.29425237       0.87992856
H       -1.76974486       0.03292243      -1.41972820
H       -2.03646197       1.69334023      -0.67320853
12
Frame=3 idx=003621 GeodesicLength=0.13330451311045696 rxn_smarts="[C:1](#[C:2][C:3]([C@@:4]1([H:10])[C:5]([H:11])([H:12])[O:6]1)([H:8])[H:9])[H:7]>>[C:1](=[C:2])([C:3]([C@@:4]1([H:10])[C:5]([H:11])([H:12])[O:6]1)([H:8])[H:9])[H:7]"
C        2.26368222      -0.38912398       0.07849827
C        1.66124458      -0.17874541      -0.99046916
C        0.42544991      -0.71153628       0.11267880
C       -0.51311923       0.44321850       0.33581064
C       -1.62253190       0.70135976      -0.56673506
O       -1.83376162       0.08810480       0.70104800
H        2.91008258      -0.30791957       0.92880381
H        0.61354594      -1.18900525       1.08506154
H       -0.03462074      -1.49086805      -0.49183259
H       -0.09367394       1.27365947       0.89986786
H       -1.75953946       0.05300169      -1.42751577
H       -2.01675834       1.70785431      -0.66521635
12
Frame=4 idx=003621 GeodesicLength=0.17736370644665747 rxn_smarts="[C:1](#[C:2][C:3]([C@@:4]1([H:10])[C:5]([H:11])([H:12])[O:6]1)([H:8])[H:9])[H:7]>>[C:1](=[C:2])([C:3]([C@@:4]1([H:10])[C:5]([H:11])([H:12])[O:6]1)([H:8])[H:9])[H:7]"
C        2.26198822      -0.39411630       0.07900092
C        1.66686735      -0.22125381      -0.99929735
C        0.41872899      -0.72643127       0.11724123
C       -0.51433534       0.43303320       0.34279330
C       -1.61343026       0.71027547      -0.56714376
O       -1.84138712       0.08566966       0.69183851
H        2.91668774      -0.22259946       0.90960555
H        0.59766957      -1.21207877       1.08697706
H       -0.05206995      -1.50009718      -0.48714091
H       -0.09570519       1.25409597       0.92112512
H       -1.74690552       0.07238482      -1.43629602
H       -1.99810849       1.72111768      -0.65870365
12
Frame=5 idx=003621 GeodesicLength=0.2217146477714926 rxn_smarts="[C:1](#[C:2][C:3]([C@@:4]1([H:10])[C:5]([H:11])([H:12])[O:6]1)([H:8])[H:9])[H:7]>>[C:1](=[C:2])([C:3]([C@@:4]1([H:10])[C:5]([H:11])([H:12])[O:6]1)([H:8])[H:9])[H:7]"
C        2.25997219      -0.39686284       0.08145078
C        1.67303777      -0.26381247      -1.00562665
C        0.41193290      -0.74083924       0.12316511
C       -0.51636357       0.42286147       0.35048150
C       -1.60377490       0.71911187      -0.56795831
O       -1.84997762       0.08285410       0.68141170
H        2.92390529      -0.14041274       0.88283636
H        0.58114358      -1.23445895       1.09031022
H       -0.06876241      -1.50885406      -0.48156333
H       -0.09987463       1.23432689       0.94387999
H       -1.73205454       0.09204268      -1.44579878
H       -1.97918406       1.73404331      -0.65258860
12
Frame=6 idx=003621 GeodesicLength=0.2661684929275512 rxn_smarts="[C:1](#[C:2][C:3]([C@@:4]1([H:10])[C:5]([H:11])([H:12])[O:6]1)([H:8])[H:9])[H:7]>>[C:1](=[C:2])([C:3]([C@@:4]1([H:10])[C:5]([H:11])([H:12])[O:6]1)([H:8])[H:9])[H:7]"
C        2.25818037      -0.39886160       0.08471393
C        1.68042172      -0.30862763      -1.01041728
C        0.40535052      -0.75587442       0.12925014
C       -0.51776525       0.41233371       0.35848661
C       -1.59276617       0.72816364      -0.56841477
O       -1.85787040       0.08037304       0.67078979
H        2.92386503      -0.05494892       0.85177654
H        0.56417212      -1.25785275       1.09352688
H       -0.08517668      -1.51766024      -0.47634246
H       -0.10374999       1.21377236       0.96717873
H       -1.71593830       0.11205261      -1.45474067
H       -1.95872298       1.74713020      -0.64580745
12
Frame=7 idx=003621 GeodesicLength=0.31023184405727977 rxn_smarts="[C:1](#[C:2][C:3]([C@@:4]1([H:10])[C:5]([H:11])([H:12])[O:6]1)([H:8])[H:9])[H:7]>>[C:1](=[C:2])([C:3]([C@@:4]1([H:10])[C:5]([H:11])([H:12])[O:6]1)([H:8])[H:9])[H:7]"
C        2.25575303      -0.39651806       0.08991200
C        1.68819187      -0.35064252      -1.01207316
C        0.39885893      -0.76894297       0.13704168
C       -0.52097296       0.40246455       0.36711905
C       -1.58222619       0.73662372      -0.56957199
O       -1.86733345       0.07706174       0.65860277
H        2.93005435       0.01917920       0.81328556
H        0.54687545      -1.27888249       1.09853243
H       -0.09982047      -1.52501325      -0.46994526
H       -0.11163069       1.19412351       0.99166633
H       -1.69782354       0.13152176      -1.46448952
H       -1.93992634       1.75902481      -0.64007989
12
Frame=8 idx=003621 GeodesicLength=0.3544708604517326 rxn_smarts="[C:1](#[C:2][C:3]([C@@:4]1([H:10])[C:5]([H:11])([H:12])[O:6]1)([H:8])[H:9])[H:7]>>[C:1](=[C:2])([C:3]([C@@:4]1([H:10])[C:5]([H:11])([H:12])[O:6]1)([H:8])[H:9])[H:7]"
C        2.25333558      -0.39258486       0.09545464
C        1.69706030      -0.39446823      -1.01210359
C        0.39256493      -0.78231244       0.14516272
C       -0.52389501       0.39235835       0.37612005
C       -1.57055138       0.74524212      -0.57046900
O       -1.87638609       0.07394419       0.64598795
H        2.93062537       0.09431304       0.77078133
H        0.52934108      -1.30038732       1.10364524
H       -0.11407309      -1.53230745      -0.46367027
H       -0.11982765       1.17388219       1.01677667
H       -1.67825738       0.15132699      -1.47385211
H       -1.91993664       1.77099341      -0.63383363
12
Frame=9 idx=003621 GeodesicLength=0.3986164325926719 rxn_smarts="[C:1](#[C:2][C:3]([C@@:4]1([H:10])[C:5]([H:11])([H:12])[O:6]1)([H:8])[H:9])[H:7]>>[C:1](=[C:2])([C:3]([C@@:4]1([H:10])[C:5]([H:11])([H:12])[O:6]1)([H:8])[H:9])[H:7]"
C        2.25045925      -0.38521531       0.10188664
C        1.70664609      -0.43657450      -1.00959185
C        0.38641354      -0.79433459       0.15432400
C       -0.52802335       0.38267964       0.38555790
C       -1.55908631       0.75346333      -0.57164827
O       -1.88631196       0.07029233       0.63227378
H        2.93456592       0.16159725       0.72324152
H        0.51155790      -1.32044393       1.10971087
H       -0.12695618      -1.53850593      -0.45697067
H       -0.13088894       1.15416533       1.04264249
H       -1.65725886       0.17076405      -1.48343035
H       -1.90111711       1.78211234      -0.62799606
12
Frame=10 idx=003621 GeodesicLength=0.44285918124017876 rxn_smarts="[C:1](#[C:2][C:3]([C@@:4]1([H:10])[C:5]([H:11])([H:12])[O:6]1)([H:8])[H:9])[H:7]>>[C:1](=[C:2])([C:3]([C@@:4]1([H:10])[C:5]([H:11])([H:12])[O:6]1)([H:8])[H:9])[H:7]"
C        2.24741243      -0.37588022       0.10812007
C        1.71723047      -0.47983300      -1.00524924
C        0.38048386      -0.80634875       0.16392840
C       -0.53214728       0.37287620       0.39537459
C       -1.54670080       0.76177224      -0.57261320
O       -1.89599102       0.06672346       0.61794668
H        2.93420712       0.22802600       0.67207915
H        0.49371955      -1.34053300       1.11600602
H       -0.13923863      -1.54448435      -0.45026348
H       -0.14276588       1.13401886       1.06909014
H       -1.63470952       0.19048052      -1.49266067
H       -1.88150030       1.79318205      -0.62175846
12
Frame=11 idx=003621 GeodesicLength=0.4870967065907865 rxn_smarts="[C:1](#[C:2][C:3]([C@@:4]1([H:10])[C:5]([H:11])([H:12])[O:6]1)([H:8])[H:9])[H:7]>>[C:1](=[C:2])([C:3]([C@@:4]1([H:10])[C:5]([H:11])([H:12])[O:6]1)([H:8])[H:9])[H:7]"
C        2.24355765      -0.36277650       0.11467382
C        1.72841041      -0.52112788      -0.99833321
C        0.37465735      -0.81696042       0.17454203
C       -0.53768403       0.36341236       0.40564212
C       -1.53463839       0.76970455      -0.57379010
O       -1.90658635       0.06243240       0.60231876
H        2.93838812       0.28619089       0.61643787
H        0.47577199      -1.35914763       1.12314607
H       -0.15011045      -1.54938418      -0.44313688
H       -0.15785005       1.11421957       1.09629059
H       -1.61065630       0.21001114      -1.50202345
H       -1.86325997       1.80342570      -0.61576762
12
Frame=12 idx=003621 GeodesicLength=0.531536067275751 rxn_smarts="[C:1](#[C:2][C:3]([C@@:4]1([H:10])[C:5]([H:11])([H:12])[O:6]1)([H:8])[H:9])[H:7]>>[C:1](=[C:2])([C:3]([C@@:4]1([H:10])[C:5]([H:11])([H:12])[O:6]1)([H:8])[H:9])[H:7]"
C        2.23927600      -0.34734218       0.12050113
C        1.74057332      -0.56305451      -0.98939714
C        0.36902920      -0.82734284       0.18566892
C       -0.54348604       0.35388467       0.41627424
C       -1.52187321       0.77767398      -0.57476443
O       -1.91707254       0.05809854       0.58591443
H        2.93976165       0.34213732       0.55762260
H        0.45783722      -1.37752303       1.13059357
H       -0.16025461      -1.55397032      -0.43596741
H       -0.17418383       1.09408655       1.12399018
H       -1.58501074       0.22981353      -1.51102716
H       -1.84459642       1.81353829      -0.60940892
12
Frame=13 idx=003621 GeodesicLength=0.5761065022762898 rxn_smarts="[C:1](#[C:2][C:3]([C@@:4]1([H:10])[C:5]([H:11])([H:12])[O:6]1)([H:8])[H:9])[H:7]>>[C:1](=[C:2])([C:3]([C@@:4]1([H:10])[C:5]([H:11])([H:12])[O:6]1)([H:8])[H:9])[H:7]"
C        2.23452022      -0.32967780       0.12535841
C        1.75374376      -0.60524220      -0.97828506
C        0.36362793      -0.83739746       0.19729993
C       -0.54958613       0.34434810       0.42721532
C       -1.50850611       0.78564361      -0.57550976
O       -1.92738350       0.05371394       0.56875335
H        2.93859696       0.39535800       0.49594524
H        0.43992743      -1.39559397       1.13831786
H       -0.16955322      -1.55814051      -0.42883399
H       -0.19180035       1.07371136       1.15201673
H       -1.55787136       0.24982497      -1.51957798
H       -1.82571562       1.82345195      -0.60270006
12
Frame=14 idx=003621 GeodesicLength=0.6206528960519189 rxn_smarts="[C:1](#[C:2][C:3]([C@@:4]1([H:10])[C:5]([H:11])([H:12])[O:6]1)([H:8])[H:9])[H:7]>>[C:1](=[C:2])([C:3]([C@@:4]1([H:10])[C:5]([H:11])([H:12])[O:6]1)([H:8])[H:9])[H:7]"
C        2.22893836      -0.30832412       0.12939849
C        1.76791528      -0.64455018      -0.96487814
C        0.35851672      -0.84573494       0.20934106
C       -0.55692415       0.33543713       0.43817124
C       -1.49611943       0.79301801      -0.57619376
O       -1.93811099       0.04879342       0.55104484
H        2.94288204       0.43879280       0.43308431
H        0.42210407      -1.41206006       1.14613949
H       -0.17717703      -1.56089411      -0.42201481
H       -0.21201307       1.05432421       1.17959415
H       -1.53077338       0.26895591      -1.52752784
H       -1.80923843       1.83224194      -0.59615902
12
Frame=15 idx=003621 GeodesicLength=0.6654312731357261 rxn_smarts="[C:1](#[C:2][C:3]([C@@:4]1([H:10])[C:5]([H:11])([H:12])[O:6]1)([H:8])[H:9])[H:7]>>[C:1](=[C:2])([C:3]([C@@:4]1([H:10])[C:5]([H:11])([H:12])[O:6]1)([H:8])[H:9])[H:7]"
C        2.22261231      -0.28465165       0.13176504
C        1.78307383      -0.68389608      -0.94919999
C        0.35361777      -0.85369189       0.22189085
C       -0.56466996       0.32650011       0.44939370
C       -1.48326248       0.80039532      -0.57661583
O       -1.94866618       0.04376502       0.53252877
H        2.94544612       0.47910693       0.36810844
H        0.40436086      -1.42817152       1.15420597
H       -0.18390605      -1.56322968      -0.41522422
H       -0.23358996       1.03469181       1.20733282
H       -1.50226895       0.28834393      -1.53494550
H       -1.79274731       1.84083770      -0.58924005
12
Frame=16 idx=003621 GeodesicLength=0.7104125322413002 rxn_smarts="[C:1](#[C:2][C:3]([C@@:4]1([H:10])[C:5]([H:11])([H:12])[O:6]1)([H:8])[H:9])[H:7]>>[C:1](=[C:2])([C:3]([C@@:4]1([H:10])[C:5]([H:11])([H:12])[O:6]1)([H:8])[H:9])[H:7]"
C        2.21538504      -0.25846948       0.13213394
C        1.79927997      -0.72250256      -0.93120701
C        0.34896883      -0.86098513       0.23486172
C       -0.57295570       0.31768033       0.46076539
C       -1.47030890       0.80763694      -0.57676091
O       -1.95906121       0.03856548       0.51335693
H        2.94781617       0.51483562       0.30186193
H        0.38673100      -1.44367895       1.16239543
H       -0.18954209      -1.56492915      -0.40859272
H       -0.25664124       1.01510290       1.23491719
H       -1.47284451       0.30770898      -1.54169201
H       -1.77682738       1.84903501      -0.58203988
