15
Frame=0 idx=003102 GeodesicLength=0.0 rxn_smarts="[C:1]([C@@:2]1([H:10])[N:3]([H:11])[C@:4]1([C:5]([O:6][H:15])([H:13])[H:14])[H:12])([H:7])([H:8])[H:9]>>[C:1]([C:2](=[C:4]([N:3]([C:5]([O:6][H:15])([H:13])[H:14])[H:11])[H:12])[H:10])([H:7])([H:8])[H:9]"
C       -1.77351077       0.16736845       0.67209051
C       -0.96805482      -0.01110612      -0.54525386
N        1.12145163      -0.11160324      -1.63716811
C        0.33493454      -0.63919784      -0.63651980
C        1.09148453      -0.00523201       0.73237104
O        1.45152021       1.29146540       0.49086592
H       -2.82235124       0.31087406       0.40749960
H       -1.67517407      -0.66207313       1.37377429
H       -1.45540932       1.08615610       1.19074323
H       -1.22543276       0.61050495      -1.40027786
H        1.50011766      -0.82936676      -2.24452367
H        0.31838428      -1.71371388      -0.38746896
H        1.94042252      -0.68671066       0.82980863
H        0.45465155      -0.06570543       1.61389649
H        1.70696604       1.25834006      -0.45983740
15
Frame=1 idx=003102 GeodesicLength=0.14325821839192954 rxn_smarts="[C:1]([C@@:2]1([H:10])[N:3]([H:11])[C@:4]1([C:5]([O:6][H:15])([H:13])[H:14])[H:12])([H:7])([H:8])[H:9]>>[C:1]([C:2](=[C:4]([N:3]([C:5]([O:6][H:15])([H:13])[H:14])[H:11])[H:12])[H:10])([H:7])([H:8])[H:9]"
C       -1.78180937       0.21072084       0.66458202
C       -0.96424298      -0.03370308      -0.53232709
N        1.10867190      -0.07269203      -1.60445264
C        0.32932209      -0.66181286      -0.63442202
C        1.12560630      -0.04675957       0.72864744
O        1.46146997       1.26781787       0.54521751
H       -2.83800772       0.28866501       0.40055618
H       -1.66557359      -0.54430021       1.44251747
H       -1.50208533       1.18232105       1.10190612
H       -1.29041460       0.47739798      -1.43591952
H        1.50073867      -0.75259668      -2.24517536
H        0.32324208      -1.74631193      -0.44426739
H        1.98857739      -0.71386118       0.80320238
H        0.50457473      -0.14530696       1.61844626
H        1.69993045       1.29042176      -0.40851137
15
Frame=2 idx=003102 GeodesicLength=0.28549498148262453 rxn_smarts="[C:1]([C@@:2]1([H:10])[N:3]([H:11])[C@:4]1([C:5]([O:6][H:15])([H:13])[H:14])[H:12])([H:7])([H:8])[H:9]>>[C:1]([C:2](=[C:4]([N:3]([C:5]([O:6][H:15])([H:13])[H:14])[H:11])[H:12])[H:10])([H:7])([H:8])[H:9]"
C       -1.78754145       0.25958283       0.65383371
C       -0.96135965      -0.05813223      -0.51946564
N        1.09246210      -0.03048588      -1.56850728
C        0.32398817      -0.68508513      -0.63328725
C        1.15976570      -0.09202694       0.72475850
O        1.46690539       1.23905811       0.60639596
H       -2.85012932       0.26186241       0.40272578
H       -1.64586593      -0.40166360       1.50835677
H       -1.55362570       1.28194483       0.98970804
H       -1.35556572       0.32590096      -1.45876710
H        1.49830752      -0.66729713      -2.24341308
H        0.32941305      -1.77707436      -0.50912447
H        2.03847051      -0.74132937       0.77276690
H        0.55556537      -0.23634279       1.62042954
H        1.68920998       1.32108829      -0.34641037
15
Frame=3 idx=003102 GeodesicLength=0.42708465046342503 rxn_smarts="[C:1]([C@@:2]1([H:10])[N:3]([H:11])[C@:4]1([C:5]([O:6][H:15])([H:13])[H:14])[H:12])([H:7])([H:8])[H:9]>>[C:1]([C:2](=[C:4]([N:3]([C:5]([O:6][H:15])([H:13])[H:14])[H:11])[H:12])[H:10])([H:7])([H:8])[H:9]"
C       -1.78993974       0.31400048       0.63876318
C       -0.95989920      -0.08516042      -0.50657937
N        1.07200627       0.01421329      -1.52875886
C        0.31860061      -0.70932982      -0.63344766
C        1.19319358      -0.14092891       0.72027697
O        1.46563312       1.20431659       0.67414630
H       -2.85635261       0.23183127       0.41780623
H       -1.61322739      -0.23093519       1.56514865
H       -1.61103570       1.37897280       0.85243576
H       -1.41877175       0.15950740      -1.46384837
H        1.49305837      -0.57394791      -2.23697188
H        0.33732680      -1.80507868      -0.58233849
H        2.08952073      -0.76776924       0.73837654
H        0.60652577      -0.33885258       1.61789799
H        1.67336114       1.34916092      -0.27290698
15
Frame=4 idx=003102 GeodesicLength=0.5680216348169262 rxn_smarts="[C:1]([C@@:2]1([H:10])[N:3]([H:11])[C@:4]1([C:5]([O:6][H:15])([H:13])[H:14])[H:12])([H:7])([H:8])[H:9]>>[C:1]([C:2](=[C:4]([N:3]([C:5]([O:6][H:15])([H:13])[H:14])[H:11])[H:12])[H:10])([H:7])([H:8])[H:9]"
C       -1.78906786       0.37191964       0.61836183
C       -0.96011888      -0.11624857      -0.49352523
N        1.04778116       0.05933013      -1.48480721
C        0.31330965      -0.73489153      -0.63485506
C        1.22512591      -0.19183991       0.71532310
O        1.45706144       1.16369386       0.74736207
H       -2.85517151       0.20385993       0.44920382
H       -1.56762303      -0.03551454       1.60345963
H       -1.67226638       1.46364992       0.69258104
H       -1.47767467      -0.01360920      -1.44764074
H        1.48310650      -0.47489934      -2.22578340
H        0.34784951      -1.82923116      -0.66279943
H        2.14050402      -0.79099602       0.70194433
H        0.65616627      -0.44887726       1.61007651
H        1.65101785       1.37365403      -0.18890127
15
Frame=5 idx=003102 GeodesicLength=0.7099273832219815 rxn_smarts="[C:1]([C@@:2]1([H:10])[N:3]([H:11])[C@:4]1([C:5]([O:6][H:15])([H:13])[H:14])[H:12])([H:7])([H:8])[H:9]>>[C:1]([C:2](=[C:4]([N:3]([C:5]([O:6][H:15])([H:13])[H:14])[H:11])[H:12])[H:10])([H:7])([H:8])[H:9]"
C       -1.78566307       0.43130180       0.59237652
C       -0.96170423      -0.14890702      -0.47962381
N        1.02042939       0.10258957      -1.43695622
C        0.30750591      -0.76102426      -0.63752508
C        1.25539908      -0.24290634       0.70951038
O        1.44285386       1.11758470       0.82356143
H       -2.84498051       0.18090523       0.49743083
H       -1.51051026       0.17786760       1.61459088
H       -1.73923761       1.52789507       0.51846145
H       -1.53165153      -0.18555335      -1.40945191
H        1.46953806      -0.37389116      -2.20790756
H        0.35949937      -1.84764779      -0.74886239
H        2.19033824      -0.80982543       0.66469143
H        0.70419884      -0.56152380       1.59640447
H        1.62398447       1.39313518      -0.09670040
15
Frame=6 idx=003102 GeodesicLength=0.8526871816105058 rxn_smarts="[C:1]([C@@:2]1([H:10])[N:3]([H:11])[C@:4]1([C:5]([O:6][H:15])([H:13])[H:14])[H:12])([H:7])([H:8])[H:9]>>[C:1]([C:2](=[C:4]([N:3]([C:5]([O:6][H:15])([H:13])[H:14])[H:11])[H:12])[H:10])([H:7])([H:8])[H:9]"
C       -1.78107257       0.48922171       0.56107835
C       -0.96354477      -0.18044204      -0.46477883
N        0.99209803       0.14187232      -1.38569963
C        0.30121378      -0.78670549      -0.64085473
C        1.28414056      -0.29174221       0.70288357
O        1.42628880       1.06739938       0.90005387
H       -2.82546333       0.16761086       0.55929067
H       -1.44761439       0.39692733       1.59298617
H       -1.81190384       1.56612855       0.34063746
H       -1.57985517      -0.34900766      -1.35038628
H        1.45124733      -0.27488891      -2.18427179
H        0.37022345      -1.85859245      -0.83782410
H        2.23782493      -0.82350799       0.62846664
H        0.75137412      -0.67134160       1.57792793
H        1.59504307       1.40706819       0.00049070
15
Frame=7 idx=003102 GeodesicLength=0.9959010396891861 rxn_smarts="[C:1]([C@@:2]1([H:10])[N:3]([H:11])[C@:4]1([C:5]([O:6][H:15])([H:13])[H:14])[H:12])([H:7])([H:8])[H:9]>>[C:1]([C:2](=[C:4]([N:3]([C:5]([O:6][H:15])([H:13])[H:14])[H:11])[H:12])[H:10])([H:7])([H:8])[H:9]"
C       -1.77708213       0.54473903       0.52477990
C       -0.96523357      -0.20826401      -0.44940965
N        0.96435205       0.17650369      -1.33205152
C        0.29419661      -0.81087081      -0.64492800
C        1.31189166      -0.33758371       0.69527512
O        1.41017714       1.01359914       0.97562951
H       -2.79660595       0.16586260       0.63169898
H       -1.38425002       0.61499780       1.53732937
H       -1.89206291       1.57778425       0.16708732
H       -1.62240620      -0.50188463      -1.27177467
H        1.43052997      -0.18004679      -2.15485127
H        0.37806437      -1.86066861      -0.92858043
H        2.28301613      -0.83248696       0.59355033
H        0.79899345      -0.77687337       1.55515187
H        1.56641939       1.41519238       0.10109313
15
Frame=8 idx=003102 GeodesicLength=1.1374126290216307 rxn_smarts="[C:1]([C@@:2]1([H:10])[N:3]([H:11])[C@:4]1([C:5]([O:6][H:15])([H:13])[H:14])[H:12])([H:7])([H:8])[H:9]>>[C:1]([C:2](=[C:4]([N:3]([C:5]([O:6][H:15])([H:13])[H:14])[H:11])[H:12])[H:10])([H:7])([H:8])[H:9]"
C       -1.77439050       0.59733111       0.48367072
C       -0.96593512      -0.23022660      -0.43473860
N        0.93917500       0.20652748      -1.27655421
C        0.28651987      -0.83255332      -0.64975315
C        1.33856877      -0.38030392       0.68666286
O        1.39604148       0.95634431       1.04965203
H       -2.75697553       0.17659308       0.71141822
H       -1.32454656       0.82735012       1.44761976
H       -1.98226279       1.56344622       0.00339922
H       -1.65837094      -0.64281027      -1.17379011
H        1.40851717      -0.09037860      -2.12033384
H        0.38099106      -1.85287916      -1.01988068
H        2.32528969      -0.83764817       0.56030660
H        0.84746931      -0.87813328       1.52806367
H        1.53990910       1.41734101       0.20425751
15
Frame=9 idx=003102 GeodesicLength=1.2751546465380623 rxn_smarts="[C:1]([C@@:2]1([H:10])[N:3]([H:11])[C@:4]1([C:5]([O:6][H:15])([H:13])[H:14])[H:12])([H:7])([H:8])[H:9]>>[C:1]([C:2](=[C:4]([N:3]([C:5]([O:6][H:15])([H:13])[H:14])[H:11])[H:12])[H:10])([H:7])([H:8])[H:9]"
C       -1.77403339       0.64728295       0.43779404
C       -0.96595027      -0.24685281      -0.42097307
N        0.91696149       0.23265065      -1.21981898
C        0.27841251      -0.85157593      -0.65566449
C        1.36470377      -0.42053239       0.67708751
O        1.38444449       0.89499675       1.12265024
H       -2.70649232       0.20315511       0.79497959
H       -1.27329124       1.03147821       1.32449268
H       -2.08222308       1.52425436      -0.14708085
H       -1.68645135      -0.77211495      -1.05547586
H        1.38648376      -0.00508309      -2.08148061
H        0.37863477      -1.83484889      -1.11173233
H        2.36557462      -0.83957040       0.52834940
H        0.89768046      -0.97650146       1.49636681
H        1.51554579       1.41326190       0.31050592
15
Frame=10 idx=003102 GeodesicLength=1.4078752898367115 rxn_smarts="[C:1]([C@@:2]1([H:10])[N:3]([H:11])[C@:4]1([C:5]([O:6][H:15])([H:13])[H:14])[H:12])([H:7])([H:8])[H:9]>>[C:1]([C:2](=[C:4]([N:3]([C:5]([O:6][H:15])([H:13])[H:14])[H:11])[H:12])[H:10])([H:7])([H:8])[H:9]"
C       -1.77701693       0.69404738       0.38741919
C       -0.96528899      -0.25860504      -0.40758166
N        0.89750442       0.25519226      -1.16223085
C        0.26991869      -0.86785568      -0.66219131
C        1.39078844      -0.45839517       0.66645963
O        1.37628545       0.82964853       1.19379117
H       -2.64641808       0.24741188       0.87625964
H       -1.23681083       1.22204120       1.17100864
H       -2.18947766       1.46197424      -0.27972554
H       -1.70343746      -0.88643123      -0.91802192
H        1.36454237       0.07569196      -2.03864201
H        0.36995284      -1.80661129      -1.20244150
H        2.40417476      -0.83883679       0.49727354
H        0.95029489      -1.07175271       1.45987557
H        1.49498810       1.40248048       0.41874740
15
Frame=11 idx=003102 GeodesicLength=1.5397163397681122 rxn_smarts="[C:1]([C@@:2]1([H:10])[N:3]([H:11])[C@:4]1([C:5]([O:6][H:15])([H:13])[H:14])[H:12])([H:7])([H:8])[H:9]>>[C:1]([C:2](=[C:4]([N:3]([C:5]([O:6][H:15])([H:13])[H:14])[H:11])[H:12])[H:10])([H:7])([H:8])[H:9]"
C       -1.78414359       0.73745684       0.33237941
C       -0.96405514      -0.26674673      -0.39317160
N        0.88015621       0.27469171      -1.10350911
C        0.26110501      -0.88165191      -0.66888601
C        1.41761476      -0.49449182       0.65468886
O        1.37218617       0.75957118       1.26332123
H       -2.57909678       0.31146456       0.94959307
H       -1.21875077       1.39536963       0.98961167
H       -2.30106022       1.37865877      -0.39236374
H       -1.70708080      -0.98303723      -0.76280075
H        1.34214087       0.15292270      -1.99188586
H        0.35411552      -1.76847495      -1.29073960
H        2.44201294      -0.83567303       0.46625925
H        1.00637981      -1.16460621       1.41810175
H        1.47847601       1.38454649       0.52940141
15
Frame=12 idx=003102 GeodesicLength=1.6768641643512683 rxn_smarts="[C:1]([C@@:2]1([H:10])[N:3]([H:11])[C@:4]1([C:5]([O:6][H:15])([H:13])[H:14])[H:12])([H:7])([H:8])[H:9]>>[C:1]([C:2](=[C:4]([N:3]([C:5]([O:6][H:15])([H:13])[H:14])[H:11])[H:12])[H:10])([H:7])([H:8])[H:9]"
C       -1.79643098       0.77742229       0.27206991
C       -0.96226182      -0.27218019      -0.37531917
N        0.86403249       0.29189623      -1.04274049
C        0.25186271      -0.89306269      -0.67505633
C        1.44642513      -0.52967361       0.64156306
O        1.37345462       0.68319956       1.33201302
H       -2.50835441       0.39744047       1.00915371
H       -1.22158435       1.54819374       0.78182421
H       -2.41373203       1.27627360      -0.48452236
H       -1.69585405      -1.05931534      -0.59100119
H        1.31792688       0.22829315      -1.94078140
H        0.33030256      -1.72053427      -1.37507191
H        2.48043197      -0.83013395       0.43395985
H        1.06778899      -1.25634641       1.37009736
H        1.46599229       1.35852742       0.64381171
15
Frame=13 idx=003102 GeodesicLength=1.8215298032743439 rxn_smarts="[C:1]([C@@:2]1([H:10])[N:3]([H:11])[C@:4]1([C:5]([O:6][H:15])([H:13])[H:14])[H:12])([H:7])([H:8])[H:9]>>[C:1]([C:2](=[C:4]([N:3]([C:5]([O:6][H:15])([H:13])[H:14])[H:11])[H:12])[H:10])([H:7])([H:8])[H:9]"
C       -1.81507094       0.81283057       0.20627667
C       -0.95949045      -0.27425634      -0.35168874
N        0.84844403       0.30722844      -0.97901450
C        0.24172101      -0.90158413      -0.67949327
C        1.47779584      -0.56415129       0.62681082
O        1.38234903       0.59982175       1.39942176
H       -2.43836525       0.50431782       1.04955209
H       -1.24811978       1.67521604       0.55103483
H       -2.52346092       1.15851380      -0.55508626
H       -1.66869186      -1.11119102      -0.40724485
H        1.29098291       0.30202861      -1.88444971
H        0.29823197      -1.66281338      -1.45246578
H        2.51937071      -0.82308227       0.39922194
H        1.13485131      -1.34610191       1.31535700
H        1.45945240       1.32322331       0.76176800
15
Frame=14 idx=003102 GeodesicLength=1.9733344825247023 rxn_smarts="[C:1]([C@@:2]1([H:10])[N:3]([H:11])[C@:4]1([C:5]([O:6][H:15])([H:13])[H:14])[H:12])([H:7])([H:8])[H:9]>>[C:1]([C:2](=[C:4]([N:3]([C:5]([O:6][H:15])([H:13])[H:14])[H:11])[H:12])[H:10])([H:7])([H:8])[H:9]"
C       -1.84130530       0.84328546       0.13418887
C       -0.95573661      -0.27188797      -0.31920614
N        0.83285280       0.32201365      -0.91038704
C        0.22981325      -0.90634492      -0.68100770
C        1.51299503      -0.59863779       0.60996171
O        1.40139276       0.50748569       1.46604600
H       -2.37604621       0.63273735       1.06407840
H       -1.29779499       1.77145528       0.29839275
H       -2.62815921       1.02683882      -0.60532766
H       -1.62677156      -1.13607770      -0.21235128
H        1.26025491       0.37659244      -1.82099081
H        0.25725895      -1.59488546      -1.52056851
H        2.55999773      -0.81457399       0.36033514
H        1.20877549      -1.43497822       1.25191872
H        1.46247296       1.27697737       0.88491754
15
Frame=15 idx=003102 GeodesicLength=2.1282229362881186 rxn_smarts="[C:1]([C@@:2]1([H:10])[N:3]([H:11])[C@:4]1([C:5]([O:6][H:15])([H:13])[H:14])[H:12])([H:7])([H:8])[H:9]>>[C:1]([C:2](=[C:4]([N:3]([C:5]([O:6][H:15])([H:13])[H:14])[H:11])[H:12])[H:10])([H:7])([H:8])[H:9]"
C       -1.87514210       0.86638202       0.05638145
C       -0.95074790      -0.26255797      -0.27722749
N        0.81711150       0.33696845      -0.83602885
C        0.21498352      -0.90594721      -0.67840870
C        1.55109634      -0.63264983       0.59068026
O        1.43204861       0.40626879       1.53045951
H       -2.32511545       0.77869042       1.04886126
H       -1.36898263       1.82885286       0.02872747
H       -2.72362045       0.88638021      -0.63483739
H       -1.57135168      -1.13058308      -0.01113596
H        1.22668334       0.45165930      -1.74885977
H        0.20827745      -1.51601991      -1.57680356
H        2.60064690      -0.80558711       0.31694774
H        1.28670113      -1.52070144       1.17927304
H        1.47741142       1.21884449       1.01197099
15
Frame=16 idx=003102 GeodesicLength=2.281506769731767 rxn_smarts="[C:1]([C@@:2]1([H:10])[N:3]([H:11])[C@:4]1([C:5]([O:6][H:15])([H:13])[H:14])[H:12])([H:7])([H:8])[H:9]>>[C:1]([C:2](=[C:4]([N:3]([C:5]([O:6][H:15])([H:13])[H:14])[H:11])[H:12])[H:10])([H:7])([H:8])[H:9]"
C       -1.91419716       0.88100523      -0.02495039
C       -0.94547510      -0.24451854      -0.23039628
N        0.80203242       0.35170629      -0.75703578
C        0.19658068      -0.90028893      -0.67181301
C        1.58977034      -0.66479458       0.56935935
O        1.47031531       0.29811018       1.59083424
H       -2.28471806       0.93566024       1.00223471
H       -1.45290641       1.84008000      -0.24947273
H       -2.80940867       0.74425174      -0.63856164
H       -1.50631666      -1.09275867       0.18813664
H        1.19288521       0.52571493      -1.66837118
H        0.15437271      -1.42859083      -1.61967497
H        2.63969604      -0.79434481       0.27171433
H        1.36428528      -1.60089740       1.09730897
H        1.50308405       1.14966514       1.14068774
