13
Frame=0 idx=008022 GeodesicLength=0.0 rxn_smarts="[O:1]([C:2]([C:3]([C:4]#[C:5][H:12])([C:6]#[C:7][H:13])[H:11])([H:9])[H:10])[H:8]>>[O:1]([C:2](/[C:3](=[C:4](/[C:5][H:12])[H:11])[C:6]#[C:7][H:13])([H:9])[H:10])[H:8]"
O        1.98658984      -1.04619088      -0.19696430
C        1.40310215       0.11457581       0.32034250
C       -0.09772988       0.17543814       0.11553302
C       -0.79154206      -0.92876548      -0.37761624
C       -1.64114738      -1.88155989      -0.48964800
C       -0.75457475       1.39791944       0.38683222
C       -1.28914619       2.44429666       0.63709326
H        1.57137017      -1.81337641       0.20794416
H        1.58023657       0.21712741       1.40104636
H        1.89182397       0.96083475      -0.16602550
H       -0.08439250      -0.69794236      -1.28000293
H       -1.99969619      -2.30735383      -1.41885842
H       -1.77489376       3.36499658       0.86032384
13
Frame=1 idx=008022 GeodesicLength=0.060573593162977855 rxn_smarts="[O:1]([C:2]([C:3]([C:4]#[C:5][H:12])([C:6]#[C:7][H:13])[H:11])([H:9])[H:10])[H:8]>>[O:1]([C:2](/[C:3](=[C:4](/[C:5][H:12])[H:11])[C:6]#[C:7][H:13])([H:9])[H:10])[H:8]"
O        2.00534930      -1.04475264      -0.17929880
C        1.40873002       0.11844949       0.31731698
C       -0.08745430       0.17547355       0.08131002
C       -0.77866860      -0.94439965      -0.37839081
C       -1.67304559      -1.85621622      -0.48663502
C       -0.75292809       1.39429267       0.35377496
C       -1.29822517       2.42595938       0.63839552
H        1.59261550      -1.80914936       0.23313084
H        1.56601533       0.23235081       1.39971623
H        1.90214896       0.96190893      -0.16930641
H       -0.06362895      -0.70813682      -1.29036250
H       -2.04051887      -2.28686479      -1.41015947
H       -1.78038954       3.34108465       0.89050846
13
Frame=2 idx=008022 GeodesicLength=0.1203255903734312 rxn_smarts="[O:1]([C:2]([C:3]([C:4]#[C:5][H:12])([C:6]#[C:7][H:13])[H:11])([H:9])[H:10])[H:8]>>[O:1]([C:2](/[C:3](=[C:4](/[C:5][H:12])[H:11])[C:6]#[C:7][H:13])([H:9])[H:10])[H:8]"
O        2.02255764      -1.04517497      -0.16150697
C        1.41491602       0.12120798       0.31402141
C       -0.07602843       0.17633036       0.04684288
C       -0.76686112      -0.95683991      -0.37983852
C       -1.70293659      -1.82725127      -0.48221882
C       -0.74789465       1.39288881       0.32038905
C       -1.30159896       2.40991078       0.63863560
H        1.61074739      -1.80588666       0.25837024
H        1.55241453       0.24617969       1.39765649
H        1.91446646       0.96104255      -0.17274630
H       -0.04295835      -0.71654072      -1.30145009
H       -2.07993148      -2.26528555      -1.39845889
H       -1.79689247       3.30941891       0.92030392
13
Frame=3 idx=008022 GeodesicLength=0.17922156422774432 rxn_smarts="[O:1]([C:2]([C:3]([C:4]#[C:5][H:12])([C:6]#[C:7][H:13])[H:11])([H:9])[H:10])[H:8]>>[O:1]([C:2](/[C:3](=[C:4](/[C:5][H:12])[H:11])[C:6]#[C:7][H:13])([H:9])[H:10])[H:8]"
O        2.03824906      -1.04312502      -0.14515617
C        1.41843900       0.12449787       0.31145302
C       -0.06694617       0.17582803       0.01385309
C       -0.75648198      -0.96947568      -0.38238899
C       -1.72851861      -1.80132339      -0.47810913
C       -0.74649786       1.38899513       0.29087258
C       -1.30852877       2.39172831       0.63793309
H        1.62820002      -1.80133058       0.28071644
H        1.53634684       0.25847533       1.39608445
H        1.92287909       0.96231460      -0.17387047
H       -0.02367438      -0.72267569      -1.31341247
H       -2.11482979      -2.24844648      -1.38611170
H       -1.79863644       3.28453757       0.94813626
13
Frame=4 idx=008022 GeodesicLength=0.23760062159370515 rxn_smarts="[O:1]([C:2]([C:3]([C:4]#[C:5][H:12])([C:6]#[C:7][H:13])[H:11])([H:9])[H:10])[H:8]>>[O:1]([C:2](/[C:3](=[C:4](/[C:5][H:12])[H:11])[C:6]#[C:7][H:13])([H:9])[H:10])[H:8]"
O        2.05272660      -1.04267379      -0.12972919
C        1.42278485       0.12650565       0.30889343
C       -0.05671754       0.17580575      -0.01792976
C       -0.74703657      -0.97918646      -0.38527960
C       -1.75204417      -1.77306835      -0.47265550
C       -0.74202399       1.38653630       0.26357854
C       -1.30969155       2.37624357       0.63731643
H        1.64335465      -1.79799749       0.30166823
H        1.52193724       0.26852634       1.39414493
H        1.93290131       0.96199954      -0.17462504
H       -0.00481762      -0.72609688      -1.32581688
H       -2.14920110      -2.23002393      -1.37109423
H       -1.81217212       3.25342973       0.97152862
13
Frame=5 idx=008022 GeodesicLength=0.2954083510413273 rxn_smarts="[O:1]([C:2]([C:3]([C:4]#[C:5][H:12])([C:6]#[C:7][H:13])[H:11])([H:9])[H:10])[H:8]>>[O:1]([C:2](/[C:3](=[C:4](/[C:5][H:12])[H:11])[C:6]#[C:7][H:13])([H:9])[H:10])[H:8]"
O        2.06599157      -1.04074317      -0.11568222
C        1.42536286       0.12859439       0.30699003
C       -0.04806657       0.17482494      -0.04790741
C       -0.73869473      -0.98869361      -0.38915138
C       -1.77235407      -1.74728547      -0.46747508
C       -0.73982329       1.38237383       0.23984302
C       -1.31266676       2.35992611       0.63652328
H        1.65783982      -1.79413681       0.32001320
H        1.50626004       0.27684414       1.39268837
H        1.94018568       0.96299854      -0.17353065
H        0.01301866      -0.72702025      -1.33896291
H       -2.18018288      -2.21529214      -1.35544937
H       -1.81687033       3.22760949       0.99210112
13
Frame=6 idx=008022 GeodesicLength=0.3528187527063095 rxn_smarts="[O:1]([C:2]([C:3]([C:4]#[C:5][H:12])([C:6]#[C:7][H:13])[H:11])([H:9])[H:10])[H:8]>>[O:1]([C:2](/[C:3](=[C:4](/[C:5][H:12])[H:11])[C:6]#[C:7][H:13])([H:9])[H:10])[H:8]"
O        2.07814516      -1.03930090      -0.10258790
C        1.42778025       0.12999889       0.30532247
C       -0.03940536       0.17385411      -0.07642903
C       -0.73129102      -0.99655165      -0.39365202
C       -1.79082304      -1.72118325      -0.46184297
C       -0.73675833       1.37856150       0.21832580
C       -1.31309236       2.34545291       0.63514956
H        1.67080437      -1.79089099       0.33676529
H        1.49116256       0.28343045       1.39123635
H        1.94737579       0.96351317      -0.17172146
H        0.03030077      -0.72545723      -1.35265013
H       -2.20928808      -2.20186721      -1.33809222
H       -1.82491072       3.20044019       1.01017625
13
Frame=7 idx=008022 GeodesicLength=0.4097560038175429 rxn_smarts="[O:1]([C:2]([C:3]([C:4]#[C:5][H:12])([C:6]#[C:7][H:13])[H:11])([H:9])[H:10])[H:8]>>[O:1]([C:2](/[C:3](=[C:4](/[C:5][H:12])[H:11])[C:6]#[C:7][H:13])([H:9])[H:10])[H:8]"
O        2.08935147      -1.03693406      -0.09070446
C        1.42894164       0.13128674       0.30423508
C       -0.03189467       0.17219472      -0.10316640
C       -0.72469184      -1.00417771      -0.39905187
C       -1.80689873      -1.69719667      -0.45649548
C       -0.73524996       1.37353003       0.19974405
C       -1.31445789       2.33092173       0.63374195
H        1.68322419      -1.78752033       0.35126638
H        1.47537297       0.28836349       1.39024943
H        1.95251046       0.96487928      -0.16842183
H        0.04688901      -0.72150787      -1.36695403
H       -2.23579238      -2.19151967      -1.32011889
H       -1.82730427       3.17768032       1.02567605
13
Frame=8 idx=008022 GeodesicLength=0.4664089459903111 rxn_smarts="[O:1]([C:2]([C:3]([C:4]#[C:5][H:12])([C:6]#[C:7][H:13])[H:11])([H:9])[H:10])[H:8]>>[O:1]([C:2](/[C:3](=[C:4](/[C:5][H:12])[H:11])[C:6]#[C:7][H:13])([H:9])[H:10])[H:8]"
O        2.09985845      -1.03415747      -0.07996610
C        1.42942684       0.13225357       0.30357462
C       -0.02502220       0.17008413      -0.12822727
C       -0.71868911      -1.01137249      -0.40519693
C       -1.82110056      -1.67457486      -0.45122755
C       -0.73445324       1.36772676       0.18381013
C       -1.31594616       2.31619471       0.63364511
H        1.69517198      -1.78433803       0.36380682
H        1.45955627       0.29166161       1.38959302
H        1.95638876       0.96663424      -0.16401807
H        0.06300277      -0.71524689      -1.38178909
H       -2.26062169      -2.18297485      -1.30133699
H       -1.82757212       3.15810954       1.03733232
13
Frame=9 idx=008022 GeodesicLength=0.5228232650908514 rxn_smarts="[O:1]([C:2]([C:3]([C:4]#[C:5][H:12])([C:6]#[C:7][H:13])[H:11])([H:9])[H:10])[H:8]>>[O:1]([C:2](/[C:3](=[C:4](/[C:5][H:12])[H:11])[C:6]#[C:7][H:13])([H:9])[H:10])[H:8]"
O        2.10989735      -1.03053260      -0.07031786
C        1.42899012       0.13309727       0.30340687
C       -0.01904897       0.16728596      -0.15166904
C       -0.71303451      -1.01877468      -0.41217587
C       -1.83324650      -1.65425262      -0.44615353
C       -0.73511230       1.36058018       0.17050272
C       -1.31890275       2.30009228       0.63549794
H        1.70717099      -1.78107674       0.37441745
H        1.44333321       0.29347570       1.38937556
H        1.95847921       0.96917966      -0.15837735
H        0.07878072      -0.70690606      -1.39715196
H       -2.28419799      -2.17590366      -1.28224295
H       -1.82310859       3.14373532       1.04488802
13
Frame=10 idx=008022 GeodesicLength=0.5791066419848068 rxn_smarts="[O:1]([C:2]([C:3]([C:4]#[C:5][H:12])([C:6]#[C:7][H:13])[H:11])([H:9])[H:10])[H:8]>>[O:1]([C:2](/[C:3](=[C:4](/[C:5][H:12])[H:11])[C:6]#[C:7][H:13])([H:9])[H:10])[H:8]"
O        2.11946436      -1.02716007      -0.06076547
C        1.42842966       0.13365773       0.30332607
C       -0.01303360       0.16440062      -0.17441115
C       -0.70763063      -1.02561955      -0.41979450
C       -1.84399887      -1.63451624      -0.44063975
C       -0.73544356       1.35354732       0.15751143
C       -1.32109691       2.28473076       0.63632630
H        1.71851491      -1.77805774       0.38477368
H        1.42728437       0.29473264       1.38905617
H        1.96039144       0.97145120      -0.15260016
H        0.09481979      -0.69732955      -1.41291960
H       -2.30776462      -2.16821755      -1.26209458
H       -1.81993635       3.12838044       1.05223157
13
Frame=11 idx=008022 GeodesicLength=0.6353280145718812 rxn_smarts="[O:1]([C:2]([C:3]([C:4]#[C:5][H:12])([C:6]#[C:7][H:13])[H:11])([H:9])[H:10])[H:8]>>[O:1]([C:2](/[C:3](=[C:4](/[C:5][H:12])[H:11])[C:6]#[C:7][H:13])([H:9])[H:10])[H:8]"
O        2.12868851      -1.02416425      -0.05105602
C        1.42791729       0.13396006       0.30322646
C       -0.00678173       0.16142521      -0.19669711
C       -0.70233926      -1.03199671      -0.42794183
C       -1.85341871      -1.61528275      -0.43440088
C       -0.73522023       1.34675049       0.14427464
C       -1.32242343       2.27016316       0.63569965
H        1.72927479      -1.77525926       0.39532864
H        1.41150470       0.29575555       1.38849766
H        1.96238726       0.97331985      -0.14697662
H        0.11133865      -0.68690719      -1.42901828
H       -2.33195587      -2.15873567      -1.24096420
H       -1.81897200       3.11097150       1.06002789
13
Frame=12 idx=008022 GeodesicLength=0.691548427652789 rxn_smarts="[O:1]([C:2]([C:3]([C:4]#[C:5][H:12])([C:6]#[C:7][H:13])[H:11])([H:9])[H:10])[H:8]>>[O:1]([C:2](/[C:3](=[C:4](/[C:5][H:12])[H:11])[C:6]#[C:7][H:13])([H:9])[H:10])[H:8]"
O        2.13754341      -1.02186669      -0.04087514
C        1.42767902       0.13398141       0.30295104
C       -0.00001077       0.15851120      -0.21886376
C       -0.69714850      -1.03770392      -0.43654377
C       -1.86175600      -1.59593087      -0.42724763
C       -0.73392104       1.34063306       0.13004618
C       -1.32234493       2.25688188       0.63291543
H        1.73921090      -1.77274236       0.40664195
H        1.39613834       0.29691212       1.38749068
H        1.96495283       0.97447409      -0.14189365
H        0.12853581      -0.67596692      -1.44542060
H       -2.35701747      -2.14684165      -1.21862126
H       -1.82186160       3.08965866       1.06942053
13
Frame=13 idx=008022 GeodesicLength=0.7476744950418299 rxn_smarts="[O:1]([C:2]([C:3]([C:4]#[C:5][H:12])([C:6]#[C:7][H:13])[H:11])([H:9])[H:10])[H:8]>>[O:1]([C:2](/[C:3](=[C:4](/[C:5][H:12])[H:11])[C:6]#[C:7][H:13])([H:9])[H:10])[H:8]"
O        2.14606388      -1.01915626      -0.03121839
C        1.42687507       0.13387125       0.30294770
C        0.00629788       0.15520888      -0.24014292
C       -0.69212236      -1.04356081      -0.44585741
C       -1.86867529      -1.57823246      -0.41979826
C       -0.73341552       1.33378040       0.11700657
C       -1.32319011       2.24281175       0.63090877
H        1.74907893      -1.77022728       0.41696630
H        1.38043898       0.29713301       1.38667519
H        1.96646855       0.97599954      -0.13608196
H        0.14583128      -0.66359321      -1.46220024
H       -2.38145181      -2.13501077      -1.19588594
H       -1.82219948       3.07097596       1.07668060
13
Frame=14 idx=008022 GeodesicLength=0.8037698084705279 rxn_smarts="[O:1]([C:2]([C:3]([C:4]#[C:5][H:12])([C:6]#[C:7][H:13])[H:11])([H:9])[H:10])[H:8]>>[O:1]([C:2](/[C:3](=[C:4](/[C:5][H:12])[H:11])[C:6]#[C:7][H:13])([H:9])[H:10])[H:8]"
O        2.15422049      -1.01647754      -0.02171288
C        1.42581389       0.13356682       0.30303599
C        0.01252091       0.15175230      -0.26092818
C       -0.68725131      -1.04924411      -0.45581797
C       -1.87445475      -1.56139272      -0.41184539
C       -0.73298898       1.32678844       0.10425806
C       -1.32414059       2.22869062       0.62867889
H        1.75856020      -1.76784545       0.42694527
H        1.36462622       0.29679602       1.38580946
H        1.96757916       0.97747288      -0.12998903
H        0.16346208      -0.65009558      -1.47932030
H       -2.40561602      -2.12257543      -1.17236572
H       -1.82233130       3.05256374       1.08325179
13
Frame=15 idx=008022 GeodesicLength=0.8599027002743198 rxn_smarts="[O:1]([C:2]([C:3]([C:4]#[C:5][H:12])([C:6]#[C:7][H:13])[H:11])([H:9])[H:10])[H:8]>>[O:1]([C:2](/[C:3](=[C:4](/[C:5][H:12])[H:11])[C:6]#[C:7][H:13])([H:9])[H:10])[H:8]"
O        2.16203340      -1.01417636      -0.01202577
C        1.42477603       0.13303397       0.30305719
C        0.01900312       0.14828263      -0.28157326
C       -0.68249148      -1.05453842      -0.46634150
C       -1.87922520      -1.54484589      -0.40303657
C       -0.73203712       1.32012097       0.09097701
C       -1.32450251       2.21517875       0.62520511
H        1.76744535      -1.76567685       0.43715896
H        1.34888626       0.29626474       1.38467466
H        1.96883741       0.97856918      -0.12399997
H        0.18168448      -0.63583965      -1.49674717
H       -2.43004896      -2.10844942      -1.14774867
H       -1.82436078       3.03207634       1.09039999
13
Frame=16 idx=008022 GeodesicLength=0.9161456586054343 rxn_smarts="[O:1]([C:2]([C:3]([C:4]#[C:5][H:12])([C:6]#[C:7][H:13])[H:11])([H:9])[H:10])[H:8]>>[O:1]([C:2](/[C:3](=[C:4](/[C:5][H:12])[H:11])[C:6]#[C:7][H:13])([H:9])[H:10])[H:8]"
O        2.16960550      -1.01237306      -0.00197336
C        1.42394621       0.13228078       0.30289374
C        0.02595556       0.14474913      -0.30223969
C       -0.67771709      -1.05950035      -0.47726580
C       -1.88287996      -1.52850898      -0.39295285
C       -0.73028850       1.31385859       0.07675642
C       -1.32407022       2.20235289       0.62005768
H        1.77578364      -1.76368964       0.44798811
H        1.33338096       0.29582966       1.38310871
H        1.97049554       0.97914693      -0.11842841
H        0.20069401      -0.62117634      -1.51439899
H       -2.45541016      -2.09105384      -1.12205793
H       -1.82949548       3.00808425       1.09851236
