12
Frame=0 idx=008196 GeodesicLength=0.0 rxn_smarts="[O:1]([C:2]([C@@:3]([C:4]#[C:5][H:12])([C:6]#[N:7])[H:11])([H:9])[H:10])[H:8]>>[C:4](#[C:5][H:12])[H:8].[O:1]=[C:2]([C:3]([C:6]#[N:7])([H:10])[H:11])[H:9]"
O       -2.17774342      -0.25158301      -0.11970033
C       -1.15918788      -0.78340475       0.44984393
C        0.14770109      -0.58624467      -0.22055410
C       -0.14436873       1.43621241      -0.47519860
C        0.90419735       2.03576199      -0.52751679
C        1.36219063      -0.92168136       0.46356214
N        2.32119962      -1.18782311       1.03609500
H       -1.22617547       1.11386436      -0.45271168
H       -1.07559149      -0.78254259       1.55150639
H       -0.95009665      -1.90090850       0.15595269
H        0.15529336      -0.71360664      -1.29771133
H        1.84258162       2.54195582      -0.56356736
12
Frame=1 idx=008196 GeodesicLength=0.09193350183900202 rxn_smarts="[O:1]([C:2]([C@@:3]([C:4]#[C:5][H:12])([C:6]#[N:7])[H:11])([H:9])[H:10])[H:8]>>[C:4](#[C:5][H:12])[H:8].[O:1]=[C:2]([C:3]([C:6]#[N:7])([H:10])[H:11])[H:9]"
O       -2.17863662      -0.24205264      -0.10904327
C       -1.16050579      -0.77793500       0.45929475
C        0.14401624      -0.59951931      -0.22675402
C       -0.13850986       1.42831385      -0.50810879
C        0.90422232       2.03830382      -0.51708328
C        1.36268717      -0.92497352       0.45651521
N        2.32298513      -1.18659451       1.02866840
H       -1.24363026       1.11527285      -0.46824034
H       -1.06670148      -0.75967396       1.55955646
H       -0.93355927      -1.90240737       0.15276086
H        0.14619557      -0.73653053      -1.30276906
H        1.84143685       2.54779632      -0.52479692
12
Frame=2 idx=008196 GeodesicLength=0.1838868823118245 rxn_smarts="[O:1]([C:2]([C@@:3]([C:4]#[C:5][H:12])([C:6]#[N:7])[H:11])([H:9])[H:10])[H:8]>>[C:4](#[C:5][H:12])[H:8].[O:1]=[C:2]([C:3]([C:6]#[N:7])([H:10])[H:11])[H:9]"
O       -2.17885760      -0.23200553      -0.09882330
C       -1.16136316      -0.77202796       0.46865276
C        0.14054815      -0.61323466      -0.23294370
C       -0.13161814       1.41979625      -0.54096864
C        0.90306848       2.04080818      -0.50697738
C        1.36339976      -0.92923763       0.44907726
N        2.32502333      -1.18640538       1.02071957
H       -1.26059064       1.11670746      -0.48434334
H       -1.05700662      -0.73450983       1.56707913
H       -0.91758899      -1.90399151       0.15046123
H        0.13705696      -0.75997642      -1.30769224
H        1.83792849       2.55407704      -0.48424136
12
Frame=3 idx=008196 GeodesicLength=0.2758634473463612 rxn_smarts="[O:1]([C:2]([C@@:3]([C:4]#[C:5][H:12])([C:6]#[N:7])[H:11])([H:9])[H:10])[H:8]>>[C:4](#[C:5][H:12])[H:8].[O:1]=[C:2]([C:3]([C:6]#[N:7])([H:10])[H:11])[H:9]"
O       -2.17841128      -0.22150696      -0.08917284
C       -1.16184028      -0.76587884       0.47779301
C        0.13733742      -0.62721399      -0.23889066
C       -0.12369831       1.41096476      -0.57262464
C        0.90079085       2.04353473      -0.49692428
C        1.36424612      -0.93454425       0.44161069
N        2.32714435      -1.18734336       1.01275129
H       -1.27711601       1.11827279      -0.50061470
H       -1.04678510      -0.70778683       1.57388755
H       -0.90209174      -1.90576495       0.14844021
H        0.12813147      -0.78334735      -1.31230538
H        1.83229250       2.56061424      -0.44395024
12
Frame=4 idx=008196 GeodesicLength=0.3678818346375474 rxn_smarts="[O:1]([C:2]([C@@:3]([C:4]#[C:5][H:12])([C:6]#[N:7])[H:11])([H:9])[H:10])[H:8]>>[C:4](#[C:5][H:12])[H:8].[O:1]=[C:2]([C:3]([C:6]#[N:7])([H:10])[H:11])[H:9]"
O       -2.17733977      -0.21060861      -0.08004239
C       -1.16196510      -0.75952937       0.48674248
C        0.13435341      -0.64139885      -0.24454216
C       -0.11479095       1.40192578      -0.60282055
C        0.89754426       2.04650189      -0.48738348
C        1.36519327      -0.94088250       0.43418284
N        2.32932504      -1.18933510       1.00484384
H       -1.29332577       1.11997801      -0.51697664
H       -1.03605206      -0.67974336       1.57993880
H       -0.88703311      -1.90777231       0.14656025
H        0.11939886      -0.80651391      -1.31657538
H        1.82469193       2.56737834      -0.40392762
12
Frame=5 idx=008196 GeodesicLength=0.4599597211917154 rxn_smarts="[O:1]([C:2]([C@@:3]([C:4]#[C:5][H:12])([C:6]#[N:7])[H:11])([H:9])[H:10])[H:8]>>[C:4](#[C:5][H:12])[H:8].[O:1]=[C:2]([C:3]([C:6]#[N:7])([H:10])[H:11])[H:9]"
O       -2.17569695      -0.19940182      -0.07143582
C       -1.16178407      -0.75305711       0.49549208
C        0.13157059      -0.65572024      -0.24984751
C       -0.10496551       1.39279352      -0.63134546
C        0.89347037       2.04977306      -0.47834648
C        1.36619846      -0.94819634       0.42690224
N        2.33151955      -1.19227287       0.99713523
H       -1.30936533       1.12186649      -0.53322528
H       -1.02488828      -0.65068221       1.58517350
H       -0.87236329      -1.91007229       0.14463197
H        0.11089377      -0.82931230      -1.32047985
H        1.81541068       2.57428210      -0.36465463
12
Frame=6 idx=008196 GeodesicLength=0.5522310290819806 rxn_smarts="[O:1]([C:2]([C@@:3]([C:4]#[C:5][H:12])([C:6]#[N:7])[H:11])([H:9])[H:10])[H:8]>>[C:4](#[C:5][H:12])[H:8].[O:1]=[C:2]([C:3]([C:6]#[N:7])([H:10])[H:11])[H:9]"
O       -2.17356651      -0.18791302      -0.06331449
C       -1.16133092      -0.74645704       0.50407796
C        0.12896171      -0.67018532      -0.25481533
C       -0.09424752       1.38358628      -0.65830787
C        0.88874894       2.05332662      -0.46994770
C        1.36727969      -0.95646841       0.41979138
N        2.33378209      -1.19611610       0.98964718
H       -1.32536770       1.12398357      -0.54927479
H       -1.01328683      -0.62069252       1.58958916
H       -0.85808610      -1.91270861       0.14261555
H        0.10257424      -0.85179964      -1.32405170
H        1.80453892       2.58144419      -0.32600933
12
Frame=7 idx=008196 GeodesicLength=0.6444952244333011 rxn_smarts="[O:1]([C:2]([C@@:3]([C:4]#[C:5][H:12])([C:6]#[N:7])[H:11])([H:9])[H:10])[H:8]>>[C:4](#[C:5][H:12])[H:8].[O:1]=[C:2]([C:3]([C:6]#[N:7])([H:10])[H:11])[H:9]"
O       -2.17065966      -0.17539354      -0.05470385
C       -1.16010837      -0.73872440       0.51319928
C        0.12624975      -0.68532485      -0.26005807
C       -0.08224198       1.37333688      -0.68662402
C        0.88459301       2.05585859      -0.46754560
C        1.36860535      -0.96598047       0.41138448
N        2.33660940      -1.19988792       0.98076058
H       -1.34096825       1.12602147      -0.56670567
H       -0.99961394      -0.58767917       1.59345405
H       -0.84460948      -1.91526671       0.14238181
H        0.09307849      -0.87576654      -1.32761465
H        1.78906569       2.58880666      -0.27792834
12
Frame=8 idx=008196 GeodesicLength=0.7367145794481031 rxn_smarts="[O:1]([C:2]([C@@:3]([C:4]#[C:5][H:12])([C:6]#[N:7])[H:11])([H:9])[H:10])[H:8]>>[C:4](#[C:5][H:12])[H:8].[O:1]=[C:2]([C:3]([C:6]#[N:7])([H:10])[H:11])[H:9]"
O       -2.16735217      -0.16338758      -0.04746377
C       -1.15900049      -0.73181706       0.52150990
C        0.12390518      -0.69996758      -0.26431750
C       -0.06967120       1.36403285      -0.71062395
C        0.87896974       2.05993130      -0.46010243
C        1.36961096      -0.97603859       0.40463884
N        2.33871242      -1.20525845       0.97368634
H       -1.35691196       1.12865526      -0.58223605
H       -0.98697529      -0.55620560       1.59600211
H       -0.83102532      -1.91853327       0.14014638
H        0.08507372      -0.89740903      -1.33042782
H        1.77466442       2.59599773      -0.24081206
12
Frame=9 idx=008196 GeodesicLength=0.8291436607983393 rxn_smarts="[O:1]([C:2]([C@@:3]([C:4]#[C:5][H:12])([C:6]#[N:7])[H:11])([H:9])[H:10])[H:8]>>[C:4](#[C:5][H:12])[H:8].[O:1]=[C:2]([C:3]([C:6]#[N:7])([H:10])[H:11])[H:9]"
O       -2.16364241      -0.15119775      -0.04060340
C       -1.15762645      -0.72472536       0.52975084
C        0.12165756      -0.71470889      -0.26826715
C       -0.05627153       1.35468529      -0.73337875
C        0.87295320       2.06427532      -0.45332001
C        1.37065705      -0.98689846       0.39807782
N        2.34089619      -1.21129235       0.96680089
H       -1.37309935       1.13155803      -0.59751859
H       -0.97381249      -0.52405143       1.59767630
H       -0.81779285      -1.92215925       0.13782103
H        0.07715845      -0.91875771      -1.33296010
H        1.75892265       2.60327256      -0.20407889
12
Frame=10 idx=008196 GeodesicLength=0.9216861354220002 rxn_smarts="[O:1]([C:2]([C@@:3]([C:4]#[C:5][H:12])([C:6]#[N:7])[H:11])([H:9])[H:10])[H:8]>>[C:4](#[C:5][H:12])[H:8].[O:1]=[C:2]([C:3]([C:6]#[N:7])([H:10])[H:11])[H:9]"
O       -2.15949352      -0.13887560      -0.03412617
C       -1.15596573      -0.71744449       0.53791938
C        0.11948981      -0.72951511      -0.27190233
C       -0.04204571       1.34531535      -0.75492278
C        0.86650476       2.06890637      -0.44695870
C        1.37167936      -0.99848618       0.39171733
N        2.34308014      -1.21785283       0.96009242
H       -1.38957286       1.13474538      -0.61248260
H       -0.96012710      -0.49129562       1.59840340
H       -0.80485242      -1.92614143       0.13538633
H        0.06935114      -0.93975260      -1.33519140
H        1.74195212       2.61039675      -0.16793488
12
Frame=11 idx=008196 GeodesicLength=1.0143593454319617 rxn_smarts="[O:1]([C:2]([C@@:3]([C:4]#[C:5][H:12])([C:6]#[N:7])[H:11])([H:9])[H:10])[H:8]>>[C:4](#[C:5][H:12])[H:8].[O:1]=[C:2]([C:3]([C:6]#[N:7])([H:10])[H:11])[H:9]"
O       -2.15487831      -0.12634872      -0.02797775
C       -1.15398503      -0.70990308       0.54606645
C        0.11739276      -0.74442996      -0.27522244
C       -0.02688416       1.33584483      -0.77547486
C        0.85984517       2.07374702      -0.44138404
C        1.37267622      -1.01086669       0.38556493
N        2.34527271      -1.22517081       0.95350741
H       -1.40631122       1.13829149      -0.62710464
H       -0.94583278      -0.45796931       1.59819777
H       -0.79226093      -1.93047873       0.13290070
H        0.06159496      -0.96051674      -1.33711458
H        1.72337061       2.61780069      -0.13195895
12
Frame=12 idx=008196 GeodesicLength=1.107163427520091 rxn_smarts="[O:1]([C:2]([C@@:3]([C:4]#[C:5][H:12])([C:6]#[N:7])[H:11])([H:9])[H:10])[H:8]>>[C:4](#[C:5][H:12])[H:8].[O:1]=[C:2]([C:3]([C:6]#[N:7])([H:10])[H:11])[H:9]"
O       -2.14982107      -0.11368415      -0.02219308
C       -1.15170328      -0.70213714       0.55416676
C        0.11536651      -0.75941449      -0.27820460
C       -0.01079746       1.32632667      -0.79493153
C        0.85291498       2.07886553      -0.43627874
C        1.37361949      -1.02399228       0.37970147
N        2.34742970      -1.23321522       0.94713819
H       -1.42340987       1.14223983      -0.64126220
H       -0.93100085      -0.42425549       1.59702422
H       -0.77997533      -1.93519667       0.13025207
H        0.05395626      -0.98094433      -1.33872751
H        1.70342092       2.62540774      -0.09668504
12
Frame=13 idx=008196 GeodesicLength=1.2001107913378781 rxn_smarts="[O:1]([C:2]([C@@:3]([C:4]#[C:5][H:12])([C:6]#[N:7])[H:11])([H:9])[H:10])[H:8]>>[C:4](#[C:5][H:12])[H:8].[O:1]=[C:2]([C:3]([C:6]#[N:7])([H:10])[H:11])[H:9]"
O       -2.14430022      -0.10083980      -0.01673689
C       -1.14908493      -0.69407765       0.56225235
C        0.11340472      -0.77449037      -0.28085647
C        0.00629205       1.31670729      -0.81343410
C        0.84581747       2.08421461      -0.43180651
C        1.37450754      -1.03788659       0.37411763
N        2.34956025      -1.24208053       0.94093181
H       -1.44088888       1.14663477      -0.65495980
H       -0.91555689      -0.39014416       1.59487643
H       -0.76801209      -1.94028443       0.12748664
H        0.04640170      -1.00110351      -1.34003348
H        1.68185928       2.63335038      -0.06183762
12
Frame=14 idx=008196 GeodesicLength=1.2932039454708524 rxn_smarts="[O:1]([C:2]([C@@:3]([C:4]#[C:5][H:12])([C:6]#[N:7])[H:11])([H:9])[H:10])[H:8]>>[C:4](#[C:5][H:12])[H:8].[O:1]=[C:2]([C:3]([C:6]#[N:7])([H:10])[H:11])[H:9]"
O       -2.13835291      -0.08791111      -0.01165772
C       -1.14616202      -0.68579244       0.57028504
C        0.11151415      -0.78961104      -0.28314799
C        0.02437294       1.30706222      -0.83080896
C        0.83844127       2.08989298      -0.42761279
C        1.37531052      -1.05249923       0.36892104
N        2.35160470      -1.25178444       0.93502219
H       -1.45886846       1.15152303      -0.66804911
H       -0.89960912      -0.35586766       1.59173768
H       -0.75632462      -1.94578198       0.12445466
H        0.03902668      -1.02085287      -1.34103442
H        1.65904687       2.64162254      -0.02810963
12
Frame=15 idx=008196 GeodesicLength=1.3864665471620854 rxn_smarts="[O:1]([C:2]([C@@:3]([C:4]#[C:5][H:12])([C:6]#[N:7])[H:11])([H:9])[H:10])[H:8]>>[C:4](#[C:5][H:12])[H:8].[O:1]=[C:2]([C:3]([C:6]#[N:7])([H:10])[H:11])[H:9]"
O       -2.13192370      -0.07479947      -0.00689246
C       -1.14286012      -0.67715393       0.57832110
C        0.10969170      -0.80482452      -0.28509755
C        0.04357913       1.29728650      -0.84728371
C        0.83093923       2.09581131      -0.42404348
C        1.37604226      -1.06789531       0.36406015
N        2.35359669      -1.26252337       0.92928390
H       -1.47733787       1.15694225      -0.68061126
H       -0.88299587      -0.32128657       1.58760339
H       -0.74495237      -1.95165654       0.12127527
H        0.03175943      -1.04032794      -1.34173281
H        1.63446149       2.65042760       0.00511747
12
Frame=16 idx=008196 GeodesicLength=1.479918639812009 rxn_smarts="[O:1]([C:2]([C@@:3]([C:4]#[C:5][H:12])([C:6]#[N:7])[H:11])([H:9])[H:10])[H:8]>>[C:4](#[C:5][H:12])[H:8].[O:1]=[C:2]([C:3]([C:6]#[N:7])([H:10])[H:11])[H:9]"
O       -2.12497540      -0.06146815      -0.00242273
C       -1.13913345      -0.66810560       0.58637793
C        0.10794614      -0.82014331      -0.28669717
C        0.06401898       1.28733933      -0.86289672
C        0.82337098       2.10195593      -0.42116377
C        1.37669979      -1.08411825       0.35955402
N        2.35552378      -1.27451251       0.92369951
H       -1.49632703       1.16294059      -0.69263051
H       -0.86564501      -0.28639557       1.58245723
H       -0.73390814      -1.95790044       0.11794945
H        0.02460496      -1.05954348      -1.34212455
H        1.60782439       2.65995146       0.03789732
