11
Frame=0 idx=001470 GeodesicLength=0.0 rxn_smarts="[C:1]([C@@:2]1([H:10])[O:3][C@:4]1([C:5]#[N:6])[H:11])([H:7])([H:8])[H:9]>>[C:1]([C:2]([O+:3]=[C:4]=[C:5]=[N-:6])([H:10])[H:11])([H:7])([H:8])[H:9]"
C       -1.01914413      -0.18893470       0.73658896
C       -0.09234456       0.83938775       0.15798333
O        1.27439986       0.68976238       0.52662783
C        1.42525461       0.42115012      -0.82451899
C        1.28161727      -1.01834367      -1.09379062
N        1.31769808      -2.11375310      -1.44765160
H       -1.05705884      -0.05959431       1.81909910
H       -2.02478760      -0.06363987       0.33389743
H       -0.67711411      -1.20050643       0.52109421
H       -0.37785199       1.88376489       0.28870276
H       -0.05066855       0.81070693      -1.01803239
11
Frame=1 idx=001470 GeodesicLength=0.0670238405268052 rxn_smarts="[C:1]([C@@:2]1([H:10])[O:3][C@:4]1([C:5]#[N:6])[H:11])([H:7])([H:8])[H:9]>>[C:1]([C:2]([O+:3]=[C:4]=[C:5]=[N-:6])([H:10])[H:11])([H:7])([H:8])[H:9]"
C       -1.02598905      -0.18411787       0.74209523
C       -0.09709073       0.83919639       0.15757070
O        1.27069032       0.67894295       0.52111285
C        1.41113726       0.41302176      -0.82852278
C        1.29624080      -1.02647489      -1.10172175
N        1.35545891      -2.12169296      -1.45255201
H       -1.05576485      -0.05830080       1.82528078
H       -2.03398233      -0.05058273       0.34790342
H       -0.69358736      -1.19783940       0.52159502
H       -0.37507152       1.88394139       0.30054873
H       -0.05204144       0.82390615      -1.03331018
11
Frame=2 idx=001470 GeodesicLength=0.13401371736702472 rxn_smarts="[C:1]([C@@:2]1([H:10])[O:3][C@:4]1([C:5]#[N:6])[H:11])([H:7])([H:8])[H:9]>>[C:1]([C:2]([O+:3]=[C:4]=[C:5]=[N-:6])([H:10])[H:11])([H:7])([H:8])[H:9]"
C       -1.03302402      -0.17920576       0.74779703
C       -0.10199174       0.83891887       0.15720078
O        1.26677948       0.66782731       0.51533055
C        1.39645903       0.40421322      -0.83269745
C        1.31120454      -1.03480158      -1.10968519
N        1.39417706      -2.12920823      -1.45772862
H       -1.05454237      -0.05692678       1.83158819
H       -2.04324083      -0.03726909       0.36221302
H       -0.71051620      -1.19505483       0.52235703
H       -0.37209190       1.88394150       0.31235013
H       -0.05321306       0.83756535      -1.04872547
11
Frame=3 idx=001470 GeodesicLength=0.20097296592408057 rxn_smarts="[C:1]([C@@:2]1([H:10])[O:3][C@:4]1([C:5]#[N:6])[H:11])([H:7])([H:8])[H:9]>>[C:1]([C:2]([O+:3]=[C:4]=[C:5]=[N-:6])([H:10])[H:11])([H:7])([H:8])[H:9]"
C       -1.04026228      -0.17419133       0.75370700
C       -0.10705774       0.83854663       0.15687193
O        1.26265350       0.65639559       0.50926342
C        1.38117044       0.39466734      -0.83705174
C        1.32653060      -1.04333229      -1.11768013
N        1.43391199      -2.13625677      -1.46320660
H       -1.05339350      -0.05546274       1.83803148
H       -2.05257262      -0.02367856       0.37684686
H       -0.72793306      -1.19214802       0.52340042
H       -0.36890439       1.88375941       0.32409509
H       -0.05414293       0.85170075      -1.06427773
11
Frame=4 idx=001470 GeodesicLength=0.267898373112774 rxn_smarts="[C:1]([C@@:2]1([H:10])[O:3][C@:4]1([C:5]#[N:6])[H:11])([H:7])([H:8])[H:9]>>[C:1]([C:2]([O+:3]=[C:4]=[C:5]=[N-:6])([H:10])[H:11])([H:7])([H:8])[H:9]"
C       -1.04771833      -0.16906700       0.75983518
C       -0.11229979       0.83806912       0.15658161
O        1.25829550       0.64461650       0.50288250
C        1.36520635       0.38432257      -0.84160536
C        1.34222456      -1.05206735      -1.12573248
N        1.47475283      -2.14279771      -1.46896535
H       -1.05231175      -0.05391128       1.84461870
H       -2.06198808      -0.00977830       0.39183432
H       -0.74588272      -1.18911160       0.52473083
H       -0.36549220       1.88338507       0.33578338
H       -0.05478638       0.86633999      -1.07996334
11
Frame=5 idx=001470 GeodesicLength=0.33479683140581534 rxn_smarts="[C:1]([C@@:2]1([H:10])[O:3][C@:4]1([C:5]#[N:6])[H:11])([H:7])([H:8])[H:9]>>[C:1]([C:2]([O+:3]=[C:4]=[C:5]=[N-:6])([H:10])[H:11])([H:7])([H:8])[H:9]"
C       -1.05540557      -0.16382425       0.76619855
C       -0.11773061       0.83747582       0.15632670
O        1.25368572       0.63246857       0.49617336
C        1.34850540       0.37310518      -0.84635905
C        1.35831944      -1.06101667      -1.13383317
N        1.51674854      -2.14876819      -1.47505809
H       -1.05130602      -0.05224988       1.85136322
H       -2.07149239       0.00444601       0.40718986
H       -0.76439331      -1.18594005       0.52638817
H       -0.36184870       1.88281101       0.34739309
H       -0.05508249       0.88149246      -1.09578265
11
Frame=6 idx=001470 GeodesicLength=0.4016635831833896 rxn_smarts="[C:1]([C@@:2]1([H:10])[O:3][C@:4]1([C:5]#[N:6])[H:11])([H:7])([H:8])[H:9]>>[C:1]([C:2]([O+:3]=[C:4]=[C:5]=[N-:6])([H:10])[H:11])([H:7])([H:8])[H:9]"
C       -1.06334154      -0.15845196       0.77281565
C       -0.12336473       0.83675166       0.15610230
O        1.24880291       0.61992380       0.48911187
C        1.33099787       0.36092999      -0.85131498
C        1.37484898      -1.07018509      -1.14197650
N        1.55996283      -2.15409101      -1.48153408
H       -1.05038365      -0.05045580       1.85827531
H       -2.08109603       0.01901613       0.42293943
H       -0.78350358      -1.18262204       0.52841107
H       -0.35796452       1.88202194       0.35890007
H       -0.05495854       0.89716237      -1.11173013
11
Frame=7 idx=001470 GeodesicLength=0.4685222612628088 rxn_smarts="[C:1]([C@@:2]1([H:10])[O:3][C@:4]1([C:5]#[N:6])[H:11])([H:7])([H:8])[H:9]>>[C:1]([C:2]([O+:3]=[C:4]=[C:5]=[N-:6])([H:10])[H:11])([H:7])([H:8])[H:9]"
C       -1.07155605      -0.15293910       0.77971366
C       -0.12922012       0.83588794       0.15590527
O        1.24362780       0.60695151       0.48166487
C        1.31261114       0.34770593      -0.85648775
C        1.39185434      -1.07958024      -1.15019137
N        1.60449529      -2.15870842      -1.48843553
H       -1.04956499      -0.04850671       1.86537781
H       -2.09082519       0.03396014       0.43912297
H       -0.80326759      -1.17915618       0.53084183
H       -0.35382945       1.88101906       0.37028983
H       -0.05432519       0.91336608      -1.12780160
11
Frame=8 idx=001470 GeodesicLength=0.5353165927229981 rxn_smarts="[C:1]([C@@:2]1([H:10])[O:3][C@:4]1([C:5]#[N:6])[H:11])([H:7])([H:8])[H:9]>>[C:1]([C:2]([O+:3]=[C:4]=[C:5]=[N-:6])([H:10])[H:11])([H:7])([H:8])[H:9]"
C       -1.08004360      -0.14727763       0.78688260
C       -0.13531160       0.83484662       0.15572144
O        1.23811808       0.59345831       0.47378448
C        1.29318124       0.33331176      -0.86191140
C        1.40924554      -1.08914845      -1.15857557
N        1.65051335      -2.16248729      -1.49554940
H       -1.04876301      -0.04645067       1.87266368
H       -2.10065884       0.04937101       0.45578581
H       -0.82376968      -1.17551573       0.53362148
H       -0.34938651       1.87974840       0.38157037
H       -0.05312498       0.93014366      -1.14399350
11
Frame=9 idx=001470 GeodesicLength=0.6020882617549685 rxn_smarts="[C:1]([C@@:2]1([H:10])[O:3][C@:4]1([C:5]#[N:6])[H:11])([H:7])([H:8])[H:9]>>[C:1]([C:2]([O+:3]=[C:4]=[C:5]=[N-:6])([H:10])[H:11])([H:7])([H:8])[H:9]"
C       -1.08884580      -0.14143908       0.79437766
C       -0.14166391       0.83359973       0.15553709
O        1.23220638       0.57942308       0.46545124
C        1.27264283       0.31762212      -0.86755512
C        1.42716801      -1.09890482      -1.16705914
N        1.69802696      -2.16527137      -1.50313215
H       -1.04805846      -0.04420797       1.88017004
H       -2.11060269       0.06525775       0.47297818
H       -0.84505323      -1.17166468       0.53688416
H       -0.34465093       1.87817303       0.39265481
H       -0.05116916       0.94741223      -1.16030677
11
Frame=10 idx=001470 GeodesicLength=0.6688626081719038 rxn_smarts="[C:1]([C@@:2]1([H:10])[O:3][C@:4]1([C:5]#[N:6])[H:11])([H:7])([H:8])[H:9]>>[C:1]([C:2]([O+:3]=[C:4]=[C:5]=[N-:6])([H:10])[H:11])([H:7])([H:8])[H:9]"
C       -1.09800992      -0.13540616       0.80223016
C       -0.14830935       0.83213975       0.15534767
O        1.22589554       0.56478622       0.45662914
C        1.25086702       0.30048182      -0.87342696
C        1.44564485      -1.10886049      -1.17571411
N        1.74725272      -2.16697177      -1.51121288
H       -1.04743212      -0.04175367       1.88792606
H       -2.12072904       0.08169872       0.49076832
H       -0.86722310      -1.16761938       0.54065676
H       -0.33960044       1.87632436       0.40352462
H       -0.04835616       0.96518060      -1.17672878
11
Frame=11 idx=001470 GeodesicLength=0.735631355729663 rxn_smarts="[C:1]([C@@:2]1([H:10])[O:3][C@:4]1([C:5]#[N:6])[H:11])([H:7])([H:8])[H:9]>>[C:1]([C:2]([O+:3]=[C:4]=[C:5]=[N-:6])([H:10])[H:11])([H:7])([H:8])[H:9]"
C       -1.10756785      -0.12915127       0.81047743
C       -0.15527609       0.83041969       0.15513448
O        1.21911731       0.54945320       0.44727555
C        1.22769408       0.28170398      -0.87951767
C        1.46469811      -1.11897366      -1.18459375
N        1.79832925      -2.16736327      -1.51983092
H       -1.04689345      -0.03904448       1.89595650
H       -2.13103580       0.09876344       0.50921421
H       -0.89037094      -1.16334357       0.54501562
H       -0.33419914       1.87414832       0.41412119
H       -0.04449550       0.98338761      -1.19325264
11
Frame=12 idx=001470 GeodesicLength=0.802397722941223 rxn_smarts="[C:1]([C@@:2]1([H:10])[O:3][C@:4]1([C:5]#[N:6])[H:11])([H:7])([H:8])[H:9]>>[C:1]([C:2]([O+:3]=[C:4]=[C:5]=[N-:6])([H:10])[H:11])([H:7])([H:8])[H:9]"
C       -1.11755986      -0.12264241       0.81917150
C       -0.16259627       0.82839329       0.15488183
O        1.21180834       0.53333872       0.43738308
C        1.20297501       0.26107560      -0.88577439
C        1.48441479      -1.12919792      -1.19371212
N        1.85132629      -2.16619470      -1.52917691
H       -1.04649448      -0.03597114       1.90430182
H       -2.14153192       0.11648723       0.52833196
H       -0.91456150      -1.15881675       0.55011353
H       -0.32843124       1.87161060       0.42435038
H       -0.03934917       1.00191749      -1.20987068
11
Frame=13 idx=001470 GeodesicLength=0.8691607190621755 rxn_smarts="[C:1]([C@@:2]1([H:10])[O:3][C@:4]1([C:5]#[N:6])[H:11])([H:7])([H:8])[H:9]>>[C:1]([C:2]([O+:3]=[C:4]=[C:5]=[N-:6])([H:10])[H:11])([H:7])([H:8])[H:9]"
C       -1.12804333      -0.11583866       0.82836425
C       -0.17030884       0.82599832       0.15456437
O        1.20389180       0.51629139       0.42689034
C        1.17650126       0.23834348      -0.89218290
C        1.50480414      -1.13944692      -1.20322816
N        1.90647612      -2.16315520      -1.53924104
H       -1.04623734      -0.03248373       1.91299761
H       -2.15224525       0.13499429       0.54822319
H       -0.93994951      -1.15399819       0.55603719
H       -0.32223704       1.86865191       0.43414451
H       -0.03265201       1.02064330      -1.22656936
11
Frame=14 idx=001470 GeodesicLength=0.9359254153651552 rxn_smarts="[C:1]([C@@:2]1([H:10])[O:3][C@:4]1([C:5]#[N:6])[H:11])([H:7])([H:8])[H:9]>>[C:1]([C:2]([O+:3]=[C:4]=[C:5]=[N-:6])([H:10])[H:11])([H:7])([H:8])[H:9]"
C       -1.13907623      -0.10868948       0.83813354
C       -0.17845228       0.82316260       0.15416371
O        1.19528152       0.49818899       0.41584648
C        1.14811776       0.21321741      -0.89860562
C        1.52604097      -1.14960307      -1.21313826
N        1.96375646      -2.15786472      -1.55042084
H       -1.04624210      -0.02836342       1.92211021
H       -2.16318922       0.15430383       0.56884994
H       -0.96658635      -1.14886836       0.56306540
H       -0.31561143       1.86522961       0.44333687
H       -0.02403911       1.03928659      -1.24334143
11
Frame=15 idx=001470 GeodesicLength=1.0026819979984065 rxn_smarts="[C:1]([C@@:2]1([H:10])[O:3][C@:4]1([C:5]#[N:6])[H:11])([H:7])([H:8])[H:9]>>[C:1]([C:2]([O+:3]=[C:4]=[C:5]=[N-:6])([H:10])[H:11])([H:7])([H:8])[H:9]"
C       -1.15073352      -0.10112591       0.84856510
C       -0.18706445       0.81978588       0.15365775
O        1.18587579       0.47883504       0.40429188
C        1.11763200       0.18534951      -0.90489115
C        1.54825106      -1.15947869      -1.22354349
N        2.02323372      -2.14983620      -1.56305059
H       -1.04662305      -0.02337788       1.93170825
H       -2.17438983       0.17449036       0.59019730
H       -0.99458135      -1.14338673       0.57148143
H       -0.30851124       1.86127075       0.45175287
H       -0.01308914       1.05747387      -1.26016934
11
Frame=16 idx=001470 GeodesicLength=1.0694221831544868 rxn_smarts="[C:1]([C@@:2]1([H:10])[O:3][C@:4]1([C:5]#[N:6])[H:11])([H:7])([H:8])[H:9]>>[C:1]([C:2]([O+:3]=[C:4]=[C:5]=[N-:6])([H:10])[H:11])([H:7])([H:8])[H:9]"
C       -1.16311329      -0.09306630       0.85974229
C       -0.19618770       0.81573869       0.15300670
O        1.17554433       0.45791855       0.39220915
C        1.08478381       0.15434352      -0.91093145
C        1.57143661      -1.16877980      -1.23480744
N        2.08519014      -2.13846053      -1.57712112
H       -1.04740287      -0.01740801       1.94185183
H       -2.18588838       0.19579347       0.61240081
H       -1.02419974      -1.13747801       0.58145438
H       -0.30081603       1.85666134       0.45923732
H        0.00065311       1.07473709      -1.27704247
