16
Frame=0 idx=001876 GeodesicLength=0.0 rxn_smarts="[C:1]([C@@:2]1([H:10])[C:3]([H:11])([H:12])[C@:4]1([C:5]([O:6][H:16])([H:14])[H:15])[H:13])([H:7])([H:8])[H:9]>>[C:1]([C:2](=[C:3]([H:11])[H:12])[H:10])([H:7])([H:8])[H:9].[C:4](=[C:5]([O:6][H:16])[H:15])([H:13])[H:14]"
C       -1.63303048      -0.24764814       0.90708199
C       -1.22386975       0.61297398      -0.24458520
C       -0.54322011       1.75109185      -0.13261429
C        1.65166249       0.45790580      -0.38707746
C        1.59109255      -0.87825877       0.08942383
O        0.96046967      -1.95659092      -0.53693610
H       -1.25360928      -1.26493105       0.78856808
H       -1.26226796       0.15524237       1.85049371
H       -2.72253976      -0.31526921       0.96811139
H       -1.53052169       0.27783334      -1.23325190
H       -0.30096768       2.35805032      -0.99583413
H       -0.24269617       2.13883215       0.83330762
H        1.46201936       0.44681114      -1.47717168
H        2.72171210      -0.79089355      -0.15184216
H        1.55951557      -1.04246382       1.16559697
H        0.76625115      -1.70268545      -1.44327066
16
Frame=1 idx=001876 GeodesicLength=0.08529866363519992 rxn_smarts="[C:1]([C@@:2]1([H:10])[C:3]([H:11])([H:12])[C@:4]1([C:5]([O:6][H:16])([H:14])[H:15])[H:13])([H:7])([H:8])[H:9]>>[C:1]([C:2](=[C:3]([H:11])[H:12])[H:10])([H:7])([H:8])[H:9].[C:4](=[C:5]([O:6][H:16])[H:15])([H:13])[H:14]"
C       -1.62356263      -0.24721018       0.90662549
C       -1.20453811       0.59794270      -0.25309709
C       -0.53599112       1.74875197      -0.14860683
C        1.62427058       0.44687976      -0.35605747
C        1.59108094      -0.89722731       0.09559638
O        0.97447072      -1.96741365      -0.55500183
H       -1.26604183      -1.27258570       0.78887318
H       -1.23516219       0.15109372       1.84488960
H       -2.71349289      -0.29177135       0.97860000
H       -1.54660373       0.27637848      -1.23450655
H       -0.31482326       2.35881502      -1.01532719
H       -0.25485861       2.15372451       0.81618108
H        1.47446881       0.46481015      -1.45064817
H        2.73021958      -0.75437918      -0.14506122
H        1.56773138      -1.08583364       1.16794027
H        0.73283237      -1.68197531      -1.44039967
16
Frame=2 idx=001876 GeodesicLength=0.16985872093010962 rxn_smarts="[C:1]([C@@:2]1([H:10])[C:3]([H:11])([H:12])[C@:4]1([C:5]([O:6][H:16])([H:14])[H:15])[H:13])([H:7])([H:8])[H:9]>>[C:1]([C:2](=[C:3]([H:11])[H:12])[H:10])([H:7])([H:8])[H:9].[C:4](=[C:5]([O:6][H:16])[H:15])([H:13])[H:14]"
C       -1.61482100      -0.24663770       0.90608697
C       -1.18578751       0.58342488      -0.26109332
C       -0.52772525       1.74571434      -0.16332540
C        1.59733329       0.43518200      -0.32901705
C        1.59112700      -0.91506404       0.10012952
O        0.98870528      -1.97707777      -0.57365759
H       -1.27858624      -1.27939475       0.78954920
H       -1.21019201       0.14679508       1.83950316
H       -2.70464659      -0.26873573       0.98778885
H       -1.56025425       0.27487446      -1.23472356
H       -0.32822191       2.35931894      -1.03280845
H       -0.26445464       2.16576211       0.80011788
H        1.48557875       0.48210567      -1.42568255
H        2.73731081      -0.71620156      -0.13573255
H        1.57440367      -1.12583674       1.16839298
H        0.70023059      -1.66422917      -1.43552810
16
Frame=3 idx=001876 GeodesicLength=0.25417859126617803 rxn_smarts="[C:1]([C@@:2]1([H:10])[C:3]([H:11])([H:12])[C@:4]1([C:5]([O:6][H:16])([H:14])[H:15])[H:13])([H:7])([H:8])[H:9]>>[C:1]([C:2](=[C:3]([H:11])[H:12])[H:10])([H:7])([H:8])[H:9].[C:4](=[C:5]([O:6][H:16])[H:15])([H:13])[H:14]"
C       -1.60622150      -0.24607069       0.90548461
C       -1.16781029       0.56942478      -0.26884324
C       -0.51882794       1.74229948      -0.17739290
C        1.57066820       0.42297507      -0.30498236
C        1.59103194      -0.93204944       0.10337541
O        1.00335027      -1.98570986      -0.59334744
H       -1.29152048      -1.28577563       0.78986016
H       -1.18533118       0.14169606       1.83406668
H       -2.69539418      -0.24564399       0.99697848
H       -1.57241132       0.27334516      -1.23424284
H       -0.34137868       2.35955636      -1.04912568
H       -0.27215418       2.17588099       0.78454248
H        1.49595178       0.49914816      -1.40159093
H        2.74276783      -0.67651142      -0.12307518
H        1.57909722      -1.16349277       1.16736470
H        0.66818252      -1.64907224      -1.42907195
16
Frame=4 idx=001876 GeodesicLength=0.3382045243159295 rxn_smarts="[C:1]([C@@:2]1([H:10])[C:3]([H:11])([H:12])[C@:4]1([C:5]([O:6][H:16])([H:14])[H:15])[H:13])([H:7])([H:8])[H:9]>>[C:1]([C:2](=[C:3]([H:11])[H:12])[H:10])([H:7])([H:8])[H:9].[C:4](=[C:5]([O:6][H:16])[H:15])([H:13])[H:14]"
C       -1.59795237      -0.24541651       0.90490321
C       -1.15048776       0.55584599      -0.27625544
C       -0.50932249       1.73850898      -0.19075241
C        1.54442807       0.41034941      -0.28389845
C        1.59097176      -0.94821992       0.10528776
O        1.01825561      -1.99322228      -0.61401441
H       -1.30462339      -1.29156202       0.79031030
H       -1.16136980       0.13626689       1.82876198
H       -2.68596164      -0.22271763       1.00572938
H       -1.58282918       0.27159688      -1.23319216
H       -0.35438552       2.35955059      -1.06416326
H       -0.27795228       2.18418586       0.76956806
H        1.50565450       0.51598700      -1.37839869
H        2.74658494      -0.63555720      -0.10760125
H        1.58236929      -1.19904656       1.16487271
H        0.63662027      -1.63654948      -1.42115733
16
Frame=5 idx=001876 GeodesicLength=0.42183640619566687 rxn_smarts="[C:1]([C@@:2]1([H:10])[C:3]([H:11])([H:12])[C@:4]1([C:5]([O:6][H:16])([H:14])[H:15])[H:13])([H:7])([H:8])[H:9]>>[C:1]([C:2](=[C:3]([H:11])[H:12])[H:10])([H:7])([H:8])[H:9].[C:4](=[C:5]([O:6][H:16])[H:15])([H:13])[H:14]"
C       -1.59021651      -0.24462567       0.90440795
C       -1.13364218       0.54256598      -0.28322081
C       -0.49915040       1.73431018      -0.20331185
C        1.51884361       0.39738907      -0.26584188
C        1.59109536      -0.96354806       0.10580499
O        1.03312175      -1.99948893      -0.63544856
H       -1.31778708      -1.29662990       0.79127563
H       -1.13900448       0.13086507       1.82375056
H       -2.67663496      -0.20017550       1.01367087
H       -1.59119351       0.26943278      -1.23168816
H       -0.36731111       2.35936927      -1.07773266
H       -0.28174868       2.19069286       0.75535371
H        1.51460772       0.53254101      -1.35624282
H        2.74875061      -0.59357179      -0.08979493
H        1.58459639      -1.23247907       1.16090088
H        0.60567349      -1.62664732      -1.41188292
16
Frame=6 idx=001876 GeodesicLength=0.5051920510219065 rxn_smarts="[C:1]([C@@:2]1([H:10])[C:3]([H:11])([H:12])[C@:4]1([C:5]([O:6][H:16])([H:14])[H:15])[H:13])([H:7])([H:8])[H:9]>>[C:1]([C:2](=[C:3]([H:11])[H:12])[H:10])([H:7])([H:8])[H:9].[C:4](=[C:5]([O:6][H:16])[H:15])([H:13])[H:14]"
C       -1.58285558      -0.24370888       0.90403055
C       -1.11725213       0.52950378      -0.28981440
C       -0.48845252       1.72975944      -0.21530114
C        1.49393049       0.38418180      -0.25041681
C        1.59140870      -0.97814218       0.10502568
O        1.04791110      -2.00448548      -0.65779107
H       -1.33103775      -1.30108125       0.79268107
H       -1.11775353       0.12543353       1.81899464
H       -2.66726843      -0.17785442       1.02109925
H       -1.59791143       0.26684287      -1.22984711
H       -0.38025122       2.35894123      -1.09010893
H       -0.28381761       2.19573059       0.74167903
H        1.52311033       0.54901375      -1.33482494
H        2.74913582      -0.55070020      -0.06952675
H        1.58583176      -1.26424803       1.15554250
H        0.57527200      -1.61918655      -1.40142157
16
Frame=7 idx=001876 GeodesicLength=0.5882827669802465 rxn_smarts="[C:1]([C@@:2]1([H:10])[C:3]([H:11])([H:12])[C@:4]1([C:5]([O:6][H:16])([H:14])[H:15])[H:13])([H:7])([H:8])[H:9]>>[C:1]([C:2](=[C:3]([H:11])[H:12])[H:10])([H:7])([H:8])[H:9].[C:4](=[C:5]([O:6][H:16])[H:15])([H:13])[H:14]"
C       -1.57585450      -0.24266109       0.90380018
C       -1.10124160       0.51658419      -0.29605162
C       -0.47728534       1.72489058      -0.22680242
C        1.46976603       0.37081363      -0.23746545
C        1.59197732      -0.99204808       0.10297978
O        1.06250491      -2.00819347      -0.68103120
H       -1.34434819      -1.30495280       0.79460679
H       -1.09760643       0.12005245       1.81454538
H       -2.65788117      -0.15573556       1.02801706
H       -1.60310631       0.26378337      -1.22777390
H       -0.39326627       2.35827679      -1.10136193
H       -0.28425969       2.19946834       0.72849915
H        1.53129887       0.56549014      -1.31405768
H        2.74763847      -0.50708380      -0.04688597
H        1.58626080      -1.29457083       1.14884355
H        0.54540311      -1.61411386      -1.38986172
16
Frame=8 idx=001876 GeodesicLength=0.6711511081955778 rxn_smarts="[C:1]([C@@:2]1([H:10])[C:3]([H:11])([H:12])[C@:4]1([C:5]([O:6][H:16])([H:14])[H:15])[H:13])([H:7])([H:8])[H:9]>>[C:1]([C:2](=[C:3]([H:11])[H:12])[H:10])([H:7])([H:8])[H:9].[C:4](=[C:5]([O:6][H:16])[H:15])([H:13])[H:14]"
C       -1.56917812      -0.24147559       0.90372383
C       -1.08553902       0.50372686      -0.30194838
C       -0.46569633       1.71969282      -0.23790197
C        1.44641159       0.35735324      -0.22683354
C        1.59284659      -1.00528497       0.09968592
O        1.07678334      -2.01054823      -0.70515948
H       -1.35771321      -1.30825763       0.79708252
H       -1.07848286       0.11476053       1.81039474
H       -2.64846204      -0.13377003       1.03445350
H       -1.60691747       0.26022249      -1.22551596
H       -0.40638824       2.35731757      -1.11155079
H       -0.28317754       2.20201133       0.71573333
H        1.53932340       0.58204837      -1.29380843
H        2.74412373      -0.46283965      -0.02193237
H        1.58602152      -1.32362099       1.14080149
H        0.51604466      -1.61133611      -1.37722440
16
Frame=9 idx=001876 GeodesicLength=0.7537492155745522 rxn_smarts="[C:1]([C@@:2]1([H:10])[C:3]([H:11])([H:12])[C@:4]1([C:5]([O:6][H:16])([H:14])[H:15])[H:13])([H:7])([H:8])[H:9]>>[C:1]([C:2](=[C:3]([H:11])[H:12])[H:10])([H:7])([H:8])[H:9].[C:4](=[C:5]([O:6][H:16])[H:15])([H:13])[H:14]"
C       -1.56290597      -0.24012390       0.90383176
C       -1.07002684       0.49084068      -0.30746429
C       -0.45368326       1.71415194      -0.24859335
C        1.42400486       0.34387065      -0.21847377
C        1.59412301      -1.01786753       0.09511618
O        1.09046292      -2.01153092      -0.73004240
H       -1.37107298      -1.31097124       0.80029456
H       -1.06067542       0.10976191       1.80665004
H       -2.63915527      -0.11202960       1.04020797
H       -1.60926610       0.25605654      -1.22313252
H       -0.41966084       2.35606936      -1.12061430
H       -0.28057912       2.20341430       0.70341872
H        1.54722005       0.59869235      -1.27407976
H        2.73851611      -0.41813738       0.00507685
H        1.58540707      -1.35145302       1.13140100
H        0.48729179      -1.61074415      -1.36359668
16
Frame=10 idx=001876 GeodesicLength=0.8361184657437386 rxn_smarts="[C:1]([C@@:2]1([H:10])[C:3]([H:11])([H:12])[C@:4]1([C:5]([O:6][H:16])([H:14])[H:15])[H:13])([H:7])([H:8])[H:9]>>[C:1]([C:2](=[C:3]([H:11])[H:12])[H:10])([H:7])([H:8])[H:9].[C:4](=[C:5]([O:6][H:16])[H:15])([H:13])[H:14]"
C       -1.55700339      -0.23860160       0.90412524
C       -1.05464195       0.47786246      -0.31261378
C       -0.44129140       1.70827107      -0.25894824
C        1.40259834       0.33043056      -0.21225240
C        1.59585166      -1.02981784       0.08928103
O        1.10338370      -2.01113483      -0.75564161
H       -1.38441722      -1.31311927       0.80425600
H       -1.04410792       0.10509654       1.80331828
H       -2.62995440      -0.09047372       1.04529063
H       -1.61024897       0.25124823      -1.22066646
H       -0.43310518       2.35449184      -1.12860049
H       -0.27655821       2.20377398       0.69149167
H        1.55510628       0.61549113      -1.25475499
H        2.73066569      -0.37309831       0.03407808
H        1.58456783      -1.37819256       1.12064164
H        0.45915512      -1.61222768      -1.34900461
16
Frame=11 idx=001876 GeodesicLength=0.9182767248164249 rxn_smarts="[C:1]([C@@:2]1([H:10])[C:3]([H:11])([H:12])[C@:4]1([C:5]([O:6][H:16])([H:14])[H:15])[H:13])([H:7])([H:8])[H:9]>>[C:1]([C:2](=[C:3]([H:11])[H:12])[H:10])([H:7])([H:8])[H:9].[C:4](=[C:5]([O:6][H:16])[H:15])([H:13])[H:14]"
C       -1.55148945      -0.23689515       0.90460773
C       -1.03929862       0.46473157      -0.31737729
C       -0.42853354       1.70204557      -0.26898046
C        1.38227624       0.31709526      -0.20811448
C        1.59810593      -1.04114322       0.08216019
O        1.11533315      -2.00938585      -0.78185368
H       -1.39770563      -1.31470288       0.80903278
H       -1.02888349       0.10087303       1.80045217
H       -2.62092804      -0.06912489       1.04959266
H       -1.60984965       0.24574113      -1.21815656
H       -0.44674015       2.35257131      -1.13547413
H       -0.27114456       2.20313857       0.67995494
H        1.56302953       0.63244705      -1.23581318
H        2.72044200      -0.32785122       0.06492747
H        1.58370301      -1.40387072       1.10851203
H        0.43168328      -1.61566955      -1.33347018
16
Frame=12 idx=001876 GeodesicLength=1.0002635899665404 rxn_smarts="[C:1]([C@@:2]1([H:10])[C:3]([H:11])([H:12])[C@:4]1([C:5]([O:6][H:16])([H:14])[H:15])[H:13])([H:7])([H:8])[H:9]>>[C:1]([C:2](=[C:3]([H:11])[H:12])[H:10])([H:7])([H:8])[H:9].[C:4](=[C:5]([O:6][H:16])[H:15])([H:13])[H:14]"
C       -1.54637754      -0.23499673       0.90526885
C       -1.02392324       0.45140028      -0.32174040
C       -0.41542926       1.69547944      -0.27870009
C        1.36310578       0.30392438      -0.20599834
C        1.60094762      -1.05184696       0.07374776
O        1.12609712      -2.00633885      -0.80854394
H       -1.41091608      -1.31573283       0.81465084
H       -1.01506719       0.09717053       1.79808524
H       -2.61213505      -0.04799230       1.05302063
H       -1.60805771       0.23949116      -1.21564072
H       -0.46056729       2.35029703      -1.14119831
H       -0.26437477       2.20155205       0.66881444
H        1.57103302       0.64956981      -1.21722310
H        2.70770255      -0.28253075       0.09744279
H        1.58302820      -1.42849686       1.09502205
H        0.40493383      -1.62094939      -1.31700771
16
Frame=13 idx=001876 GeodesicLength=1.0821345696322422 rxn_smarts="[C:1]([C@@:2]1([H:10])[C:3]([H:11])([H:12])[C@:4]1([C:5]([O:6][H:16])([H:14])[H:15])[H:13])([H:7])([H:8])[H:9]>>[C:1]([C:2](=[C:3]([H:11])[H:12])[H:10])([H:7])([H:8])[H:9].[C:4](=[C:5]([O:6][H:16])[H:15])([H:13])[H:14]"
C       -1.54169166      -0.23289490       0.90609780
C       -1.00843468       0.43783001      -0.32567098
C       -0.40198050       1.68857759      -0.28809175
C        1.34515979       0.29097300      -0.20588288
C        1.60444716      -1.06192896       0.06401693
O        1.13547354      -2.00208673      -0.83557253
H       -1.42399861      -1.31621090       0.82114313
H       -1.00278270       0.09410029       1.79626916
H       -2.60365581      -0.02712160       1.05543545
H       -1.60482122       0.23245620      -1.21315039
H       -0.47459043       2.34767304      -1.14569518
H       -0.25625033       2.19904165       0.65810485
H        1.57911891       0.66681808      -1.19902044
H        2.69229868      -0.23725880       0.13145565
H        1.58274441      -1.45203581       1.08017668
H        0.37896345      -1.62793216      -1.29961551
16
Frame=14 idx=001876 GeodesicLength=1.163974091241986 rxn_smarts="[C:1]([C@@:2]1([H:10])[C:3]([H:11])([H:12])[C@:4]1([C:5]([O:6][H:16])([H:14])[H:15])[H:13])([H:7])([H:8])[H:9]>>[C:1]([C:2](=[C:3]([H:11])[H:12])[H:10])([H:7])([H:8])[H:9].[C:4](=[C:5]([O:6][H:16])[H:15])([H:13])[H:14]"
C       -1.53744344      -0.23058351       0.90707315
C       -0.99276802       0.42399408      -0.32914385
C       -0.38819872       1.68135147      -0.29714596
C        1.32848929       0.27829117      -0.20772429
C        1.60865503      -1.07138840       0.05295979
O        1.14327691      -1.99674083      -0.86278352
H       -1.43692447      -1.31614572       0.82850314
H       -0.99209478       0.09173979       1.79502786
H       -2.59554970      -0.00653979       1.05673340
H       -1.60011276       0.22460810      -1.21071097
H       -0.48879787       2.34469573      -1.14890082
H       -0.24678826       2.19563763       0.64785025
H        1.58729574       0.68416334      -1.18121422
H        2.67406587      -0.19216807       0.16676879
H        1.58305619      -1.47445004       1.06400355
H        0.35383901      -1.63646496      -1.28129631
16
Frame=15 idx=001876 GeodesicLength=1.2458757341122328 rxn_smarts="[C:1]([C@@:2]1([H:10])[C:3]([H:11])([H:12])[C@:4]1([C:5]([O:6][H:16])([H:14])[H:15])[H:13])([H:7])([H:8])[H:9]>>[C:1]([C:2](=[C:3]([H:11])[H:12])[H:10])([H:7])([H:8])[H:9].[C:4](=[C:5]([O:6][H:16])[H:15])([H:13])[H:14]"
C       -1.53367393      -0.22805996       0.90818957
C       -0.97687610       0.40989085      -0.33212612
C       -0.37408023       1.67385097      -0.30586232
C        1.31316679       0.26592329      -0.21152257
C        1.61367725      -1.08025128       0.04052905
O        1.14941969      -1.99044032      -0.89010435
H       -1.44965864      -1.31556634       0.83675851
H       -0.98311292       0.09019103       1.79441511
H       -2.58793722       0.01368961       1.05679245
H       -1.59392248       0.21594119      -1.20835136
H       -0.50321729       2.34143939      -1.15075095
H       -0.23595874       2.19139364       0.63807099
H        1.59559308       0.70157578      -1.16388609
H        2.65285570      -0.14735927       0.20329572
H        1.58416901      -1.49576213       1.04650361
H        0.32955604      -1.64645645      -1.26195125
16
Frame=16 idx=001876 GeodesicLength=1.3280259377712516 rxn_smarts="[C:1]([C@@:2]1([H:10])[C:3]([H:11])([H:12])[C@:4]1([C:5]([O:6][H:16])([H:14])[H:15])[H:13])([H:7])([H:8])[H:9]>>[C:1]([C:2](=[C:3]([H:11])[H:12])[H:10])([H:7])([H:8])[H:9].[C:4](=[C:5]([O:6][H:16])[H:15])([H:13])[H:14]"
C       -1.53038123      -0.22527869       0.90936627
C       -0.96063862       0.39548505      -0.33455842
C       -0.35963589       1.66601429      -0.31411020
C        1.29913979       0.25388548      -0.21721011
C        1.61944230      -1.08845612       0.02676974
O        1.15364993      -1.98335636      -0.91718070
H       -1.46214084      -1.31439005       0.84579826
H       -0.97599178       0.08957012       1.79440873
H       -2.58080343       0.03357706       1.05541863
H       -1.58603983       0.20640478      -1.20607910
H       -0.51772703       2.33777014      -1.15102896
H       -0.22380402       2.18623335       0.62891567
H        1.60383674       0.71892741      -1.14703063
H        2.62840275      -0.10301001       0.24043433
H        1.58634972      -1.51571160       1.02777701
H        0.30634144      -1.65766483      -1.24169052
