14
Frame=0 idx=002107 GeodesicLength=0.0 rxn_smarts="[C:1]([O:2][C@@:3]([C:4]([H:11])([H:12])[H:13])([C:5]#[C:6][H:14])[H:10])([H:7])([H:8])[H:9]>>[C:1]([O:2]/[C:3]([C:4]([H:11])([H:12])[H:13])=[C:5](/[C:6][H:14])[H:10])([H:7])([H:8])[H:9]"
C        1.93338708       0.44020290       0.17471174
O        0.99800650      -0.63319458       0.32213507
C       -0.28889832      -0.36650928       0.15254583
C       -1.16609592      -1.50027382       0.57075630
C       -0.76245458       0.81155040      -0.42331706
C       -1.01028301       2.08146782      -0.51622320
H        1.98165133       0.75282127      -0.86957512
H        2.88956401       0.03429332       0.49374214
H        1.64841239       1.28897417       0.79222474
H       -0.82834268      -0.03905808      -1.28865793
H       -2.18736866      -1.34017346       0.23535797
H       -0.78805340      -2.45380870       0.19986490
H       -1.15931041      -1.53928951       1.66319870
H       -1.26021439       2.46299761      -1.50676409
14
Frame=1 idx=002107 GeodesicLength=0.07433363833863675 rxn_smarts="[C:1]([O:2][C@@:3]([C:4]([H:11])([H:12])[H:13])([C:5]#[C:6][H:14])[H:10])([H:7])([H:8])[H:9]>>[C:1]([O:2]/[C:3]([C:4]([H:11])([H:12])[H:13])=[C:5](/[C:6][H:14])[H:10])([H:7])([H:8])[H:9]"
C        1.94897387       0.42596629       0.17153077
O        1.00078734      -0.62797050       0.35940906
C       -0.28135203      -0.36491601       0.14500180
C       -1.17164473      -1.48793293       0.56440155
C       -0.74786891       0.81616859      -0.43164087
C       -1.08252441       2.06688628      -0.48788884
H        2.01051228       0.69411942      -0.88456186
H        2.89884122       0.02395803       0.51388072
H        1.66967606       1.30301714       0.75162183
H       -0.74655505      -0.03598570      -1.31327985
H       -2.18655702      -1.32638253       0.21058925
H       -0.79178286      -2.44708930       0.21018030
H       -1.18226116      -1.51421786       1.65711888
H       -1.33824463       2.47437909      -1.46636274
14
Frame=2 idx=002107 GeodesicLength=0.14649035129152624 rxn_smarts="[C:1]([O:2][C@@:3]([C:4]([H:11])([H:12])[H:13])([C:5]#[C:6][H:14])[H:10])([H:7])([H:8])[H:9]>>[C:1]([O:2]/[C:3]([C:4]([H:11])([H:12])[H:13])=[C:5](/[C:6][H:14])[H:10])([H:7])([H:8])[H:9]"
C        1.96405450       0.41167814       0.16895007
O        1.00247303      -0.62097355       0.39373151
C       -0.27413284      -0.36218695       0.13726798
C       -1.17647120      -1.47516510       0.55760616
C       -0.73450510       0.82340858      -0.43681532
C       -1.15433804       2.04804019      -0.46309624
H        2.03777075       0.63784607      -0.89632532
H        2.90748584       0.01293199       0.53258207
H        1.69186594       1.31405918       0.71311167
H       -0.66849469      -0.02797870      -1.33235099
H       -2.18561390      -1.31201274       0.18810989
H       -0.79567601      -2.43904819       0.21748250
H       -1.20207455      -1.49053448       1.65018015
H       -1.41234374       2.47993556      -1.43043413
14
Frame=3 idx=002107 GeodesicLength=0.21632692903183437 rxn_smarts="[C:1]([O:2][C@@:3]([C:4]([H:11])([H:12])[H:13])([C:5]#[C:6][H:14])[H:10])([H:7])([H:8])[H:9]>>[C:1]([O:2]/[C:3]([C:4]([H:11])([H:12])[H:13])=[C:5](/[C:6][H:14])[H:10])([H:7])([H:8])[H:9]"
C        1.97814633       0.39768253       0.16669679
O        1.00309642      -0.61251642       0.42512696
C       -0.26743740      -0.35876235       0.12927910
C       -1.18061837      -1.46244717       0.55069105
C       -0.72292651       0.83251461      -0.43908108
C       -1.22433799       2.02535696      -0.44190125
H        2.06297126       0.58408402      -0.90556631
H        2.91514495       0.00191285       0.54988913
H        1.71401633       1.32273551       0.67627184
H       -0.59436020      -0.01586781      -1.34662171
H       -2.18466066      -1.29775171       0.16805744
H       -0.79947785      -2.43025703       0.22240746
H       -1.21892787      -1.46841898       1.64285086
H       -1.48062845       2.48173499      -1.39810027
14
Frame=4 idx=002107 GeodesicLength=0.2839924951046516 rxn_smarts="[C:1]([O:2][C@@:3]([C:4]([H:11])([H:12])[H:13])([C:5]#[C:6][H:14])[H:10])([H:7])([H:8])[H:9]>>[C:1]([O:2]/[C:3]([C:4]([H:11])([H:12])[H:13])=[C:5](/[C:6][H:14])[H:10])([H:7])([H:8])[H:9]"
C        1.99103402       0.38414072       0.16469587
O        1.00283058      -0.60311168       0.45347187
C       -0.26128604      -0.35507119       0.12084986
C       -1.18413039      -1.45010389       0.54394064
C       -0.71330826       0.84282867      -0.43892705
C       -1.29130980       1.99960065      -0.42433844
H        2.08603613       0.53308652      -0.91270048
H        2.92168310      -0.00876396       0.56597954
H        1.73543425       1.32935812       0.64114331
H       -0.52412404      -0.00046136      -1.35695792
H       -2.18380949      -1.28395319       0.15057882
H       -0.80317047      -2.42125007       0.22555599
H       -1.23288703      -1.44786439       1.63558148
H       -1.54299256       2.48156506      -1.36887350
14
Frame=5 idx=002107 GeodesicLength=0.3501877893077693 rxn_smarts="[C:1]([O:2][C@@:3]([C:4]([H:11])([H:12])[H:13])([C:5]#[C:6][H:14])[H:10])([H:7])([H:8])[H:9]>>[C:1]([O:2]/[C:3]([C:4]([H:11])([H:12])[H:13])=[C:5](/[C:6][H:14])[H:10])([H:7])([H:8])[H:9]"
C        2.00368962       0.37042508       0.16327644
O        1.00206032      -0.59300053       0.47956519
C       -0.25518770      -0.35082993       0.11172579
C       -1.18726746      -1.43738838       0.53685464
C       -0.70448534       0.85478996      -0.43688664
C       -1.35309771       1.97257095      -0.40967091
H        2.10843354       0.48316587      -0.91779267
H        2.92776898      -0.01993434       0.58211170
H        1.75738442       1.33417053       0.60718913
H       -0.45658393       0.01852496      -1.36416268
H       -2.18312377      -1.26951612       0.13440831
H       -0.80715354      -2.41159840       0.22696448
H       -1.24489210      -1.42781317       1.62790747
H       -1.60754532       2.47643354      -1.34149026
14
Frame=6 idx=002107 GeodesicLength=0.4147372016073606 rxn_smarts="[C:1]([O:2][C@@:3]([C:4]([H:11])([H:12])[H:13])([C:5]#[C:6][H:14])[H:10])([H:7])([H:8])[H:9]>>[C:1]([O:2]/[C:3]([C:4]([H:11])([H:12])[H:13])=[C:5](/[C:6][H:14])[H:10])([H:7])([H:8])[H:9]"
C        2.01517529       0.35724609       0.16208757
O        1.00075735      -0.58271026       0.50247399
C       -0.24952333      -0.34672273       0.10185770
C       -1.18993571      -1.42508075       0.53011844
C       -0.69739996       0.86718265      -0.43320381
C       -1.41081304       1.94395146      -0.39804900
H        2.12902580       0.43625514      -0.92123408
H        2.93281157      -0.03058702       0.59730496
H        1.77807623       1.33723297       0.57519371
H       -0.39245317       0.03974816      -1.36862098
H       -2.18275888      -1.25543572       0.12081402
H       -0.81129239      -2.40203544       0.22718177
H       -1.25426307      -1.40896217       1.62060996
H       -1.66740670       2.46991762      -1.31653426
14
Frame=7 idx=002107 GeodesicLength=0.4779844669706893 rxn_smarts="[C:1]([O:2][C@@:3]([C:4]([H:11])([H:12])[H:13])([C:5]#[C:6][H:14])[H:10])([H:7])([H:8])[H:9]>>[C:1]([O:2]/[C:3]([C:4]([H:11])([H:12])[H:13])=[C:5](/[C:6][H:14])[H:10])([H:7])([H:8])[H:9]"
C        2.02549854       0.34468783       0.16099736
O        0.99894334      -0.57228759       0.52263387
C       -0.24431960      -0.34291132       0.09121291
C       -1.19219736      -1.41332100       0.52376843
C       -0.69203509       0.87960827      -0.42825336
C       -1.46488842       1.91389778      -0.38931900
H        2.14800179       0.39183059      -0.92341574
H        2.93679628      -0.04041207       0.61180693
H        1.79735784       1.33905564       0.54453108
H       -0.33147946       0.06265332      -1.37073770
H       -2.18271574      -1.24205423       0.10946303
H       -0.81544495      -2.39276072       0.22664684
H       -1.26141034      -1.39117603       1.61373380
H       -1.72210683       2.46318952      -1.29306845
14
Frame=8 idx=002107 GeodesicLength=0.5402865395384724 rxn_smarts="[C:1]([O:2][C@@:3]([C:4]([H:11])([H:12])[H:13])([C:5]#[C:6][H:14])[H:10])([H:7])([H:8])[H:9]>>[C:1]([O:2]/[C:3]([C:4]([H:11])([H:12])[H:13])=[C:5](/[C:6][H:14])[H:10])([H:7])([H:8])[H:9]"
C        2.03519041       0.33238044       0.16018716
O        0.99686822      -0.56202855       0.54027177
C       -0.23929329      -0.33919079       0.07974002
C       -1.19418029      -1.40164367       0.51757585
C       -0.68764631       0.89236448      -0.42214343
C       -1.51450953       1.88356316      -0.38274768
H        2.16606558       0.34945017      -0.92433128
H        2.94011695      -0.05006542       0.62595951
H        1.81591877       1.33951623       0.51541450
H       -0.27298172       0.08741854      -1.37080699
H       -2.18301878      -1.22858118       0.09989129
H       -0.81995845      -2.38345760       0.22520294
H       -1.26669132      -1.37399368       1.60708337
H       -1.77588024       2.45426786      -1.27129703
14
Frame=9 idx=002107 GeodesicLength=0.6018440908990748 rxn_smarts="[C:1]([O:2][C@@:3]([C:4]([H:11])([H:12])[H:13])([C:5]#[C:6][H:14])[H:10])([H:7])([H:8])[H:9]>>[C:1]([O:2]/[C:3]([C:4]([H:11])([H:12])[H:13])=[C:5](/[C:6][H:14])[H:10])([H:7])([H:8])[H:9]"
C        2.04419337       0.32042653       0.15954707
O        0.99450913      -0.55190958       0.55566415
C       -0.23450971      -0.33565281       0.06744374
C       -1.19590201      -1.39017976       0.51156886
C       -0.68433086       0.90519040      -0.41508665
C       -1.56021259       1.85305142      -0.37806567
H        2.18317704       0.30883895      -0.92424612
H        2.94273916      -0.05928356       0.63983292
H        1.83362170       1.33896948       0.48746996
H       -0.21689774       0.11360763      -1.36905987
H       -2.18364926      -1.21531327       0.09190887
H       -0.82469064      -2.37427904       0.22311043
H       -1.27032260      -1.35739140       1.60068930
H       -1.82772500       2.44392501      -1.25077698
14
Frame=10 idx=002107 GeodesicLength=0.6627468659207029 rxn_smarts="[C:1]([O:2][C@@:3]([C:4]([H:11])([H:12])[H:13])([C:5]#[C:6][H:14])[H:10])([H:7])([H:8])[H:9]>>[C:1]([O:2]/[C:3]([C:4]([H:11])([H:12])[H:13])=[C:5](/[C:6][H:14])[H:10])([H:7])([H:8])[H:9]"
C        2.05248632       0.30889451       0.15902558
O        0.99192282      -0.54211105       0.56883763
C       -0.22998901      -0.33236747       0.05437948
C       -1.19738694      -1.37898811       0.50583262
C       -0.68203453       0.91784361      -0.40721596
C       -1.60236289       1.82246349      -0.37527911
H        2.19932545       0.27025119      -0.92331793
H        2.94468425      -0.06803690       0.65325899
H        1.85031566       1.33750128       0.46086267
H       -0.16309988       0.14080780      -1.36562545
H       -2.18462217      -1.20231874       0.08557812
H       -0.82966280      -2.36529625       0.22050435
H       -1.27237433      -1.34141227       1.59464314
H       -1.87720194       2.43276891      -1.23148412
14
Frame=11 idx=002107 GeodesicLength=0.7231281194324555 rxn_smarts="[C:1]([O:2][C@@:3]([C:4]([H:11])([H:12])[H:13])([C:5]#[C:6][H:14])[H:10])([H:7])([H:8])[H:9]>>[C:1]([O:2]/[C:3]([C:4]([H:11])([H:12])[H:13])=[C:5](/[C:6][H:14])[H:10])([H:7])([H:8])[H:9]"
C        2.06017971       0.29773186       0.15861669
O        0.98916035      -0.53268452       0.57999636
C       -0.22569704      -0.32926658       0.04061572
C       -1.19866668      -1.36798778       0.50031803
C       -0.68058679       0.93031528      -0.39859164
C       -1.64109356       1.79209280      -0.37410836
H        2.21461174       0.23353871      -0.92167239
H        2.94605316      -0.07644753       0.66625097
H        1.86615204       1.33521305       0.43557130
H       -0.11139849       0.16882876      -1.36059004
H       -2.18591545      -1.18948610       0.08072571
H       -0.83489920      -2.35644318       0.21738991
H       -1.27301900      -1.32598956       1.58889229
H       -1.92488080       2.42058480      -1.21341454
14
Frame=12 idx=002107 GeodesicLength=0.783072317914769 rxn_smarts="[C:1]([O:2][C@@:3]([C:4]([H:11])([H:12])[H:13])([C:5]#[C:6][H:14])[H:10])([H:7])([H:8])[H:9]>>[C:1]([O:2]/[C:3]([C:4]([H:11])([H:12])[H:13])=[C:5](/[C:6][H:14])[H:10])([H:7])([H:8])[H:9]"
C        2.06729321       0.28696202       0.15828647
O        0.98624544      -0.52365981       0.58931301
C       -0.22164624      -0.32633852       0.02623471
C       -1.19975126      -1.35719721       0.49503457
C       -0.67993729       0.94249584      -0.38932317
C       -1.67670251       1.76201955      -0.37448569
H        2.22902798       0.19867774      -0.91945372
H        2.94689013      -0.08451793       0.67875926
H        1.88112888       1.33224585       0.41157271
H       -0.06170591       0.19733770      -1.35404542
H       -2.18749947      -1.17686848       0.07725806
H       -0.84035600      -2.34773998       0.21384969
H       -1.27238427      -1.31112955       1.58344099
H       -1.97060269       2.40771278      -1.19644147
14
Frame=13 idx=002107 GeodesicLength=0.8426533427602528 rxn_smarts="[C:1]([O:2][C@@:3]([C:4]([H:11])([H:12])[H:13])([C:5]#[C:6][H:14])[H:10])([H:7])([H:8])[H:9]>>[C:1]([O:2]/[C:3]([C:4]([H:11])([H:12])[H:13])=[C:5](/[C:6][H:14])[H:10])([H:7])([H:8])[H:9]"
C        2.07389253       0.27656424       0.15802672
O        0.98321992      -0.51507222       0.59695063
C       -0.21782100      -0.32352034       0.01132995
C       -1.20065941      -1.34656659       0.48995867
C       -0.67997147       0.95436347      -0.37947666
C       -1.70933921       1.73242551      -0.37624786
H        2.24260234       0.16564546      -0.91677914
H        2.94727627      -0.09234955       0.69073893
H        1.89533254       1.32868376       0.38891164
H       -0.01391153       0.22607999      -1.34606315
H       -2.18934541      -1.16439180       0.07506519
H       -0.84603595      -2.33913833       0.20988915
H       -1.27059753      -1.29681238       1.57825978
H       -2.01464208       2.39408877      -1.18056387
14
Frame=14 idx=002107 GeodesicLength=0.901924862804601 rxn_smarts="[C:1]([O:2][C@@:3]([C:4]([H:11])([H:12])[H:13])([C:5]#[C:6][H:14])[H:10])([H:7])([H:8])[H:9]>>[C:1]([O:2]/[C:3]([C:4]([H:11])([H:12])[H:13])=[C:5](/[C:6][H:14])[H:10])([H:7])([H:8])[H:9]"
C        2.08000108       0.26655178       0.15781704
O        0.98010306      -0.50690982       0.60309138
C       -0.21422579      -0.32077403      -0.00399623
C       -1.20139594      -1.33610042       0.48508614
C       -0.68063614       0.96585453      -0.36915954
C       -1.73924085       1.70335676      -0.37935261
H        2.25532757       0.13439802      -0.91376160
H        2.94725699      -0.09995845       0.70215867
H        1.90878731       1.32464799       0.36755251
H        0.03204590       0.25472874      -1.33673504
H       -2.19141116      -1.15208376       0.07404559
H       -0.85188815      -2.33063522       0.20555710
H       -1.26778062      -1.28304912       1.57333527
H       -2.05694326       2.37997301      -1.16563865
14
Frame=15 idx=002107 GeodesicLength=0.9609198192521647 rxn_smarts="[C:1]([O:2][C@@:3]([C:4]([H:11])([H:12])[H:13])([C:5]#[C:6][H:14])[H:10])([H:7])([H:8])[H:9]>>[C:1]([O:2]/[C:3]([C:4]([H:11])([H:12])[H:13])=[C:5](/[C:6][H:14])[H:10])([H:7])([H:8])[H:9]"
C        2.08563399       0.25694837       0.15764417
O        0.97691722      -0.49916827       0.60789519
C       -0.21086170      -0.31808034      -0.01964840
C       -1.20196690      -1.32580875       0.48042006
C       -0.68188542       0.97688859      -0.35850617
C       -1.76660765       1.67482926      -0.38379941
H        2.26719621       0.10493760      -0.91050224
H        2.94687555      -0.10734693       0.71298642
H        1.92149206       1.32025305       0.34749152
H        0.07621807       0.28292608      -1.32618163
H       -2.19365811      -1.13997123       0.07411725
H       -0.85787209      -2.32223583       0.20091340
H       -1.26404094      -1.26984500       1.56865927
H       -2.09744029       2.36567339      -1.15148944
14
Frame=16 idx=002107 GeodesicLength=1.0196677118744097 rxn_smarts="[C:1]([O:2][C@@:3]([C:4]([H:11])([H:12])[H:13])([C:5]#[C:6][H:14])[H:10])([H:7])([H:8])[H:9]>>[C:1]([O:2]/[C:3]([C:4]([H:11])([H:12])[H:13])=[C:5](/[C:6][H:14])[H:10])([H:7])([H:8])[H:9]"
C        2.09081696       0.24776552       0.15750528
O        0.97368403      -0.49182680       0.61152630
C       -0.20771828      -0.31541418      -0.03553704
C       -1.20237998      -1.31568691       0.47595088
C       -0.68366012       0.98741205      -0.34766089
C       -1.79159816       1.64686934      -0.38956737
H        2.27822751       0.07722570      -0.90707834
H        2.94617581      -0.11451875       0.72322441
H        1.93346734       1.31560162       0.32869946
H        0.11866616       0.31033579      -1.31454851
H       -2.19604465      -1.12805564       0.07518081
H       -0.86395388      -2.31393286       0.19600528
H       -1.25949041      -1.25718764       1.56421074
H       -2.13619231       2.35141275      -1.13791102
