17
Frame=0 idx=007842 GeodesicLength=0.0 rxn_smarts="[C:1]([C:2]([C@@:3]([O:4][H:14])([C:5]([C:6](=[O:7])[H:17])([H:15])[H:16])[H:13])([H:11])[H:12])([H:8])([H:9])[H:10]>>[C:1]([C:2]([C@@:3]([O:4][H:14])([C:5]([C:6][O:7][H:17])([H:15])[H:16])[H:13])([H:11])[H:12])([H:8])([H:9])[H:10]"
C       -2.33863586      -0.62322089      -0.26330111
C       -1.19987873       0.35933396      -0.49495467
C        0.11379315      -0.09676908       0.11922246
O        0.48288741      -1.31494223      -0.50391542
C        1.20739365       0.95525587      -0.05985486
C        2.50182893       0.66243139       0.61155894
O        2.61800474      -0.47150960       1.24601512
H       -3.26263392      -0.26465897      -0.71975477
H       -2.10052509      -1.59729534      -0.69010404
H       -2.52608147      -0.76139187       0.80462952
H       -1.04221596       0.50408194      -1.56877666
H       -1.45691240       1.33780422      -0.07799796
H       -0.04034232      -0.26588409       1.19439107
H        1.19108886      -1.70640770       0.01296950
H        0.88842221       1.94055421       0.29939838
H        1.43591509       1.09694621      -1.12338767
H        3.52789169       0.24567199       1.21386209
17
Frame=1 idx=007842 GeodesicLength=0.0318342936486186 rxn_smarts="[C:1]([C:2]([C@@:3]([O:4][H:14])([C:5]([C:6](=[O:7])[H:17])([H:15])[H:16])[H:13])([H:11])[H:12])([H:8])([H:9])[H:10]>>[C:1]([C:2]([C@@:3]([O:4][H:14])([C:5]([C:6][O:7][H:17])([H:15])[H:16])[H:13])([H:11])[H:12])([H:8])([H:9])[H:10]"
C       -2.33972155      -0.62364834      -0.26634640
C       -1.20036732       0.35868856      -0.49626813
C        0.11145301      -0.09602707       0.12287737
O        0.48288415      -1.31477468      -0.49774547
C        1.20514856       0.95623260      -0.05357257
C        2.49680944       0.66769100       0.62491664
O        2.61895148      -0.46922562       1.24627901
H       -3.26238111      -0.26612622      -0.72631735
H       -2.10005540      -1.59856549      -0.69044376
H       -2.53056765      -0.75975317       0.80128875
H       -1.03927144       0.50166870      -1.56985014
H       -1.45901321       1.33786769      -0.08184622
H       -0.04634146      -0.26422955       1.19774791
H        1.19289591      -1.70271814       0.01934126
H        0.88402499       1.94195019       0.30287017
H        1.43725694       1.09690652      -1.11654271
H        3.54829465       0.23406302       1.18361164
17
Frame=2 idx=007842 GeodesicLength=0.06398040921046254 rxn_smarts="[C:1]([C:2]([C@@:3]([O:4][H:14])([C:5]([C:6](=[O:7])[H:17])([H:15])[H:16])[H:13])([H:11])[H:12])([H:8])([H:9])[H:10]>>[C:1]([C:2]([C@@:3]([O:4][H:14])([C:5]([C:6][O:7][H:17])([H:15])[H:16])[H:13])([H:11])[H:12])([H:8])([H:9])[H:10]"
C       -2.34072234      -0.62391047      -0.26921312
C       -1.20076046       0.35804332      -0.49749387
C        0.10926673      -0.09544126       0.12635344
O        0.48279988      -1.31466559      -0.49185808
C        1.20308704       0.95688388      -0.04753073
C        2.49202364       0.67239338       0.63782947
O        2.62035270      -0.46738917       1.24577518
H       -3.26209456      -0.26731553      -0.73249478
H       -2.09968613      -1.59958814      -0.69069669
H       -2.53473946      -0.75801997       0.79808391
H       -1.03644672       0.49931745      -1.57078623
H       -1.46083787       1.33785448      -0.08551941
H       -0.05196019      -0.26279920       1.20087503
H        1.19467230      -1.69917691       0.02526973
H        0.87997085       1.94296430       0.30616080
H        1.43859932       1.09658331      -1.10989616
H        3.56647526       0.22426612       1.15514151
17
Frame=3 idx=007842 GeodesicLength=0.09555522901046029 rxn_smarts="[C:1]([C:2]([C@@:3]([O:4][H:14])([C:5]([C:6](=[O:7])[H:17])([H:15])[H:16])[H:13])([H:11])[H:12])([H:8])([H:9])[H:10]>>[C:1]([C:2]([C@@:3]([O:4][H:14])([C:5]([C:6][O:7][H:17])([H:15])[H:16])[H:13])([H:11])[H:12])([H:8])([H:9])[H:10]"
C       -2.34163069      -0.62416580      -0.27207805
C       -1.20100994       0.35741421      -0.49867725
C        0.10714932      -0.09489197       0.12988682
O        0.48275102      -1.31464100      -0.48590092
C        1.20115466       0.95750116      -0.04140057
C        2.48734382       0.67689663       0.65074265
O        2.62181049      -0.46558888       1.24532851
H       -3.26166288      -0.26846253      -0.73868052
H       -2.09925797      -1.60062611      -0.69096356
H       -2.53887841      -0.75629950       0.79487281
H       -1.03341695       0.49699469      -1.57167493
H       -1.46247782       1.33788397      -0.08913733
H       -0.05756184      -0.26140990       1.20405797
H        1.19641126      -1.69574973       0.03129460
H        0.87612077       1.94395440       0.30962247
H        1.44006087       1.09629524      -1.10316279
H        3.58309429       0.21489510       1.12587010
17
Frame=4 idx=007842 GeodesicLength=0.12725970883544177 rxn_smarts="[C:1]([C:2]([C@@:3]([O:4][H:14])([C:5]([C:6](=[O:7])[H:17])([H:15])[H:16])[H:13])([H:11])[H:12])([H:8])([H:9])[H:10]>>[C:1]([C:2]([C@@:3]([O:4][H:14])([C:5]([C:6][O:7][H:17])([H:15])[H:16])[H:13])([H:11])[H:12])([H:8])([H:9])[H:10]"
C       -2.34252545      -0.62431160      -0.27477457
C       -1.20118999       0.35680646      -0.49979188
C        0.10515022      -0.09449102       0.13325139
O        0.48261075      -1.31476430      -0.48024259
C        1.19941543       0.95787709      -0.03552725
C        2.48293234       0.68089679       0.66314141
O        2.62361452      -0.46418387       1.24423291
H       -3.26125929      -0.26937516      -0.74451390
H       -2.09897952      -1.60153864      -0.69118520
H       -2.54284076      -0.75454377       0.79184606
H       -1.03046952       0.49475586      -1.57250605
H       -1.46388656       1.33792644      -0.09256946
H       -0.06288937      -0.26022529       1.20708418
H        1.19808666      -1.69257353       0.03689394
H        0.87262537       1.94470494       0.31295734
H        1.44155658       1.09582901      -1.09671125
H        3.59804859       0.20721060       1.09841495
17
Frame=5 idx=007842 GeodesicLength=0.15899401913790281 rxn_smarts="[C:1]([C:2]([C@@:3]([O:4][H:14])([C:5]([C:6](=[O:7])[H:17])([H:15])[H:16])[H:13])([H:11])[H:12])([H:8])([H:9])[H:10]>>[C:1]([C:2]([C@@:3]([O:4][H:14])([C:5]([C:6][O:7][H:17])([H:15])[H:16])[H:13])([H:11])[H:12])([H:8])([H:9])[H:10]"
C       -2.34340838      -0.62434786      -0.27728892
C       -1.20131146       0.35622222      -0.50083654
C        0.10325618      -0.09424158       0.13641927
O        0.48234533      -1.31503879      -0.47491177
C        1.19785513       0.95800261      -0.02995482
C        2.47875783       0.68438295       0.67496627
O        2.62569335      -0.46317795       1.24245747
H       -3.26089037      -0.27004196      -0.74994277
H       -2.09886840      -1.60231694      -0.69137057
H       -2.54659841      -0.75277962       0.78901226
H       -1.02763203       0.49261277      -1.57327167
H       -1.46506275       1.33797981      -0.09580505
H       -0.06794724      -0.25924932       1.20991936
H        1.19966329      -1.68965506       0.04202338
H        0.86948814       1.94521089       0.31610986
H        1.44306729       1.09516643      -1.09057699
H        3.61159249       0.20127137       1.07305124
17
Frame=6 idx=007842 GeodesicLength=0.19076619521621319 rxn_smarts="[C:1]([C:2]([C@@:3]([O:4][H:14])([C:5]([C:6](=[O:7])[H:17])([H:15])[H:16])[H:13])([H:11])[H:12])([H:8])([H:9])[H:10]>>[C:1]([C:2]([C@@:3]([O:4][H:14])([C:5]([C:6][O:7][H:17])([H:15])[H:16])[H:13])([H:11])[H:12])([H:8])([H:9])[H:10]"
C       -2.34429937      -0.62428959      -0.27966638
C       -1.20138951       0.35565159      -0.50183181
C        0.10143890      -0.09412268       0.13943794
O        0.48197169      -1.31544417      -0.46983631
C        1.19643749       0.95791654      -0.02460264
C        2.47477365       0.68742435       0.68635609
O        2.62801048      -0.46249930       1.24011980
H       -3.26055841      -0.27051039      -0.75508332
H       -2.09890978      -1.60299095      -0.69151358
H       -2.55022725      -0.75097724       0.78632624
H       -1.02487601       0.49053119      -1.57399355
H       -1.46605256       1.33804220      -0.09889979
H       -0.07280497      -0.25844923       1.21261074
H        1.20114950      -1.68695575       0.04678646
H        0.86663776       1.94550609       0.31915440
H        1.44459114       1.09434699      -1.08467888
H        3.62410724       0.19682034       1.04931460
17
Frame=7 idx=007842 GeodesicLength=0.22262154938829487 rxn_smarts="[C:1]([C:2]([C@@:3]([O:4][H:14])([C:5]([C:6](=[O:7])[H:17])([H:15])[H:16])[H:13])([H:11])[H:12])([H:8])([H:9])[H:10]>>[C:1]([C:2]([C@@:3]([O:4][H:14])([C:5]([C:6][O:7][H:17])([H:15])[H:16])[H:13])([H:11])[H:12])([H:8])([H:9])[H:10]"
C       -2.34519074      -0.62416322      -0.28197460
C       -1.20142681       0.35508911      -0.50279931
C        0.09966995      -0.09409521       0.14238765
O        0.48153747      -1.31595309      -0.46488452
C        1.19511294       0.95768522      -0.01934949
C        2.47091062       0.69012794       0.69750940
O        2.63049875      -0.46202520       1.23742964
H       -3.26023361      -0.27083736      -0.76008093
H       -2.09904142      -1.60359889      -0.69163773
H       -2.55379220      -0.74913261       0.78371555
H       -1.02213820       0.48847584      -1.57469348
H       -1.46691503       1.33811946      -0.10192242
H       -0.07755229      -0.25776335       1.21523860
H        1.20257276      -1.68442126       0.05137258
H        0.86397461       1.94565987       0.32219118
H        1.44612356       1.09343433      -1.07889493
H        3.63588964       0.19339842       1.02639280
17
Frame=8 idx=007842 GeodesicLength=0.2542353164014004 rxn_smarts="[C:1]([C:2]([C@@:3]([O:4][H:14])([C:5]([C:6](=[O:7])[H:17])([H:15])[H:16])[H:13])([H:11])[H:12])([H:8])([H:9])[H:10]>>[C:1]([C:2]([C@@:3]([O:4][H:14])([C:5]([C:6][O:7][H:17])([H:15])[H:16])[H:13])([H:11])[H:12])([H:8])([H:9])[H:10]"
C       -2.34609080      -0.62396150      -0.28419287
C       -1.20142412       0.35453041      -0.50372793
C        0.09795202      -0.09417246       0.14523387
O        0.48100195      -1.31657277      -0.46009121
C        1.19389748       0.95727696      -0.01425601
C        2.46719475       0.69245330       0.70828098
O        2.63315315      -0.46177765       1.23433703
H       -3.25993627      -0.27099052      -0.76485351
H       -2.09930719      -1.60411076      -0.69176935
H       -2.55725904      -0.74727842       0.78119416
H       -1.01944738       0.48645417      -1.57535007
H       -1.46762080       1.33819517      -0.10484570
H       -0.08216320      -0.25720347       1.21775954
H        1.20390367      -1.68205326       0.05571443
H        0.86155967       1.94562066       0.32517637
H        1.44764764       1.09240103      -1.07326881
H        3.64693847       0.19118912       1.00465908
17
Frame=9 idx=007842 GeodesicLength=0.2859237585983341 rxn_smarts="[C:1]([C:2]([C@@:3]([O:4][H:14])([C:5]([C:6](=[O:7])[H:17])([H:15])[H:16])[H:13])([H:11])[H:12])([H:8])([H:9])[H:10]>>[C:1]([C:2]([C@@:3]([O:4][H:14])([C:5]([C:6][O:7][H:17])([H:15])[H:16])[H:13])([H:11])[H:12])([H:8])([H:9])[H:10]"
C       -2.34699127      -0.62369453      -0.28632996
C       -1.20138209       0.35397604      -0.50462436
C        0.09626967      -0.09434218       0.14798621
O        0.48036004      -1.31728488      -0.45544325
C        1.19277367       0.95670946      -0.00929151
C        2.46356974       0.69443352       0.71880754
O        2.63590149      -0.46173013       1.23085141
H       -3.25964722      -0.27100194      -0.76942790
H       -2.09968858      -1.60453934      -0.69189326
H       -2.56063180      -0.74540948       0.77874441
H       -1.01678805       0.48446067      -1.57596090
H       -1.46817712       1.33826880      -0.10768581
H       -0.08667494      -0.25675730       1.22017251
H        1.20511198      -1.67984138       0.05984526
H        0.85934947       1.94542808       0.32810006
H        1.44919089       1.09123752      -1.06777175
H        3.65745413       0.19008707       0.98392131
17
Frame=10 idx=007842 GeodesicLength=0.31765787762385944 rxn_smarts="[C:1]([C:2]([C@@:3]([O:4][H:14])([C:5]([C:6](=[O:7])[H:17])([H:15])[H:16])[H:13])([H:11])[H:12])([H:8])([H:9])[H:10]>>[C:1]([C:2]([C@@:3]([O:4][H:14])([C:5]([C:6][O:7][H:17])([H:15])[H:16])[H:13])([H:11])[H:12])([H:8])([H:9])[H:10]"
C       -2.34792157      -0.62335878      -0.28838366
C       -1.20133595       0.35343571      -0.50549695
C        0.09462193      -0.09460395       0.15063504
O        0.47963070      -1.31810733      -0.45096023
C        1.19173514       0.95598612      -0.00448834
C        2.46005514       0.69606809       0.72903580
O        2.63878377      -0.46188785       1.22700403
H       -3.25942158      -0.27085915      -0.77380088
H       -2.10019660      -1.60489063      -0.69202597
H       -2.56392634      -0.74353185       0.77639603
H       -1.01420999       0.48251206      -1.57656192
H       -1.46863704       1.33835848      -0.11043248
H       -0.09107643      -0.25642064       1.22249661
H        1.20624599      -1.67780225       0.06374343
H        0.85732946       1.94508940       0.33094196
H        1.45073164       1.08994551      -1.06245545
H        3.66759173       0.19006706       0.96435299
17
Frame=11 idx=007842 GeodesicLength=0.34943759483655445 rxn_smarts="[C:1]([C:2]([C@@:3]([O:4][H:14])([C:5]([C:6](=[O:7])[H:17])([H:15])[H:16])[H:13])([H:11])[H:12])([H:8])([H:9])[H:10]>>[C:1]([C:2]([C@@:3]([O:4][H:14])([C:5]([C:6][O:7][H:17])([H:15])[H:16])[H:13])([H:11])[H:12])([H:8])([H:9])[H:10]"
C       -2.34887417      -0.62296770      -0.29039250
C       -1.20127657       0.35290218      -0.50635492
C        0.09299619      -0.09493954       0.15322987
O        0.47884146      -1.31901869      -0.44656547
C        1.19075939       0.95514148       0.00023321
C        2.45662184       0.69741039       0.73908103
O        2.64177383      -0.46219007       1.22288962
H       -3.25922676      -0.27060362      -0.77807653
H       -2.10079133      -1.60518869      -0.69215244
H       -2.56719705      -0.74161878       0.77410159
H       -1.01166023       0.48058435      -1.57715607
H       -1.46901814       1.33846025      -0.11312743
H       -0.09541754      -0.25616884       1.22477435
H        1.20731524      -1.67590196       0.06751898
H        0.85544823       1.94463249       0.33377985
H        1.45227176       1.08857108      -1.05723684
H        3.67743386       0.19089567       0.94545373
17
Frame=12 idx=007842 GeodesicLength=0.3810899010814672 rxn_smarts="[C:1]([C:2]([C@@:3]([O:4][H:14])([C:5]([C:6](=[O:7])[H:17])([H:15])[H:16])[H:13])([H:11])[H:12])([H:8])([H:9])[H:10]>>[C:1]([C:2]([C@@:3]([O:4][H:14])([C:5]([C:6][O:7][H:17])([H:15])[H:16])[H:13])([H:11])[H:12])([H:8])([H:9])[H:10]"
C       -2.34982669      -0.62253274      -0.29237190
C       -1.20118646       0.35236973      -0.50719005
C        0.09138856      -0.09533799       0.15578384
O        0.47797906      -1.32000714      -0.44222018
C        1.18984272       0.95418354       0.00488758
C        2.45326199       0.69847770       0.74890668
O        2.64481299      -0.46258835       1.21858153
H       -3.25902684      -0.27024797      -0.78226256
H       -2.10145815      -1.60543131      -0.69229856
H       -2.57042186      -0.73969762       0.77182762
H       -1.00911528       0.47867267      -1.57771593
H       -1.46929596       1.33856049      -0.11576853
H       -0.09971099      -0.25597355       1.22700488
H        1.20829132      -1.67411249       0.07121413
H        0.85372891       1.94405016       0.33663740
H        1.45378758       1.08712956      -1.05207917
H        3.68694909       0.19248532       0.92706321
17
Frame=13 idx=007842 GeodesicLength=0.4127215399949588 rxn_smarts="[C:1]([C:2]([C@@:3]([O:4][H:14])([C:5]([C:6](=[O:7])[H:17])([H:15])[H:16])[H:13])([H:11])[H:12])([H:8])([H:9])[H:10]>>[C:1]([C:2]([C@@:3]([O:4][H:14])([C:5]([C:6][O:7][H:17])([H:15])[H:16])[H:13])([H:11])[H:12])([H:8])([H:9])[H:10]"
C       -2.35079353      -0.62203873      -0.29428564
C       -1.20107817       0.35184219      -0.50799427
C        0.08979856      -0.09581515       0.15825105
O        0.47700476      -1.32108197      -0.43799853
C        1.18899726       0.95308006       0.00941586
C        2.44995068       0.69924190       0.75854396
O        2.64790532      -0.46314010       1.21393165
H       -3.25884868      -0.26976749      -0.78628420
H       -2.10223572      -1.60560435      -0.69244144
H       -2.57357209      -0.73776430       0.76961223
H       -1.00662144       0.47679052      -1.57823369
H       -1.46945720       1.33865778      -0.11831839
H       -0.10392534      -0.25586820       1.22913428
H        1.20915180      -1.67245736       0.07471981
H        0.85218078       1.94333701       0.33940243
H        1.45532480       1.08554068      -1.04704629
H        3.69621821       0.19504750       0.90959116
17
Frame=14 idx=007842 GeodesicLength=0.4443833603989595 rxn_smarts="[C:1]([C:2]([C@@:3]([O:4][H:14])([C:5]([C:6](=[O:7])[H:17])([H:15])[H:16])[H:13])([H:11])[H:12])([H:8])([H:9])[H:10]>>[C:1]([C:2]([C@@:3]([O:4][H:14])([C:5]([C:6][O:7][H:17])([H:15])[H:16])[H:13])([H:11])[H:12])([H:8])([H:9])[H:10]"
C       -2.35179700      -0.62149047      -0.29614186
C       -1.20097691       0.35132598      -0.50878186
C        0.08822602      -0.09636544       0.16064226
O        0.47596020      -1.32224671      -0.43389175
C        1.18821236       0.95185174       0.01382152
C        2.44670717       0.69972165       0.76797613
O        2.65106760      -0.46382218       1.20903421
H       -3.25872787      -0.26917060      -0.79017590
H       -2.10311612      -1.60572141      -0.69257872
H       -2.57669170      -0.73581348       0.76746981
H       -1.00419393       0.47494567      -1.57874694
H       -1.46955648       1.33876660      -0.12079549
H       -0.10807459      -0.25584878       1.23120155
H        1.20996246      -1.67093140       0.07804996
H        0.85077295       1.94251013       0.34209851
H        1.45686518       1.08384239      -1.04215270
H        3.70536066       0.19844632       0.89297128
17
Frame=15 idx=007842 GeodesicLength=0.4760495955795026 rxn_smarts="[C:1]([C:2]([C@@:3]([O:4][H:14])([C:5]([C:6](=[O:7])[H:17])([H:15])[H:16])[H:13])([H:11])[H:12])([H:8])([H:9])[H:10]>>[C:1]([C:2]([C@@:3]([O:4][H:14])([C:5]([C:6][O:7][H:17])([H:15])[H:16])[H:13])([H:11])[H:12])([H:8])([H:9])[H:10]"
C       -2.35282293      -0.62089318      -0.29795660
C       -1.20086704       0.35081311      -0.50955361
C        0.08666417      -0.09698198       0.16297783
O        0.47484202      -1.32349019      -0.42986465
C        1.18747847       0.95050900       0.01814528
C        2.44350877       0.69993747       0.77725271
O        2.65428082      -0.46461017       1.20390520
H       -3.25863071      -0.26847626      -0.79397791
H       -2.10408273      -1.60579086      -0.69270238
H       -2.57979019      -0.73382653       0.76537039
H       -1.00180111       0.47311700      -1.57924394
H       -1.46957802       1.33887990      -0.12321997
H       -0.11217882      -0.25590284       1.23321254
H        1.21070057      -1.66951857       0.08125459
H        0.84949406       1.94157279       0.34476740
H        1.45840627       1.08204900      -1.03734561
H        3.71437643       0.20261232       0.87697872
17
Frame=16 idx=007842 GeodesicLength=0.5077170230447564 rxn_smarts="[C:1]([C:2]([C@@:3]([O:4][H:14])([C:5]([C:6](=[O:7])[H:17])([H:15])[H:16])[H:13])([H:11])[H:12])([H:8])([H:9])[H:10]>>[C:1]([C:2]([C@@:3]([O:4][H:14])([C:5]([C:6][O:7][H:17])([H:15])[H:16])[H:13])([H:11])[H:12])([H:8])([H:9])[H:10]"
C       -2.35386879      -0.62024917      -0.29974297
C       -1.20074300       0.35029840      -0.51031627
C        0.08510941      -0.09766098       0.16527624
O        0.47366116      -1.32480764      -0.42589044
C        1.18678680       0.94906285       0.02241999
C        2.44034823       0.69990467       0.78640981
O        2.65754421      -0.46548582       1.19857086
H       -3.25854569      -0.26769613      -0.79772763
H       -2.10512517      -1.60582191      -0.69280323
H       -2.58288905      -0.73178249       0.76329863
H       -0.99942055       0.47128670      -1.57972986
H       -1.46952431       1.33899699      -0.12561591
H       -0.11625594      -0.25602469       1.23518285
H        1.21137235      -1.66820960       0.08437067
H        0.84832638       1.94053033       0.34745167
H        1.45994411       1.08018157      -1.03258995
H        3.72327986       0.20747692       0.86143555
