11
Frame=0 idx=000894 GeodesicLength=0.0 rxn_smarts="[N:1](=[C:2]1/[C:3]([H:8])=[C:4]([H:9])[C:5]([H:10])([H:11])[O:6]1)\[H:7]>>[N:1]1([H:7])[C-:2]=[O+:6][C:5]([H:10])([H:11])[C:4]([H:9])=[C:3]1[H:8]"
N        1.50328464      -0.01004504       0.56122585
C        1.12017458      -0.72370420      -0.51316336
C        0.48328886       0.80586263      -0.53756241
C       -0.77444667       0.64683214      -0.11751943
C       -1.01892068      -0.76331981       0.35858812
O        0.03647221      -1.54035941      -0.17511284
H        2.32883406       0.52570674       0.29511064
H        0.93118011       1.65382918      -1.02681555
H       -1.56369419       1.37879947      -0.22526796
H       -1.93806748      -1.16740433      -0.07184693
H       -1.10810545      -0.80619741       1.45236391
11
Frame=1 idx=000894 GeodesicLength=0.09644654535639874 rxn_smarts="[N:1](=[C:2]1/[C:3]([H:8])=[C:4]([H:9])[C:5]([H:10])([H:11])[O:6]1)\[H:7]>>[N:1]1([H:7])[C-:2]=[O+:6][C:5]([H:10])([H:11])[C:4]([H:9])=[C:3]1[H:8]"
N        1.53883519       0.02183397       0.54873191
C        1.12122230      -0.73442647      -0.47464583
C        0.47583001       0.80418211      -0.53477419
C       -0.78274901       0.64385726      -0.12101712
C       -1.03270446      -0.76452722       0.35147496
O        0.04019298      -1.54473318      -0.14339323
H        2.38514211       0.50559812       0.25448864
H        0.90850793       1.66703807      -1.01309768
H       -1.56706443       1.38401800      -0.20584515
H       -1.93708606      -1.17518958      -0.10402692
H       -1.15012656      -0.80765108       1.44210462
11
Frame=2 idx=000894 GeodesicLength=0.19256389969523205 rxn_smarts="[N:1](=[C:2]1/[C:3]([H:8])=[C:4]([H:9])[C:5]([H:10])([H:11])[O:6]1)\[H:7]>>[N:1]1([H:7])[C-:2]=[O+:6][C:5]([H:10])([H:11])[C:4]([H:9])=[C:3]1[H:8]"
N        1.57618658       0.05513959       0.53291650
C        1.12230987      -0.74380062      -0.43287114
C        0.46825864       0.80306987      -0.53107378
C       -0.79108939       0.64126643      -0.12339232
C       -1.04668258      -0.76573853       0.34423784
O        0.04384909      -1.54803687      -0.10933116
H        2.44160324       0.48201633       0.21169285
H        0.88504049       1.68058636      -0.99842796
H       -1.57075004       1.38841807      -0.18688328
H       -1.93447339      -1.18328454      -0.13757497
H       -1.19425250      -0.80963609       1.43070741
11
Frame=3 idx=000894 GeodesicLength=0.2881672289519558 rxn_smarts="[N:1](=[C:2]1/[C:3]([H:8])=[C:4]([H:9])[C:5]([H:10])([H:11])[O:6]1)\[H:7]>>[N:1]1([H:7])[C-:2]=[O+:6][C:5]([H:10])([H:11])[C:4]([H:9])=[C:3]1[H:8]"
N        1.61544433       0.08965403       0.51322366
C        1.12346814      -0.75148467      -0.38738509
C        0.46059249       0.80272204      -0.52608731
C       -0.79941906       0.63920323      -0.12419138
C       -1.06075495      -0.76695204       0.33690853
O        0.04736353      -1.55004025      -0.07310752
H        2.49793194       0.45463140       0.16693543
H        0.86073797       1.69433356      -0.98307964
H       -1.57501728       1.39192990      -0.16883471
H       -1.93000442      -1.19153637      -0.17240908
H       -1.24034268      -0.81246083       1.41802710
11
Frame=4 idx=000894 GeodesicLength=0.38302829784413017 rxn_smarts="[N:1](=[C:2]1/[C:3]([H:8])=[C:4]([H:9])[C:5]([H:10])([H:11])[O:6]1)\[H:7]>>[N:1]1([H:7])[C-:2]=[O+:6][C:5]([H:10])([H:11])[C:4]([H:9])=[C:3]1[H:8]"
N        1.65659235       0.12519894       0.48902556
C        1.12478480      -0.75710688      -0.33749322
C        0.45282940       0.80327000      -0.51956376
C       -0.80774117       0.63772775      -0.12320181
C       -1.07482204      -0.76820142       0.32941586
O        0.05074316      -1.55055791      -0.03481193
H        2.55375092       0.42317855       0.12050346
H        0.83555626       1.70802449      -0.96761235
H       -1.57996587       1.39473309      -0.15142415
H       -1.92335802      -1.19989498      -0.20861892
H       -1.28836978      -0.81637163       1.40378125
11
Frame=5 idx=000894 GeodesicLength=0.4769727158531064 rxn_smarts="[N:1](=[C:2]1/[C:3]([H:8])=[C:4]([H:9])[C:5]([H:10])([H:11])[O:6]1)\[H:7]>>[N:1]1([H:7])[C-:2]=[O+:6][C:5]([H:10])([H:11])[C:4]([H:9])=[C:3]1[H:8]"
N        1.69965661       0.16149160       0.45944303
C        1.12627591      -0.76012072      -0.28234797
C        0.44495278       0.80499020      -0.51105628
C       -0.81607200       0.63697038      -0.12003732
C       -1.08873557      -0.76948069       0.32177569
O        0.05400413      -1.54935552       0.00542700
H        2.60878685       0.38694866       0.07245159
H        0.80945036       1.72171633      -0.95211347
H       -1.58598571       1.39674517      -0.13511502
H       -1.91414976      -1.20825271      -0.24617882
H       -1.33818358      -0.82165270       1.38775156
11
Frame=6 idx=000894 GeodesicLength=0.5698898150308478 rxn_smarts="[N:1](=[C:2]1/[C:3]([H:8])=[C:4]([H:9])[C:5]([H:10])([H:11])[O:6]1)\[H:7]>>[N:1]1([H:7])[C-:2]=[O+:6][C:5]([H:10])([H:11])[C:4]([H:9])=[C:3]1[H:8]"
N        1.74479932       0.19805137       0.42317331
C        1.12788453      -0.75972946      -0.22079034
C        0.43695114       0.80837904      -0.49973272
C       -0.82442407       0.63716992      -0.11397443
C       -1.10228500      -0.77073898       0.31411406
O        0.05721865      -1.54613958       0.04744777
H        2.66277728       0.34472265       0.02244978
H        0.78236567       1.73579615      -0.93607623
H       -1.59386273       1.39757453      -0.12140702
H       -1.90189193      -1.21638593      -0.28500216
H       -1.38953286      -0.82869969       1.36979797
11
Frame=7 idx=000894 GeodesicLength=0.661516853362158 rxn_smarts="[N:1](=[C:2]1/[C:3]([H:8])=[C:4]([H:9])[C:5]([H:10])([H:11])[O:6]1)\[H:7]>>[N:1]1([H:7])[C-:2]=[O+:6][C:5]([H:10])([H:11])[C:4]([H:9])=[C:3]1[H:8]"
N        1.79191114       0.23445324       0.37853731
C        1.12970476      -0.75492078      -0.15040193
C        0.42878113       0.81371407      -0.48508336
C       -0.83288173       0.63843431      -0.10470683
C       -1.11526588      -0.77201729       0.30623194
O        0.06062445      -1.54063508       0.09119559
H        2.71497350       0.29556067      -0.02976985
H        0.75418998       1.75017167      -0.91986479
H       -1.60374614       1.39742395      -0.10991298
H       -1.88583397      -1.22419775      -0.32554708
H       -1.44245723      -0.83798702       1.34932197
11
Frame=8 idx=000894 GeodesicLength=0.751476785938856 rxn_smarts="[N:1](=[C:2]1/[C:3]([H:8])=[C:4]([H:9])[C:5]([H:10])([H:11])[O:6]1)\[H:7]>>[N:1]1([H:7])[C-:2]=[O+:6][C:5]([H:10])([H:11])[C:4]([H:9])=[C:3]1[H:8]"
N        1.84086550       0.27006759       0.32296896
C        1.13181511      -0.74381261      -0.06611573
C        0.42039074       0.82130895      -0.46627754
C       -0.84155448       0.64098847      -0.09159948
C       -1.12744537      -0.77343274       0.29755972
O        0.06476868      -1.53233574       0.13697265
H        2.76414036       0.23816000      -0.08547948
H        0.72464826       1.76422900      -0.90477440
H       -1.61546678       1.39684370      -0.09888403
H       -1.86449360      -1.23153684      -0.36933589
H       -1.49766842      -0.85047980       1.32496521
11
Frame=9 idx=000894 GeodesicLength=0.8387223289141411 rxn_smarts="[N:1](=[C:2]1/[C:3]([H:8])=[C:4]([H:9])[C:5]([H:10])([H:11])[O:6]1)\[H:7]>>[N:1]1([H:7])[C-:2]=[O+:6][C:5]([H:10])([H:11])[C:4]([H:9])=[C:3]1[H:8]"
N        1.89097803       0.30323879       0.25175584
C        1.13403238      -0.72198882       0.04281514
C        0.41163769       0.83180618      -0.44225662
C       -0.85090389       0.64492797      -0.07491207
C       -1.13819358      -0.77525035       0.28672745
O        0.07116692      -1.51976982       0.18565406
H        2.80758582       0.16896030      -0.14812319
H        0.69337455       1.77752986      -0.89194856
H       -1.62866363       1.39675002      -0.08452824
H       -1.83470396      -1.23883015      -0.41907486
H       -1.55631032      -0.86737397       1.29389105
11
Frame=10 idx=000894 GeodesicLength=0.9180453220413954 rxn_smarts="[N:1](=[C:2]1/[C:3]([H:8])=[C:4]([H:9])[C:5]([H:10])([H:11])[O:6]1)\[H:7]>>[N:1]1([H:7])[C-:2]=[O+:6][C:5]([H:10])([H:11])[C:4]([H:9])=[C:3]1[H:8]"
N        1.93867133       0.32367301       0.15663064
C        1.13480675      -0.68083507       0.18263576
C        0.40261230       0.85057988      -0.40731779
C       -0.86339088       0.64946585      -0.06197355
C       -1.14457635      -0.77732699       0.27349001
O        0.08456941      -1.49860884       0.24131359
H        2.83808207       0.07642151      -0.22528933
H        0.66280204       1.79921195      -0.86592592
H       -1.64778014       1.39415704      -0.07623923
H       -1.79055261      -1.25118057      -0.47246239
H       -1.61524393      -0.88555776       1.25513820
11
Frame=11 idx=000894 GeodesicLength=0.9842698483752165 rxn_smarts="[N:1](=[C:2]1/[C:3]([H:8])=[C:4]([H:9])[C:5]([H:10])([H:11])[O:6]1)\[H:7]>>[N:1]1([H:7])[C-:2]=[O+:6][C:5]([H:10])([H:11])[C:4]([H:9])=[C:3]1[H:8]"
N        1.96954168       0.31341306       0.03204130
C        1.13519937      -0.61654108       0.33081577
C        0.39258195       0.88463795      -0.35894050
C       -0.88033568       0.65370229      -0.06304364
C       -1.14149296      -0.77884325       0.26058276
O        0.10981577      -1.46409689       0.31004725
H        2.84573746      -0.04617167      -0.30951459
H        0.63879010       1.84387865      -0.80461372
H       -1.67763943       1.38405801      -0.09035292
H       -1.72706141      -1.27463792      -0.52014051
H       -1.66513682      -0.89939915       1.21311881
11
Frame=12 idx=000894 GeodesicLength=1.054089008884208 rxn_smarts="[N:1](=[C:2]1/[C:3]([H:8])=[C:4]([H:9])[C:5]([H:10])([H:11])[O:6]1)\[H:7]>>[N:1]1([H:7])[C-:2]=[O+:6][C:5]([H:10])([H:11])[C:4]([H:9])=[C:3]1[H:8]"
N        1.96563092       0.26599076      -0.11382458
C        1.14092971      -0.54203694       0.45234561
C        0.38112550       0.92854240      -0.30634376
C       -0.89678577       0.65790377      -0.07431874
C       -1.12854135      -0.77867718       0.25118599
O        0.14166063      -1.41919467       0.39249629
H        2.83047043      -0.17336831      -0.37987460
H        0.62606774       1.90584504      -0.71158965
H       -1.71080609       1.36813792      -0.12524277
H       -1.64686345      -1.30400310      -0.55715003
H       -1.70288825      -0.90913969       1.17231625
11
Frame=13 idx=000894 GeodesicLength=1.1359659906650978 rxn_smarts="[N:1](=[C:2]1/[C:3]([H:8])=[C:4]([H:9])[C:5]([H:10])([H:11])[O:6]1)\[H:7]>>[N:1]1([H:7])[C-:2]=[O+:6][C:5]([H:10])([H:11])[C:4]([H:9])=[C:3]1[H:8]"
N        1.92886597       0.19578834      -0.24863399
C        1.15302128      -0.48000377       0.52813004
C        0.37085575       0.96703851      -0.26442142
C       -0.90806816       0.66106348      -0.09048539
C       -1.11294472      -0.77681660       0.24559181
O        0.16718185      -1.37459527       0.47598352
H        2.80675550      -0.26148811      -0.42485839
H        0.62751143       1.96089242      -0.61700214
H       -1.73555806       1.35383353      -0.15825392
H       -1.56679645      -1.33050328      -0.58236255
H       -1.73082438      -0.91520925       1.13631244
11
Frame=14 idx=000894 GeodesicLength=1.226629096999547 rxn_smarts="[N:1](=[C:2]1/[C:3]([H:8])=[C:4]([H:9])[C:5]([H:10])([H:11])[O:6]1)\[H:7]>>[N:1]1([H:7])[C-:2]=[O+:6][C:5]([H:10])([H:11])[C:4]([H:9])=[C:3]1[H:8]"
N        1.87376327       0.11512678      -0.36147596
C        1.16848217      -0.43263585       0.57439301
C        0.36308564       0.99397143      -0.23961260
C       -0.91493311       0.66287068      -0.10927476
C       -1.09898171      -0.77426802       0.24262489
O        0.18438475      -1.33276403       0.55445145
H        2.78184854      -0.30613375      -0.45681803
H        0.64120672       2.00209109      -0.52583642
H       -1.75119190       1.34400620      -0.18496489
H       -1.49360271      -1.35343830      -0.59821715
H       -1.75406166      -0.91882623       1.10473046
11
Frame=15 idx=000894 GeodesicLength=1.3210207114022627 rxn_smarts="[N:1](=[C:2]1/[C:3]([H:8])=[C:4]([H:9])[C:5]([H:10])([H:11])[O:6]1)\[H:7]>>[N:1]1([H:7])[C-:2]=[O+:6][C:5]([H:10])([H:11])[C:4]([H:9])=[C:3]1[H:8]"
N        1.81662996       0.03779187      -0.43924945
C        1.18276072      -0.39046675       0.60959258
C        0.35672690       1.01229434      -0.23307446
C       -0.91950580       0.66392010      -0.12980330
C       -1.08583798      -0.77173395       0.23861566
O        0.19752454      -1.29201778       0.62078215
H        2.75134791      -0.33134159      -0.48661264
H        0.65991402       2.02935918      -0.44922654
H       -1.76138139       1.33880443      -0.19556515
H       -1.42695468      -1.37299513      -0.61017522
H       -1.77122420      -0.92361475       1.07471636
11
Frame=16 idx=000894 GeodesicLength=1.4169473470261889 rxn_smarts="[N:1](=[C:2]1/[C:3]([H:8])=[C:4]([H:9])[C:5]([H:10])([H:11])[O:6]1)\[H:7]>>[N:1]1([H:7])[C-:2]=[O+:6][C:5]([H:10])([H:11])[C:4]([H:9])=[C:3]1[H:8]"
N        1.76126637      -0.03423269      -0.49179954
C        1.19663209      -0.35240203       0.63845181
C        0.35164689       1.02770815      -0.23177623
C       -0.92278735       0.66538819      -0.14810784
C       -1.07330624      -0.76920736       0.23390389
O        0.20825570      -1.25261919       0.67685130
H        2.71737977      -0.34869624      -0.51648549
H        0.67875908       2.04735270      -0.38754330
H       -1.76906508       1.33583673      -0.19893215
H       -1.36497425      -1.38820447      -0.62063535
H       -1.78380698      -0.93092380       1.04607291
