11
Frame=0 idx=009090 GeodesicLength=0.0 rxn_smarts="[O:1]=[C:2]1[C:3]([H:8])([H:9])[C:4]([H:10])=[C:5]([H:11])[C:6]1=[O:7]>>[O:1]=[C:2]1[C:3]([H:8])([H:9])[C@@:4]1([C:5](=[C:6]=[O:7])[H:11])[H:10]"
O       -0.42613899       1.89840551      -1.15996943
C       -0.40566331       0.94781258      -0.44597812
C       -1.33250317      -0.04455387       0.04401984
C       -0.03728289      -0.81865150      -0.33925667
C        1.07935061      -0.71711513       0.53828338
C        1.35750566       0.60967486       0.42793870
O        2.07631973       1.53856229       0.37687885
H       -1.56179334      -0.12974780       1.10196372
H       -2.19888635      -0.18864407      -0.59947975
H       -0.12099926      -1.61569612      -1.07616682
H        1.57009135      -1.48004680       1.13176634
11
Frame=1 idx=009090 GeodesicLength=0.0304009379828152 rxn_smarts="[O:1]=[C:2]1[C:3]([H:8])([H:9])[C:4]([H:10])=[C:5]([H:11])[C:6]1=[O:7]>>[O:1]=[C:2]1[C:3]([H:8])([H:9])[C@@:4]1([C:5](=[C:6]=[O:7])[H:11])[H:10]"
O       -0.43541993       1.90705095      -1.14990404
C       -0.40586553       0.94721519      -0.44833763
C       -1.33394412      -0.04809678       0.04079221
C       -0.03962442      -0.82160597      -0.33882294
C        1.08091475      -0.71460032       0.53137869
C        1.36170354       0.61442318       0.43070959
O        2.09345523       1.53315794       0.37995331
H       -1.56906898      -0.12210188       1.09828594
H       -2.19823544      -0.19767126      -0.60421687
H       -0.12424606      -1.62375730      -1.06970484
H        1.57033094      -1.47401376       1.12986658
11
Frame=2 idx=009090 GeodesicLength=0.0605806708736204 rxn_smarts="[O:1]=[C:2]1[C:3]([H:8])([H:9])[C:4]([H:10])=[C:5]([H:11])[C:6]1=[O:7]>>[O:1]=[C:2]1[C:3]([H:8])([H:9])[C@@:4]1([C:5](=[C:6]=[O:7])[H:11])[H:10]"
O       -0.44474005       1.91550444      -1.13979614
C       -0.40598035       0.94651044      -0.45100446
C       -1.33527912      -0.05157783       0.03759778
C       -0.04198418      -0.82460489      -0.33838788
C        1.08255056      -0.71199945       0.52416423
C        1.36597243       0.61915307       0.43317478
O        2.11032481       1.52772998       0.38375684
H       -1.57622638      -0.11424404       1.09450128
H       -2.19750737      -0.20666840      -0.60875324
H       -0.12763997      -1.63196118      -1.06298112
H        1.57050960      -1.46784214       1.12772794
11
Frame=3 idx=009090 GeodesicLength=0.09096215164215785 rxn_smarts="[O:1]=[C:2]1[C:3]([H:8])([H:9])[C:4]([H:10])=[C:5]([H:11])[C:6]1=[O:7]>>[O:1]=[C:2]1[C:3]([H:8])([H:9])[C@@:4]1([C:5](=[C:6]=[O:7])[H:11])[H:10]"
O       -0.45418632       1.92382444      -1.12975024
C       -0.40608451       0.94579218      -0.45395079
C       -1.33660123      -0.05499796       0.03442732
C       -0.04438171      -0.82770047      -0.33795048
C        1.08433560      -0.70935484       0.51668561
C        1.37036453       0.62392478       0.43547426
O        2.12718703       1.52236211       0.38823926
H       -1.58332701      -0.10619311       1.09060392
H       -2.19687918      -0.21564687      -0.61312670
H       -0.13116836      -1.64035029      -1.05609988
H        1.57074116      -1.46165996       1.12544773
11
Frame=4 idx=009090 GeodesicLength=0.1210126563921175 rxn_smarts="[O:1]=[C:2]1[C:3]([H:8])([H:9])[C:4]([H:10])=[C:5]([H:11])[C:6]1=[O:7]>>[O:1]=[C:2]1[C:3]([H:8])([H:9])[C@@:4]1([C:5](=[C:6]=[O:7])[H:11])[H:10]"
O       -0.46344973       1.93172987      -1.11987273
C       -0.40612190       0.94495133      -0.45723739
C       -1.33783633      -0.05832089       0.03134432
C       -0.04684187      -0.83085701      -0.33744259
C        1.08613292      -0.70664709       0.50894359
C        1.37483591       0.62865993       0.43742258
O        2.14354831       1.51699284       0.39368488
H       -1.59026660      -0.09789635       1.08666641
H       -2.19621788      -0.22454204      -0.61720271
H       -0.13484862      -1.64876570      -1.04902370
H        1.57106578      -1.45530490       1.12271734
11
Frame=5 idx=009090 GeodesicLength=0.15109673097463192 rxn_smarts="[O:1]=[C:2]1[C:3]([H:8])([H:9])[C:4]([H:10])=[C:5]([H:11])[C:6]1=[O:7]>>[O:1]=[C:2]1[C:3]([H:8])([H:9])[C@@:4]1([C:5](=[C:6]=[O:7])[H:11])[H:10]"
O       -0.47276558       1.93933141      -1.11017276
C       -0.40614172       0.94409163      -0.46078990
C       -1.33904777      -0.06156626       0.02832124
C       -0.04935054      -0.83408168      -0.33689407
C        1.08803791      -0.70387344       0.50095103
C        1.37941586       0.63341571       0.43917710
O        2.15979949       1.51169044       0.39990056
H       -1.59713065      -0.08939569       1.08264813
H       -2.19563978      -0.23339523      -0.62105701
H       -0.13863547      -1.65725608      -1.04181901
H        1.57145825      -1.44896081       1.11973470
11
Frame=6 idx=009090 GeodesicLength=0.18115532191483918 rxn_smarts="[O:1]=[C:2]1[C:3]([H:8])([H:9])[C:4]([H:10])=[C:5]([H:11])[C:6]1=[O:7]>>[O:1]=[C:2]1[C:3]([H:8])([H:9])[C@@:4]1([C:5](=[C:6]=[O:7])[H:11])[H:10]"
O       -0.48208051       1.94664479      -1.10066589
C       -0.40613379       0.94318281      -0.46460467
C       -1.34022120      -0.06474032       0.02536824
C       -0.05190316      -0.83736656      -0.33629602
C        1.09002265      -0.70103992       0.49270496
C        1.38406897       0.63818950       0.44072646
O        2.17588124       1.50639089       0.40691449
H       -1.60390724      -0.08069554       1.07855582
H       -2.19510724      -0.24221471      -0.62467396
H       -0.14253452      -1.66580837      -1.03444872
H        1.57191480      -1.44254256       1.11641930
11
Frame=7 idx=009090 GeodesicLength=0.21125011581787037 rxn_smarts="[O:1]=[C:2]1[C:3]([H:8])([H:9])[C:4]([H:10])=[C:5]([H:11])[C:6]1=[O:7]>>[O:1]=[C:2]1[C:3]([H:8])([H:9])[C@@:4]1([C:5](=[C:6]=[O:7])[H:11])[H:10]"
O       -0.49137798       1.95369621      -1.09128012
C       -0.40614002       0.94224312      -0.46869353
C       -1.34137783      -0.06784770       0.02246603
C       -0.05451125      -0.84070733      -0.33565994
C        1.09206751      -0.69813760       0.48417983
C        1.38881872       0.64299971       0.44206074
O        2.19184640       1.50108891       0.41469990
H       -1.61060836      -0.07181584       1.07435996
H       -2.19464094      -0.25101650      -0.62807544
H       -0.14656132      -1.67444888      -1.02688822
H        1.57248507      -1.43605410       1.11283079
11
Frame=8 idx=009090 GeodesicLength=0.24121038618172363 rxn_smarts="[O:1]=[C:2]1[C:3]([H:8])([H:9])[C:4]([H:10])=[C:5]([H:11])[C:6]1=[O:7]>>[O:1]=[C:2]1[C:3]([H:8])([H:9])[C@@:4]1([C:5](=[C:6]=[O:7])[H:11])[H:10]"
O       -0.50075418       1.96045592      -1.08212055
C       -0.40607727       0.94126012      -0.47302291
C       -1.34247384      -0.07086636       0.01964157
C       -0.05713065      -0.84408219      -0.33496991
C        1.09422843      -0.69513317       0.47536838
C        1.39364078       0.64780975       0.44314691
O        2.20759389       1.49575556       0.42334418
H       -1.61723523      -0.06270019       1.07009033
H       -2.19418857      -0.25978329      -0.63123199
H       -0.15067873      -1.68317263      -1.01909785
H        1.57307537      -1.42954352       1.10885185
11
Frame=9 idx=009090 GeodesicLength=0.27107161799676316 rxn_smarts="[O:1]=[C:2]1[C:3]([H:8])([H:9])[C:4]([H:10])=[C:5]([H:11])[C:6]1=[O:7]>>[O:1]=[C:2]1[C:3]([H:8])([H:9])[C@@:4]1([C:5](=[C:6]=[O:7])[H:11])[H:10]"
O       -0.50995975       1.96679992      -1.07318047
C       -0.40605662       0.94024474      -0.47758838
C       -1.34355511      -0.07381927       0.01690278
C       -0.05983427      -0.84747282      -0.33418066
C        1.09634456      -0.69204271       0.46635839
C        1.39852718       0.65265247       0.44400924
O        2.22313363       1.49036465       0.43276364
H       -1.62378123      -0.05345747       1.06573961
H       -2.19376858      -0.26852281      -0.63414121
H       -0.15489733      -1.69182224      -1.01115074
H        1.57384752      -1.42292446       1.10446782
11
Frame=10 idx=009090 GeodesicLength=0.3011020128246299 rxn_smarts="[O:1]=[C:2]1[C:3]([H:8])([H:9])[C:4]([H:10])=[C:5]([H:11])[C:6]1=[O:7]>>[O:1]=[C:2]1[C:3]([H:8])([H:9])[C@@:4]1([C:5](=[C:6]=[O:7])[H:11])[H:10]"
O       -0.51914645       1.97283862      -1.06455477
C       -0.40607265       0.93922952      -0.48235057
C       -1.34467163      -0.07669812       0.01424510
C       -0.06259636      -0.85092101      -0.33330444
C        1.09852629      -0.68888759       0.45713565
C        1.40353747       0.65755665       0.44468988
O        2.23861734       1.48496913       0.44303405
H       -1.63033415      -0.04402163       1.06130610
H       -2.19348232      -0.27724852      -0.63682485
H       -0.15920613      -1.70052894      -1.00303608
H        1.57482860      -1.41628811       1.09965993
11
Frame=11 idx=009090 GeodesicLength=0.33087000860086463 rxn_smarts="[O:1]=[C:2]1[C:3]([H:8])([H:9])[C:4]([H:10])=[C:5]([H:11])[C:6]1=[O:7]>>[O:1]=[C:2]1[C:3]([H:8])([H:9])[C@@:4]1([C:5](=[C:6]=[O:7])[H:11])[H:10]"
O       -0.52841176       1.97850717      -1.05625853
C       -0.40604229       0.93820178      -0.48729367
C       -1.34571917      -0.07948205       0.01169424
C       -0.06535990      -0.85435836      -0.33234958
C        1.10079299      -0.68557797       0.44763253
C        1.40859072       0.66245508       0.44512829
O        2.25385871       1.47946178       0.45414464
H       -1.63681057      -0.03438375       1.05681949
H       -2.19318824      -0.28592985      -0.63924163
H       -0.16355137      -1.70921437      -0.99472272
H        1.57584088      -1.40967944       1.09444694
11
Frame=12 idx=009090 GeodesicLength=0.3605612625168939 rxn_smarts="[O:1]=[C:2]1[C:3]([H:8])([H:9])[C:4]([H:10])=[C:5]([H:11])[C:6]1=[O:7]>>[O:1]=[C:2]1[C:3]([H:8])([H:9])[C@@:4]1([C:5](=[C:6]=[O:7])[H:11])[H:10]"
O       -0.53743945       1.98371799      -1.04832606
C       -0.40607789       0.93714804      -0.49241575
C       -1.34677158      -0.08220375       0.00926384
C       -0.06822491      -0.85778976      -0.33124918
C        1.10296701      -0.68218967       0.43798151
C        1.41375296       0.66738537       0.44527267
O        2.26882172       1.47385059       0.46612478
H       -1.64322104      -0.02463935       1.05227130
H       -2.19292978      -0.29458910      -0.64137378
H       -0.16797658      -1.71774571      -0.98627922
H        1.57709953      -1.40294465       1.08872989
11
Frame=13 idx=009090 GeodesicLength=0.3902775621417205 rxn_smarts="[O:1]=[C:2]1[C:3]([H:8])([H:9])[C:4]([H:10])=[C:5]([H:11])[C:6]1=[O:7]>>[O:1]=[C:2]1[C:3]([H:8])([H:9])[C@@:4]1([C:5](=[C:6]=[O:7])[H:11])[H:10]"
O       -0.54646720       1.98858544      -1.04080083
C       -0.40615497       0.93610991      -0.49764581
C       -1.34784432      -0.08485357       0.00695413
C       -0.07112489      -0.86124010      -0.33003292
C        1.10518523      -0.67869425       0.42814406
C        1.41904704       0.67236133       0.44519128
O        2.28366992       1.46812718       0.47890261
H       -1.64964709      -0.01473455       1.04766710
H       -2.19277064      -0.30323626      -0.64325013
H       -0.17240172      -1.72620921      -0.97774558
H        1.57850863      -1.39621591       1.08261608
11
Frame=14 idx=009090 GeodesicLength=0.41994111623325675 rxn_smarts="[O:1]=[C:2]1[C:3]([H:8])([H:9])[C:4]([H:10])=[C:5]([H:11])[C:6]1=[O:7]>>[O:1]=[C:2]1[C:3]([H:8])([H:9])[C@@:4]1([C:5](=[C:6]=[O:7])[H:11])[H:10]"
O       -0.55543807       1.99309003      -1.03367664
C       -0.40627065       0.93507253      -0.50302827
C       -1.34891693      -0.08742769       0.00476367
C       -0.07407269      -0.86468551      -0.32869745
C        1.10741385      -0.67508055       0.41807997
C        1.42445755       0.67737235       0.44483269
O        2.29831040       1.46228670       0.49257351
H       -1.65604448      -0.00467183       1.04300348
H       -2.19267263      -0.31186817      -0.64485255
H       -0.17687632      -1.73461048      -0.96904593
H        1.58010997      -1.38947738       1.07604751
11
Frame=15 idx=009090 GeodesicLength=0.4495730773749845 rxn_smarts="[O:1]=[C:2]1[C:3]([H:8])([H:9])[C:4]([H:10])=[C:5]([H:11])[C:6]1=[O:7]>>[O:1]=[C:2]1[C:3]([H:8])([H:9])[C@@:4]1([C:5](=[C:6]=[O:7])[H:11])[H:10]"
O       -0.56434008       1.99723839      -1.02700058
C       -0.40642151       0.93402649      -0.50859480
C       -1.34998572      -0.08991568       0.00269840
C       -0.07707212      -0.86813149      -0.32723693
C        1.10966302      -0.67135471       0.40775562
C        1.42999840       0.68242232       0.44414734
O        2.31267538       1.45633151       0.50728638
H       -1.66239799       0.00558705       1.03828454
H       -2.19264238      -0.32048225      -0.64615810
H       -0.18143700      -1.74298999      -0.96012120
H        1.58196000      -1.38273163       1.06893933
11
Frame=16 idx=009090 GeodesicLength=0.47917948969479507 rxn_smarts="[O:1]=[C:2]1[C:3]([H:8])([H:9])[C:4]([H:10])=[C:5]([H:11])[C:6]1=[O:7]>>[O:1]=[C:2]1[C:3]([H:8])([H:9])[C@@:4]1([C:5](=[C:6]=[O:7])[H:11])[H:10]"
O       -0.57317344       2.00103502      -1.02079638
C       -0.40661222       0.93296576      -0.51434638
C       -1.35104806      -0.09231402       0.00076061
C       -0.08012270      -0.87157041      -0.32564630
C        1.11193243      -0.66751404       0.39715379
C        1.43568852       0.68751374       0.44309601
O        2.32672556       1.45023709       0.52311430
H       -1.66869792       0.01605375       1.03350295
H       -2.19267910      -0.32908222      -0.64715558
H       -0.18609690      -1.75135243      -0.95093297
H        1.58408384      -1.37597224       1.06124995
