12
Frame=0 idx=006758 GeodesicLength=0.0 rxn_smarts="[O:1]=[C:2]([C:3](=[O:4])[N:5]1[C:6]([H:9])([H:10])[C:7]1([H:11])[H:12])[H:8]>>[O:1]([C@@:2]1([H:8])[C@@:3]2([O:4]1)[N:5]1[C@@:6]2([H:9])[C:7]1([H:11])[H:12])[H:10]"
O        1.19655438       0.43157813      -1.52248458
C        1.50829735       0.15661232      -0.33455142
C        0.54743581      -0.69756347       0.39735924
O        1.27819725      -1.71951751       0.31674925
N       -0.55405909      -0.46586653       1.19607783
C       -0.96318745      -0.36234988      -0.33566595
C       -1.17520365       0.72224921       0.64133746
H        2.49798139       0.38396024       0.04167748
H       -1.73023283      -1.08870122      -0.56972691
H        0.13863363       0.12851202      -1.42501948
H       -0.57743931       1.62854685       0.54962432
H       -2.16697745       0.88253982       1.04462278
12
Frame=1 idx=006758 GeodesicLength=0.0988599143241494 rxn_smarts="[O:1]=[C:2]([C:3](=[O:4])[N:5]1[C:6]([H:9])([H:10])[C:7]1([H:11])[H:12])[H:8]>>[O:1]([C@@:2]1([H:8])[C@@:3]2([O:4]1)[N:5]1[C@@:6]2([H:9])[C:7]1([H:11])[H:12])[H:10]"
O        1.20914101       0.43871393      -1.51907616
C        1.52325391       0.14851058      -0.33379058
C        0.55305393      -0.69299311       0.40094302
O        1.28335045      -1.71578771       0.30930816
N       -0.55414131      -0.46361083       1.19149301
C       -0.97021466      -0.36501046      -0.33143621
C       -1.18175132       0.72329437       0.64263605
H        2.51266406       0.37248096       0.04648516
H       -1.73797697      -1.09075879      -0.56516158
H        0.12541880       0.13106484      -1.43137894
H       -0.59120806       1.63253344       0.53838351
H       -2.17158985       0.88156276       1.05159458
12
Frame=2 idx=006758 GeodesicLength=0.19761956222928878 rxn_smarts="[O:1]=[C:2]([C:3](=[O:4])[N:5]1[C:6]([H:9])([H:10])[C:7]1([H:11])[H:12])[H:8]>>[O:1]([C@@:2]1([H:8])[C@@:3]2([O:4]1)[N:5]1[C@@:6]2([H:9])[C:7]1([H:11])[H:12])[H:10]"
O        1.22213062       0.44637864      -1.51531895
C        1.53842361       0.14040545      -0.33296021
C        0.55878212      -0.68827020       0.40438009
O        1.28824052      -1.71209044       0.30169249
N       -0.55398800      -0.46113857       1.18684118
C       -0.97732036      -0.36772465      -0.32718515
C       -1.18833521       0.72435224       0.64387505
H        2.52756464       0.36066377       0.05148378
H       -1.74581188      -1.09293825      -0.56032535
H        0.11177699       0.13335756      -1.43801715
H       -0.60534643       1.63647516       0.52680318
H       -2.17611663       0.88052927       1.05873105
12
Frame=3 idx=006758 GeodesicLength=0.2963287929020386 rxn_smarts="[O:1]=[C:2]([C:3](=[O:4])[N:5]1[C:6]([H:9])([H:10])[C:7]1([H:11])[H:12])[H:8]>>[O:1]([C@@:2]1([H:8])[C@@:3]2([O:4]1)[N:5]1[C@@:6]2([H:9])[C:7]1([H:11])[H:12])[H:10]"
O        1.23555597       0.45460868      -1.51117845
C        1.55381446       0.13230255      -0.33204933
C        0.56461893      -0.68339451       0.40765061
O        1.29287294      -1.70841757       0.29388524
N       -0.55359523      -0.45844298       1.18211235
C       -0.98451271      -0.37049693      -0.32291004
C       -1.19495065       0.72542595       0.64504939
H        2.54268653       0.34849170       0.05669347
H       -1.75374637      -1.09524815      -0.55519822
H        0.09765975       0.13535663      -1.44496189
H       -0.61986142       1.64036259       0.51486952
H       -2.18054221       0.87945204       1.06603734
12
Frame=4 idx=006758 GeodesicLength=0.39501798112824266 rxn_smarts="[O:1]=[C:2]([C:3](=[O:4])[N:5]1[C:6]([H:9])([H:10])[C:7]1([H:11])[H:12])[H:8]>>[O:1]([C@@:2]1([H:8])[C@@:3]2([O:4]1)[N:5]1[C@@:6]2([H:9])[C:7]1([H:11])[H:12])[H:10]"
O        1.24945076       0.46344031      -1.50661802
C        1.56943486       0.12420774      -0.33104940
C        0.57056304      -0.67836708       0.41073437
O        1.29725203      -1.70475986       0.28586851
N       -0.55295909      -0.45551752       1.17729469
C       -0.99179970      -0.37333203      -0.31860777
C       -1.20159185       0.72651891       0.64615360
H        2.55803116       0.33594921       0.06213618
H       -1.76178898      -1.09769615      -0.54975886
H        0.08301673       0.13702859      -1.45223945
H       -0.63476269       1.64418139       0.50256882
H       -2.18484626       0.87834649       1.07351732
12
Frame=5 idx=006758 GeodesicLength=0.49369688860351324 rxn_smarts="[O:1]=[C:2]([C:3](=[O:4])[N:5]1[C:6]([H:9])([H:10])[C:7]1([H:11])[H:12])[H:8]>>[O:1]([C@@:2]1([H:8])[C@@:3]2([O:4]1)[N:5]1[C@@:6]2([H:9])[C:7]1([H:11])[H:12])[H:10]"
O        1.26384981       0.47291258      -1.50159980
C        1.58529281       0.11612604      -0.32994847
C        0.57661336      -0.67318834       0.41361077
O        1.30138312      -1.70111153       0.27761934
N       -0.55207595      -0.45235461       1.17237944
C       -0.99918937      -0.37623546      -0.31427455
C       -1.20825381       0.72763542       0.64718068
H        2.57359871       0.32302095       0.06783260
H       -1.76994969      -1.10029267      -0.54398461
H        0.06779866       0.13833778      -1.45987768
H       -0.65005230       1.64792466       0.48988659
H       -2.18901533       0.87722519       1.08117569
12
Frame=6 idx=006758 GeodesicLength=0.5924140235799229 rxn_smarts="[O:1]=[C:2]([C:3](=[O:4])[N:5]1[C:6]([H:9])([H:10])[C:7]1([H:11])[H:12])[H:8]>>[O:1]([C@@:2]1([H:8])[C@@:3]2([O:4]1)[N:5]1[C@@:6]2([H:9])[C:7]1([H:11])[H:12])[H:10]"
O        1.27879747       0.48307240      -1.49607597
C        1.60139871       0.10806552      -0.32873644
C        0.58276801      -0.66786093       0.41625376
O        1.30527170      -1.69746108       0.26910855
N       -0.55094040      -0.44894689       1.16735201
C       -1.00669196      -0.37921401      -0.30990548
C       -1.21492837       0.72877988       0.64812342
H        2.58938933       0.30968870       0.07381406
H       -1.77823939      -1.10304702      -0.53784659
H        0.05193929       0.13923949      -1.46790570
H       -0.66574293       1.65157399       0.47680254
H       -2.19302146       0.87610995       1.08901584
12
Frame=7 idx=006758 GeodesicLength=0.6911965645198734 rxn_smarts="[O:1]=[C:2]([C:3](=[O:4])[N:5]1[C:6]([H:9])([H:10])[C:7]1([H:11])[H:12])[H:8]>>[O:1]([C@@:2]1([H:8])[C@@:3]2([O:4]1)[N:5]1[C@@:6]2([H:9])[C:7]1([H:11])[H:12])[H:10]"
O        1.29434416       0.49397001      -1.48999501
C        1.61776181       0.10003351      -0.32740285
C        0.58902486      -0.66238613       0.41863537
O        1.30892294      -1.69379925       0.26030162
N       -0.54954665      -0.44528590       1.16219850
C       -1.01431807      -0.38227536      -0.30549450
C       -1.22160828       0.72995714       0.64897358
H        2.60539812       0.29593533       0.08011217
H       -1.78667060      -1.10597086      -0.53131372
H        0.03537268       0.13968480      -1.47635334
H       -0.68183881       1.65511709       0.46329355
H       -2.19684217       0.87501960       1.09704462
12
Frame=8 idx=006758 GeodesicLength=0.7900703098827901 rxn_smarts="[O:1]=[C:2]([C:3](=[O:4])[N:5]1[C:6]([H:9])([H:10])[C:7]1([H:11])[H:12])[H:8]>>[O:1]([C@@:2]1([H:8])[C@@:3]2([O:4]1)[N:5]1[C@@:6]2([H:9])[C:7]1([H:11])[H:12])[H:10]"
O        1.31054230       0.50566326      -1.48329875
C        1.63439482       0.09203941      -0.32593293
C        0.59538140      -0.65676654       0.42072545
O        1.31234123      -1.69011364       0.25115735
N       -0.54788732      -0.44136339       1.15690295
C       -1.02207923      -0.38542824      -0.30103481
C       -1.22828456       0.73117203       0.64972200
H        2.62162546       0.28173796       0.08676145
H       -1.79525573      -1.10907576      -0.52434997
H        0.01802226       0.13961995      -1.48525002
H       -0.69835221       1.65853634       0.44933183
H       -2.20044841       0.87397864       1.10526544
12
Frame=9 idx=006758 GeodesicLength=0.8889407782063213 rxn_smarts="[O:1]=[C:2]([C:3](=[O:4])[N:5]1[C:6]([H:9])([H:10])[C:7]1([H:11])[H:12])[H:8]>>[O:1]([C@@:2]1([H:8])[C@@:3]2([O:4]1)[N:5]1[C@@:6]2([H:9])[C:7]1([H:11])[H:12])[H:10]"
O        1.32742880       0.51820002      -1.47593895
C        1.65130412       0.08408597      -0.32431466
C        0.60183759      -0.65100822       0.42250086
O        1.31553180      -1.68640428       0.24164037
N       -0.54596158      -0.43717081       1.15145985
C       -1.02998299      -0.38868082      -0.29652199
C       -1.23494882       0.73243013       0.65035861
H        2.63805606       0.26709437       0.09378631
H       -1.80400730      -1.11237347      -0.51692730
H       -0.00016346       0.13899691      -1.49462873
H       -0.71527050       1.66182453       0.43490689
H       -2.20382371       0.87300567       1.11367874
12
Frame=10 idx=006758 GeodesicLength=0.9879149927846217 rxn_smarts="[O:1]=[C:2]([C:3](=[O:4])[N:5]1[C:6]([H:9])([H:10])[C:7]1([H:11])[H:12])[H:8]>>[O:1]([C@@:2]1([H:8])[C@@:3]2([O:4]1)[N:5]1[C@@:6]2([H:9])[C:7]1([H:11])[H:12])[H:10]"
O        1.34508752       0.53166612      -1.46782360
C        1.66850828       0.07619155      -0.32253464
C        0.60838861      -0.64511188       0.42391532
O        1.31850070      -1.68264717       0.23168207
N       -0.54375644      -0.43269656       1.14584136
C       -1.03804716      -0.39204596      -0.29194356
C       -1.24158884       0.73373978       0.65086843
H        2.65469277       0.25196210       0.10124286
H       -1.81294161      -1.11588001      -0.50898956
H       -0.01930159       0.13773126      -1.50452166
H       -0.73261734       1.66495444       0.41997156
H       -2.20692489       0.87213631       1.12229143
12
Frame=11 idx=006758 GeodesicLength=1.0869671652445783 rxn_smarts="[O:1]=[C:2]([C:3](=[O:4])[N:5]1[C:6]([H:9])([H:10])[C:7]1([H:11])[H:12])[H:8]>>[O:1]([C@@:2]1([H:8])[C@@:3]2([O:4]1)[N:5]1[C@@:6]2([H:9])[C:7]1([H:11])[H:12])[H:10]"
O        1.36358981       0.54614299      -1.45886373
C        1.68601785       0.06836883      -0.32057734
C        0.61503235      -0.63908230       0.42492789
O        1.32125359      -1.67883293       0.22121414
N       -0.54126409      -0.42792834       1.14003163
C       -1.04628610      -0.39553695      -0.28728945
C       -1.24819216       0.73510940       0.65123647
H        2.67151999       0.23631998       0.10917376
H       -1.82207717      -1.11961181      -0.50048579
H       -0.03948181       0.13573942      -1.51496638
H       -0.75039423       1.66790807       0.40449152
H       -2.20971805       0.87140363       1.13110728
12
Frame=12 idx=006758 GeodesicLength=1.1860919239556886 rxn_smarts="[O:1]=[C:2]([C:3](=[O:4])[N:5]1[C:6]([H:9])([H:10])[C:7]1([H:11])[H:12])[H:8]>>[O:1]([C@@:2]1([H:8])[C@@:3]2([O:4]1)[N:5]1[C@@:6]2([H:9])[C:7]1([H:11])[H:12])[H:10]"
O        1.38301402       0.56172347      -1.44895821
C        1.70385294       0.06063000      -0.31842490
C        0.62176458      -0.63292453       0.42549147
O        1.32379378      -1.67494189       0.21015795
N       -0.53847420      -0.42285382       1.13400549
C       -1.05471622      -0.39916854      -0.28254642
C       -1.25474395       0.73654910       0.65144307
H        2.68853288       0.22013736       0.11763346
H       -1.83143235      -1.12358491      -0.49135630
H       -0.06081905       0.13292944      -1.52599860
H       -0.76861232       1.67065894       0.38842275
H       -2.21216010       0.87084537       1.14013024
12
Frame=13 idx=006758 GeodesicLength=1.2852203861239944 rxn_smarts="[O:1]=[C:2]([C:3](=[O:4])[N:5]1[C:6]([H:9])([H:10])[C:7]1([H:11])[H:12])[H:8]>>[O:1]([C@@:2]1([H:8])[C@@:3]2([O:4]1)[N:5]1[C@@:6]2([H:9])[C:7]1([H:11])[H:12])[H:10]"
O        1.40343844       0.57850922      -1.43799223
C        1.72202672       0.05299412      -0.31605994
C        0.62858369      -0.62664482       0.42555776
O        1.32612871      -1.67096262       0.19842334
N       -0.53537848      -0.41745764       1.12774528
C       -1.06335317      -0.40295724      -0.27770175
C       -1.26122978       0.73806918       0.65146837
H        2.70571144       0.20338402       0.12667147
H       -1.84102726      -1.12781974      -0.48153961
H       -0.08342075       0.12919405      -1.53765863
H       -0.78726834       1.67318792       0.37172591
H       -2.21421122       0.87050356       1.14936002
12
Frame=14 idx=006758 GeodesicLength=1.3843589838746586 rxn_smarts="[O:1]=[C:2]([C:3](=[O:4])[N:5]1[C:6]([H:9])([H:10])[C:7]1([H:11])[H:12])[H:8]>>[O:1]([C@@:2]1([H:8])[C@@:3]2([O:4]1)[N:5]1[C@@:6]2([H:9])[C:7]1([H:11])[H:12])[H:10]"
O        1.42497380       0.59663039      -1.42581178
C        1.74056423       0.04548082      -0.31346262
C        0.63548339      -0.62024819       0.42506040
O        1.32825841      -1.66686578       0.18589357
N       -0.53196061      -0.41172440       1.12121741
C       -1.07221968      -0.40692398      -0.27273574
C       -1.26763142       0.73968179       0.65128561
H        2.72304848       0.18601234       0.13635325
H       -1.85088494      -1.13233793      -0.47094952
H       -0.10743730       0.12440283      -1.54998452
H       -0.80637738       1.67546209       0.35433451
H       -2.21581697       0.87043002       1.15879943
12
Frame=15 idx=006758 GeodesicLength=1.483423610164766 rxn_smarts="[O:1]=[C:2]([C:3](=[O:4])[N:5]1[C:6]([H:9])([H:10])[C:7]1([H:11])[H:12])[H:8]>>[O:1]([C@@:2]1([H:8])[C@@:3]2([O:4]1)[N:5]1[C@@:6]2([H:9])[C:7]1([H:11])[H:12])[H:10]"
O        1.44772176       0.61622142      -1.41224929
C        1.75948579       0.03811311      -0.31061381
C        0.64246019      -0.61374149       0.42393386
O        1.33018624      -1.66262882       0.17244160
N       -0.52820743      -0.40563532       1.11439466
C       -1.08133620      -0.41109063      -0.26762978
C       -1.27392969       0.74140074       0.65086578
H        2.74052228       0.16797814       0.14673965
H       -1.86102940      -1.13716327      -0.45949972
H       -0.13300963       0.11841407      -1.56301836
H       -0.82594178       1.67745170       0.33618890
H       -2.21692212       0.87068036       1.16844650
12
Frame=16 idx=006758 GeodesicLength=1.5823549277459132 rxn_smarts="[O:1]=[C:2]([C:3](=[O:4])[N:5]1[C:6]([H:9])([H:10])[C:7]1([H:11])[H:12])[H:8]>>[O:1]([C@@:2]1([H:8])[C@@:3]2([O:4]1)[N:5]1[C@@:6]2([H:9])[C:7]1([H:11])[H:12])[H:10]"
O        1.47180470       0.63744441      -1.39709423
C        1.77882019       0.03091763      -0.30749068
C        0.64950902      -0.60712916       0.42209894
O        1.33191227      -1.65821680       0.15791222
N       -0.52409999      -0.39916842       1.10724295
C       -1.09072689      -0.41548395      -0.26235952
C       -1.28010318       0.74324223       0.65017251
H        2.75811865       0.14921396       0.15789750
H       -1.87148508      -1.14232547      -0.44708286
H       -0.16031203       0.11106425      -1.57680225
H       -0.84597541       1.67912212       0.31720976
H       -2.21746225       0.87131918       1.17829565
