14
Frame=0 idx=010171 GeodesicLength=0.0 rxn_smarts="[N:1]([C:2](=[O:3])[C:4]([C@@:5]1([H:12])[C:6]([H:13])([H:14])[O:7]1)([H:10])[H:11])([H:8])[H:9]>>[C:4]([C@@:5]1([H:12])[C:6]([H:13])([H:14])[O:7]1)([H:8])([H:10])[H:11].[N:1](=[C:2]=[O:3])[H:9]"
N        1.64029119       0.93062899       1.37915495
C        0.61841622       0.17888660       1.64621080
O       -0.20999612      -0.14910356       2.41233753
C        0.48939226      -0.75195890      -0.04789103
C       -0.91199644      -0.47747427      -0.49401551
C       -1.21094003       0.48113800      -1.55272472
O       -1.27623005      -0.91417274      -1.79681624
H        1.35145976       0.22746929       0.28254220
H        1.96106411       1.57693665       2.09517886
H        0.62741057      -1.75469355       0.35366262
H        1.15254485      -0.69270630      -0.93167008
H       -1.67432425      -0.65740108       0.25932244
H       -0.39349730       1.00029557      -2.04759042
H       -2.16359475       1.00215533      -1.55770139
14
Frame=1 idx=010171 GeodesicLength=0.10022183580247489 rxn_smarts="[N:1]([C:2](=[O:3])[C:4]([C@@:5]1([H:12])[C:6]([H:13])([H:14])[O:7]1)([H:10])[H:11])([H:8])[H:9]>>[C:4]([C@@:5]1([H:12])[C:6]([H:13])([H:14])[O:7]1)([H:8])([H:10])[H:11].[N:1](=[C:2]=[O:3])[H:9]"
N        1.65965169       0.92144855       1.40939119
C        0.59702875       0.21926795       1.64627414
O       -0.26665557      -0.04650328       2.39826287
C        0.49424401      -0.73409133      -0.05530143
C       -0.91322681      -0.49151753      -0.50297549
C       -1.23204541       0.46611151      -1.55655778
O       -1.26786474      -0.92904224      -1.80833854
H        1.37623307       0.25696535       0.27774176
H        2.05734290       1.47989423       2.15846409
H        0.64107050      -1.73843834       0.34124207
H        1.15058508      -0.67423809      -0.94331149
H       -1.67602379      -0.70120754       0.24236806
H       -0.42533611       1.00348801      -2.04959813
H       -2.19500356       0.96786275      -1.55766131
14
Frame=2 idx=010171 GeodesicLength=0.20046421985820972 rxn_smarts="[N:1]([C:2](=[O:3])[C:4]([C@@:5]1([H:12])[C:6]([H:13])([H:14])[O:7]1)([H:10])[H:11])([H:8])[H:9]>>[C:4]([C@@:5]1([H:12])[C:6]([H:13])([H:14])[O:7]1)([H:8])([H:10])[H:11].[N:1](=[C:2]=[O:3])[H:9]"
N        1.67941864       0.90763678       1.44173162
C        0.57716028       0.25991447       1.64598591
O       -0.32482880       0.06920117       2.37636580
C        0.50049391      -0.71605284      -0.06302183
C       -0.91291427      -0.50613342      -0.51087477
C       -1.25316097       0.45106420      -1.55790805
O       -1.25900221      -0.94299535      -1.81890846
H        1.40399035       0.28610372       0.27381330
H        2.14105047       1.37306453       2.21591525
H        0.65699540      -1.72205414       0.32779692
H        1.14943582      -0.65427203      -0.95554939
H       -1.67391337      -0.74573545       0.22750328
H       -0.45838138       1.00756783      -2.04913919
H       -2.22634386       0.93269055      -1.55371039
14
Frame=3 idx=010171 GeodesicLength=0.3000557467410294 rxn_smarts="[N:1]([C:2](=[O:3])[C:4]([C@@:5]1([H:12])[C:6]([H:13])([H:14])[O:7]1)([H:10])[H:11])([H:8])[H:9]>>[C:4]([C@@:5]1([H:12])[C:6]([H:13])([H:14])[O:7]1)([H:8])([H:10])[H:11].[N:1](=[C:2]=[O:3])[H:9]"
N        1.69415166       0.89496329       1.47473150
C        0.55761804       0.30069622       1.64605179
O       -0.37893342       0.18984179       2.34987580
C        0.50768369      -0.69760275      -0.07080936
C       -0.91145677      -0.52017058      -0.51719771
C       -1.27348658       0.43560067      -1.55805798
O       -1.25075310      -0.95693176      -1.82720547
H        1.43395827       0.31519723       0.27158991
H        2.21314726       1.25546107       2.26701638
H        0.67505960      -1.70553935       0.31272680
H        1.14888853      -0.63213943      -0.96795506
H       -1.66852538      -0.78715841       0.21611173
H       -0.49122492       1.01018220      -2.04874167
H       -2.25612686       0.89759981      -1.54813665
14
Frame=4 idx=010171 GeodesicLength=0.40058186972173826 rxn_smarts="[N:1]([C:2](=[O:3])[C:4]([C@@:5]1([H:12])[C:6]([H:13])([H:14])[O:7]1)([H:10])[H:11])([H:8])[H:9]>>[C:4]([C@@:5]1([H:12])[C:6]([H:13])([H:14])[O:7]1)([H:8])([H:10])[H:11].[N:1](=[C:2]=[O:3])[H:9]"
N        1.71415173       0.86975559       1.51196469
C        0.54087907       0.34200047       1.64436147
O       -0.43171150       0.32788760       2.30766229
C        0.51711689      -0.67871475      -0.08037592
C       -0.90806699      -0.53458179      -0.52211618
C       -1.29515635       0.41971185      -1.55503587
O       -1.24407454      -0.97046954      -1.83318585
H        1.47045390       0.34113316       0.27097956
H        2.26422126       1.13409072       2.31995861
H        0.69620111      -1.68891944       0.29423223
H        1.14881722      -0.60725690      -0.98296095
H       -1.65825431      -0.82835812       0.20823561
H       -0.52756925       1.01238245      -2.04731831
H       -2.28700823       0.86133871      -1.53640139
14
Frame=5 idx=010171 GeodesicLength=0.4997888217265734 rxn_smarts="[N:1]([C:2](=[O:3])[C:4]([C@@:5]1([H:12])[C:6]([H:13])([H:14])[O:7]1)([H:10])[H:11])([H:8])[H:9]>>[C:4]([C@@:5]1([H:12])[C:6]([H:13])([H:14])[O:7]1)([H:8])([H:10])[H:11].[N:1](=[C:2]=[O:3])[H:9]"
N        1.72481460       0.84864710       1.54920012
C        0.52408456       0.37971346       1.64495415
O       -0.47523257       0.46525105       2.26256953
C        0.52703066      -0.66010501      -0.08980186
C       -0.90380831      -0.54748536      -0.52506300
C       -1.31515982       0.40356416      -1.55139397
O       -1.23837841      -0.98425656      -1.83610621
H        1.50809874       0.36603777       0.27359181
H        2.30339800       1.00701115       2.36365631
H        0.71913719      -1.67319002       0.27278879
H        1.14894333      -0.57966160      -0.99753566
H       -1.64565753      -0.86381017       0.20454646
H       -0.56222128       1.01205834      -2.04693143
H       -2.31504914       0.82622566      -1.52447503
14
Frame=6 idx=010171 GeodesicLength=0.600117666230713 rxn_smarts="[N:1]([C:2](=[O:3])[C:4]([C@@:5]1([H:12])[C:6]([H:13])([H:14])[O:7]1)([H:10])[H:11])([H:8])[H:9]>>[C:4]([C@@:5]1([H:12])[C:6]([H:13])([H:14])[O:7]1)([H:8])([H:10])[H:11].[N:1](=[C:2]=[O:3])[H:9]"
N        1.73550695       0.81945938       1.58845295
C        0.50857774       0.41812462       1.64303737
O       -0.51111234       0.61264977       2.20103379
C        0.53883118      -0.64260475      -0.10131170
C       -0.89792098      -0.56133142      -0.52683172
C       -1.33582971       0.38773367      -1.54378130
O       -1.23494366      -0.99684741      -1.83735656
H        1.55348857       0.38368006       0.27919909
H        2.32080748       0.88326862       2.40989569
H        0.74457084      -1.65888022       0.24715287
H        1.14917818      -0.55039305      -1.01483873
H       -1.62904220      -0.89857925       0.20438585
H       -0.59911618       1.01194974      -2.04399769
H       -2.34299589       0.79177025      -1.50503990
14
Frame=7 idx=010171 GeodesicLength=0.699512266308564 rxn_smarts="[N:1]([C:2](=[O:3])[C:4]([C@@:5]1([H:12])[C:6]([H:13])([H:14])[O:7]1)([H:10])[H:11])([H:8])[H:9]>>[C:4]([C@@:5]1([H:12])[C:6]([H:13])([H:14])[O:7]1)([H:8])([H:10])[H:11].[N:1](=[C:2]=[O:3])[H:9]"
N        1.73868518       0.79322031       1.62833944
C        0.49241744       0.45459646       1.64327324
O       -0.53466202       0.75339090       2.13980113
C        0.55073584      -0.62441154      -0.11268798
C       -0.89165848      -0.57254102      -0.52658943
C       -1.35518306       0.37117663      -1.53699392
O       -1.23288448      -1.01095391      -1.83482655
H        1.59964568       0.40086723       0.28850172
H        2.32705325       0.75648050       2.44811491
H        0.77120515      -1.64429266       0.21844721
H        1.14907779      -0.51737794      -1.03159688
H       -1.61138410      -0.92612297       0.20838643
H       -0.63449112       1.00784193      -2.04475508
H       -2.36855707       0.75812608      -1.48741425
14
Frame=8 idx=010171 GeodesicLength=0.7994498972308991 rxn_smarts="[N:1]([C:2](=[O:3])[C:4]([C@@:5]1([H:12])[C:6]([H:13])([H:14])[O:7]1)([H:10])[H:11])([H:8])[H:9]>>[C:4]([C@@:5]1([H:12])[C:6]([H:13])([H:14])[O:7]1)([H:8])([H:10])[H:11].[N:1](=[C:2]=[O:3])[H:9]"
N        1.73843042       0.76342775       1.66793181
C        0.47648297       0.49242115       1.64023471
O       -0.54783697       0.89462454       2.06634625
C        0.56385207      -0.60845375      -0.12573497
C       -0.88414737      -0.58487510      -0.52561749
C       -1.37432191       0.35573633      -1.52617851
O       -1.23255002      -1.02303710      -1.83162292
H        1.65229093       0.40911557       0.30116331
H        2.31441303       0.63888356       2.48680982
H        0.79909665      -1.63196864       0.18617477
H        1.14881102      -0.48406588      -1.05006877
H       -1.59105490      -0.95332582       0.21462972
H       -0.67050139       1.00508159      -2.04138701
H       -2.39296453       0.72643578      -1.46268073
14
Frame=9 idx=010171 GeodesicLength=0.8988752519333809 rxn_smarts="[N:1]([C:2](=[O:3])[C:4]([C@@:5]1([H:12])[C:6]([H:13])([H:14])[O:7]1)([H:10])[H:11])([H:8])[H:9]>>[C:4]([C@@:5]1([H:12])[C:6]([H:13])([H:14])[O:7]1)([H:8])([H:10])[H:11].[N:1](=[C:2]=[O:3])[H:9]"
N        1.73236515       0.73512134       1.70756314
C        0.46017685       0.52973493       1.63816571
O       -0.54952060       1.02855394       1.99351506
C        0.57701233      -0.59209545      -0.13883292
C       -0.87633328      -0.59509322      -0.52312523
C       -1.39251849       0.33987554      -1.51575218
O       -1.23312548      -1.03620079      -1.82553122
H        1.70610837       0.41534196       0.31758419
H        2.29145888       0.52225220       2.51889014
H        0.82758286      -1.61927944       0.15115977
H        1.14798248      -0.44767047      -1.06798975
H       -1.57004050      -0.97537329       0.22377288
H       -0.70550723       0.99944818      -2.04051901
H       -2.41564134       0.69538459      -1.43890056
14
Frame=10 idx=010171 GeodesicLength=0.9984971831489479 rxn_smarts="[N:1]([C:2](=[O:3])[C:4]([C@@:5]1([H:12])[C:6]([H:13])([H:14])[O:7]1)([H:10])[H:11])([H:8])[H:9]>>[C:4]([C@@:5]1([H:12])[C:6]([H:13])([H:14])[O:7]1)([H:8])([H:10])[H:11].[N:1](=[C:2]=[O:3])[H:9]"
N        1.72141226       0.70694462       1.74535137
C        0.44379614       0.56792246       1.63346598
O       -0.54162148       1.15691252       1.91415708
C        0.59077443      -0.57819486      -0.15291281
C       -0.86766459      -0.60614445      -0.52025076
C       -1.40985982       0.32539515      -1.50209693
O       -1.23464093      -1.04724471      -1.81938944
H        1.76356650       0.41385087       0.33735387
H        2.25502902       0.41650105       2.54871964
H        0.85628647      -1.60885295       0.11344630
H        1.14692328      -0.41171970      -1.08632169
H       -1.54754151      -0.99748576       0.23378924
H       -0.73988544       0.99549759      -2.03543739
H       -2.43657433       0.66661817      -1.40987445
14
Frame=11 idx=010171 GeodesicLength=1.0977773895293665 rxn_smarts="[N:1]([C:2](=[O:3])[C:4]([C@@:5]1([H:12])[C:6]([H:13])([H:14])[O:7]1)([H:10])[H:11])([H:8])[H:9]>>[C:4]([C@@:5]1([H:12])[C:6]([H:13])([H:14])[O:7]1)([H:8])([H:10])[H:11].[N:1](=[C:2]=[O:3])[H:9]"
N        1.70538849       0.67924844       1.78288243
C        0.42710227       0.60623731       1.62945219
O       -0.52294313       1.27986642       1.83546466
C        0.60462989      -0.56357073      -0.16713224
C       -0.85857982      -0.61540340      -0.51612430
C       -1.42665852       0.31030123      -1.48870706
O       -1.23636292      -1.05938594      -1.81079472
H        1.82145516       0.41038247       0.36120566
H        2.20973650       0.31141958       2.57233471
H        0.88559066      -1.59735076       0.07312018
H        1.14519025      -0.37247332      -1.10390291
H       -1.52407830      -1.01603689       0.24596592
H       -0.77402215       0.98921633      -2.03223231
H       -2.45644839       0.63754926      -1.38153222
14
Frame=12 idx=010171 GeodesicLength=1.1968542718166333 rxn_smarts="[N:1]([C:2](=[O:3])[C:4]([C@@:5]1([H:12])[C:6]([H:13])([H:14])[O:7]1)([H:10])[H:11])([H:8])[H:9]>>[C:4]([C@@:5]1([H:12])[C:6]([H:13])([H:14])[O:7]1)([H:8])([H:10])[H:11].[N:1](=[C:2]=[O:3])[H:9]"
N        1.68464090       0.65309439       1.81813879
C        0.41025301       0.64482618       1.62439852
O       -0.49607082       1.39458140       1.75649604
C        0.61860339      -0.55039017      -0.18173958
C       -0.84902275      -0.62447912      -0.51161783
C       -1.44240599       0.29607641      -1.47382627
O       -1.23842720      -1.07043024      -1.80178541
H        1.88036697       0.40195258       0.38853352
H        2.15602902       0.21531159       2.59111658
H        0.91448212      -1.58685419       0.03080978
H        1.14301643      -0.33333197      -1.12093665
H       -1.49990999      -1.03387997       0.25853705
H       -0.80701033       0.98337376      -2.02710618
H       -2.47454477       0.61014933      -1.35101837
14
Frame=13 idx=010171 GeodesicLength=1.2958895751215023 rxn_smarts="[N:1]([C:2](=[O:3])[C:4]([C@@:5]1([H:12])[C:6]([H:13])([H:14])[O:7]1)([H:10])[H:11])([H:8])[H:9]>>[C:4]([C@@:5]1([H:12])[C:6]([H:13])([H:14])[O:7]1)([H:8])([H:10])[H:11].[N:1](=[C:2]=[O:3])[H:9]"
N        1.65928955       0.62851228       1.85062961
C        0.39311652       0.68371705       1.61784816
O       -0.46189930       1.50148392       1.67643991
C        0.63280034      -0.53893282      -0.19695389
C       -0.83887450      -0.63388518      -0.50705913
C       -1.45718150       0.28293571      -1.45697091
O       -1.24076266      -1.07987978      -1.79297059
H        1.94000920       0.38804844       0.41950048
H        2.09487559       0.12932202       2.60619538
H        0.94294555      -1.57753435      -0.01351937
H        1.14050168      -0.29485367      -1.13758674
H       -1.47480147      -1.05214024       0.27093493
H       -0.83905986       0.97881295      -2.01897372
H       -2.49095913       0.58439368      -1.31751413
14
Frame=14 idx=010171 GeodesicLength=1.3946800976032034 rxn_smarts="[N:1]([C:2](=[O:3])[C:4]([C@@:5]1([H:12])[C:6]([H:13])([H:14])[O:7]1)([H:10])[H:11])([H:8])[H:9]>>[C:4]([C@@:5]1([H:12])[C:6]([H:13])([H:14])[O:7]1)([H:8])([H:10])[H:11].[N:1](=[C:2]=[O:3])[H:9]"
N        1.62994854       0.60556896       1.88068073
C        0.37584886       0.72288596       1.61093358
O       -0.42093686       1.60066889       1.59893858
C        0.64699309      -0.52795291      -0.21253418
C       -0.82837507      -0.64261270      -0.50217385
C       -1.47112225       0.27012257      -1.43960776
O       -1.24324476      -1.08904631      -1.78342981
H        1.99937741       0.37051282       0.45437241
H        2.02847214       0.05011009       2.61617725
H        0.97087452      -1.56802609      -0.05954971
H        1.13741057      -0.25617510      -1.15361697
H       -1.44904093      -1.06937695       0.28361791
H       -0.87025962       0.97383493      -2.01045471
H       -2.50594565       0.55948586      -1.28335347
14
Frame=15 idx=010171 GeodesicLength=1.4934510936054286 rxn_smarts="[N:1]([C:2](=[O:3])[C:4]([C@@:5]1([H:12])[C:6]([H:13])([H:14])[O:7]1)([H:10])[H:11])([H:8])[H:9]>>[C:4]([C@@:5]1([H:12])[C:6]([H:13])([H:14])[O:7]1)([H:8])([H:10])[H:11].[N:1](=[C:2]=[O:3])[H:9]"
N        1.59682734       0.58426012       1.90800124
C        0.35847063       0.76270915       1.60318029
O       -0.37391829       1.69282999       1.52362828
C        0.66134627      -0.51742891      -0.22873712
C       -0.81736601      -0.65097601      -0.49714752
C       -1.48434145       0.25766177      -1.42142245
O       -1.24581433      -1.09774736      -1.77345281
H        2.05839869       0.34880397       0.49351949
H        1.95701358      -0.02222996       2.62165274
H        0.99841119      -1.55820058      -0.10734834
H        1.13379821      -0.21755595      -1.16934432
H       -1.42228731      -1.08622130       0.29636133
H       -0.90090218       0.96885020      -2.00096715
H       -2.51963636       0.53524487      -1.24792367
14
Frame=16 idx=010171 GeodesicLength=1.5922955713284936 rxn_smarts="[N:1]([C:2](=[O:3])[C:4]([C@@:5]1([H:12])[C:6]([H:13])([H:14])[O:7]1)([H:10])[H:11])([H:8])[H:9]>>[C:4]([C@@:5]1([H:12])[C:6]([H:13])([H:14])[O:7]1)([H:8])([H:10])[H:11].[N:1](=[C:2]=[O:3])[H:9]"
N        1.56024693       0.56458507       1.93236947
C        0.34107639       0.80325779       1.59457789
O       -0.32149281       1.77827024       1.45109953
C        0.67590247      -0.50710682      -0.24574076
C       -0.80579846      -0.65896522      -0.49207873
C       -1.49692185       0.24543935      -1.40252307
O       -1.24846291      -1.10611777      -1.76304977
H        2.11673401       0.32271247       0.53731775
H        1.88121783      -0.08782439       2.62287595
H        1.02556316      -1.54772228      -0.15691227
H        1.12961067      -0.17906573      -1.18503564
H       -1.39438634      -1.10270230       0.30909804
H       -0.93117248       0.96376267      -1.99070145
H       -2.53211660       0.51147692      -1.21129695
