21
Frame=0 idx=010812 GeodesicLength=0.0 rxn_smarts="[C:1]([C:2]([C@@:3]1([C:4]([H:13])([H:14])[H:15])[C:5]([H:16])([H:17])[C@:6]1([C:7]([H:19])([H:20])[H:21])[H:18])([H:11])[H:12])([H:8])([H:9])[H:10]>>[C:1]([C:2]([C:5]([C@:6]([C:3][C:4]([H:13])([H:14])[H:15])([C:7]([H:19])([H:20])[H:21])[H:18])([H:16])[H:17])([H:11])[H:12])([H:8])([H:9])[H:10]"
C        2.34154284      -0.54442288       0.00273714
C        0.95751147      -0.90814228      -0.51883511
C       -0.04187910       0.34571677       0.64204789
C        0.51291434       1.74453159       0.52521188
C       -0.62670944      -0.09464324      -1.05750599
C       -1.43367066       0.29377444       0.12785933
C       -2.37725540      -0.74823120       0.68748802
H        3.02640229      -1.34960397      -0.27997105
H        2.72587433       0.36849294      -0.45407302
H        2.34459802      -0.42715350       1.08501382
H        1.13132656      -1.11052299      -1.58620428
H        0.61736682      -1.83538492      -0.06724313
H        1.59702066       1.80269001       0.60377937
H        0.10826068       2.25397746       1.40603993
H        0.19187300       2.32732416      -0.35174447
H       -0.39174699       0.68528251      -1.77101457
H       -0.94009217      -1.02636036      -1.51144530
H       -1.89731734       1.27330687       0.00823739
H       -2.70515584      -0.46992105       1.69036047
H       -1.87837783      -1.71632756       0.76352430
H       -3.26248623      -0.86438276       0.05573741
21
Frame=1 idx=010812 GeodesicLength=0.062488384483813726 rxn_smarts="[C:1]([C:2]([C@@:3]1([C:4]([H:13])([H:14])[H:15])[C:5]([H:16])([H:17])[C@:6]1([C:7]([H:19])([H:20])[H:21])[H:18])([H:11])[H:12])([H:8])([H:9])[H:10]>>[C:1]([C:2]([C:5]([C@:6]([C:3][C:4]([H:13])([H:14])[H:15])([C:7]([H:19])([H:20])[H:21])[H:18])([H:16])[H:17])([H:11])[H:12])([H:8])([H:9])[H:10]"
C        2.33189023      -0.56833484       0.02363019
C        0.95272188      -0.90587077      -0.52867180
C       -0.03733225       0.36796956       0.62478368
C        0.50912746       1.76768262       0.51158735
C       -0.63011012      -0.08152650      -1.07000277
C       -1.43238376       0.29413288       0.12537200
C       -2.35444641      -0.76051291       0.69674403
H        3.01154306      -1.38283073      -0.24412591
H        2.74108982       0.33935389      -0.42201510
H        2.31124971      -0.45700322       1.10672540
H        1.14433047      -1.09973835      -1.59455257
H        0.59826777      -1.83729540      -0.09568658
H        1.59406317       1.83345529       0.57250174
H        0.11932568       2.26623952       1.40555871
H        0.16742635       2.35411149      -0.35472763
H       -0.40237246       0.70398997      -1.78015116
H       -0.95339515      -1.00438422      -1.53547044
H       -1.90908108       1.26825556       0.01166587
H       -2.67447405      -0.48590052       1.70322243
H       -1.84315843      -1.72228147       0.76950435
H       -3.24428190      -0.88951185       0.07410825
21
Frame=2 idx=010812 GeodesicLength=0.12504323082290245 rxn_smarts="[C:1]([C:2]([C@@:3]1([C:4]([H:13])([H:14])[H:15])[C:5]([H:16])([H:17])[C@:6]1([C:7]([H:19])([H:20])[H:21])[H:18])([H:11])[H:12])([H:8])([H:9])[H:10]>>[C:1]([C:2]([C:5]([C@:6]([C:3][C:4]([H:13])([H:14])[H:15])([C:7]([H:19])([H:20])[H:21])[H:18])([H:16])[H:17])([H:11])[H:12])([H:8])([H:9])[H:10]"
C        2.32109890      -0.59242315       0.04501220
C        0.94810175      -0.90345091      -0.53860750
C       -0.03264343       0.39026472       0.60726922
C        0.50528981       1.79094648       0.49765793
C       -0.63349870      -0.06852033      -1.08253938
C       -1.43059935       0.29432704       0.12299118
C       -2.33077730      -0.77268216       0.70590278
H        2.99521795      -1.41597088      -0.20822518
H        2.75497461       0.31000630      -0.38799776
H        2.27603379      -0.48740086       1.12844993
H        1.15812708      -1.08837438      -1.60259350
H        0.57965305      -1.83900846      -0.12511009
H        1.59078721       1.86443371       0.53935577
H        0.13168591       2.27824464       1.40494552
H        0.14220403       2.38088213      -0.35718194
H       -0.41337384       0.72259613      -1.78931690
H       -0.96687922      -0.98239841      -1.55900746
H       -1.92039504       1.26279570       0.01534957
H       -2.64275564      -0.50166204       1.71593409
H       -1.80726290      -1.72801746       0.77524262
H       -3.22498867      -0.91458782       0.09246890
21
Frame=3 idx=010812 GeodesicLength=0.18771742389709029 rxn_smarts="[C:1]([C:2]([C@@:3]1([C:4]([H:13])([H:14])[H:15])[C:5]([H:16])([H:17])[C@:6]1([C:7]([H:19])([H:20])[H:21])[H:18])([H:11])[H:12])([H:8])([H:9])[H:10]>>[C:1]([C:2]([C:5]([C@:6]([C:3][C:4]([H:13])([H:14])[H:15])([C:7]([H:19])([H:20])[H:21])[H:18])([H:16])[H:17])([H:11])[H:12])([H:8])([H:9])[H:10]"
C        2.30909160      -0.61665856       0.06688557
C        0.94367009      -0.90088760      -0.54863930
C       -0.02780679       0.41259042       0.58951436
C        0.50141340       1.81430923       0.48342438
C       -0.63686095      -0.05562749      -1.09510854
C       -1.42828863       0.29435484       0.12072100
C       -2.30620853      -0.78473323       0.71496302
H        2.97740415      -1.44897719      -0.17224392
H        2.76739229       0.28045254      -0.35202469
H        2.23877774      -0.51835026       1.15010206
H        1.17275710      -1.07641932      -1.61027551
H        0.56157774      -1.84051772      -0.15555265
H        1.58710967       1.89561158       0.50432106
H        0.14543150       2.28997910       1.40414194
H        0.11624362       2.40758594      -0.35903852
H       -0.42474375       0.74109375      -1.79849651
H       -0.98055130      -0.96040556      -1.58204459
H       -1.93122229       1.25692138       0.01930656
H       -2.60996242      -0.51720129       1.72849054
H       -1.77065766      -1.73353451       0.78072407
H       -3.20456656      -0.93958605       0.11082967
21
Frame=4 idx=010812 GeodesicLength=0.2505761349673998 rxn_smarts="[C:1]([C:2]([C@@:3]1([C:4]([H:13])([H:14])[H:15])[C:5]([H:16])([H:17])[C@:6]1([C:7]([H:19])([H:20])[H:21])[H:18])([H:11])[H:12])([H:8])([H:9])[H:10]>>[C:1]([C:2]([C:5]([C@:6]([C:3][C:4]([H:13])([H:14])[H:15])([C:7]([H:19])([H:20])[H:21])[H:18])([H:16])[H:17])([H:11])[H:12])([H:8])([H:9])[H:10]"
C        2.29578902      -0.64102417       0.08923987
C        0.93943858      -0.89818933      -0.55876104
C       -0.02281818       0.43493924       0.57153290
C        0.49750836       1.83776045       0.46888780
C       -0.64018509      -0.04284771      -1.10770007
C       -1.42542555       0.29421767       0.11856755
C       -2.28070021      -0.79666772       0.72392102
H        2.95807648      -1.48182009      -0.13615226
H        2.77819257       0.25070095      -0.31409429
H        2.19934511      -0.54982263       1.17157589
H        1.18825125      -1.06387308      -1.61753889
H        0.54409659      -1.84179622      -0.18704032
H        1.58294404       1.92696974       0.46740038
H        0.16065157       2.30143743       1.40307603
H        0.08960671       2.43416457      -0.36023282
H       -0.43647527       0.75947787      -1.80767152
H       -0.99442453      -0.93840192      -1.60456786
H       -1.94152998       1.25063065       0.02355683
H       -2.57605492      -0.53252872       1.74088786
H       -1.73330819      -1.73883917       0.78592072
H       -3.18297835      -0.96448781       0.12919222
21
Frame=5 idx=010812 GeodesicLength=0.3136892627886887 rxn_smarts="[C:1]([C:2]([C@@:3]1([C:4]([H:13])([H:14])[H:15])[C:5]([H:16])([H:17])[C@:6]1([C:7]([H:19])([H:20])[H:21])[H:18])([H:11])[H:12])([H:8])([H:9])[H:10]>>[C:1]([C:2]([C:5]([C@:6]([C:3][C:4]([H:13])([H:14])[H:15])([C:7]([H:19])([H:20])[H:21])[H:18])([H:16])[H:17])([H:11])[H:12])([H:8])([H:9])[H:10]"
C        2.28112593      -0.66548538       0.11202515
C        0.93542668      -0.89537306      -0.56895655
C       -0.01766436       0.45729195       0.55335221
C        0.49359123       1.86127890       0.45407814
C       -0.64344860      -0.03018679      -1.12029341
C       -1.42197929       0.29391229       0.11654320
C       -2.25422369      -0.80847930       0.73275581
H        2.93720003      -1.51446150      -0.09996656
H        2.78722862       0.22076784      -0.27426604
H        2.15763133      -0.58175089       1.19274785
H        1.20462872      -1.05079230      -1.62430298
H        0.52725573      -1.84283101      -0.21953852
H        1.57819576       1.95850282       0.42865775
H        0.17737160       2.31263665       1.40165953
H        0.06237675       2.46055072      -0.36069161
H       -0.44854062       0.77774008      -1.81680986
H       -1.00850377      -0.91638658      -1.62655276
H       -1.95127055       1.24391880       0.02812403
H       -2.54098767      -0.54765320       1.75310012
H       -1.69521907      -1.74395222       0.79078069
H       -3.16019476      -0.98924782       0.14755380
21
Frame=6 idx=010812 GeodesicLength=0.37714172037069893 rxn_smarts="[C:1]([C:2]([C@@:3]1([C:4]([H:13])([H:14])[H:15])[C:5]([H:16])([H:17])[C@:6]1([C:7]([H:19])([H:20])[H:21])[H:18])([H:11])[H:12])([H:8])([H:9])[H:10]>>[C:1]([C:2]([C:5]([C@:6]([C:3][C:4]([H:13])([H:14])[H:15])([C:7]([H:19])([H:20])[H:21])[H:18])([H:16])[H:17])([H:11])[H:12])([H:8])([H:9])[H:10]"
C        2.26500049      -0.69001664       0.13519810
C        0.93164284      -0.89246003      -0.57919820
C       -0.01234494       0.47964109       0.53499452
C        0.48966979       1.88485400       0.43900697
C       -0.64663148      -0.01764819      -1.13287299
C       -1.41791855       0.29343915       0.11465613
C       -2.22673188      -0.82017046       0.74144666
H        2.91470359      -1.54688488      -0.06368684
H        2.79433273       0.19066110      -0.23258308
H        2.11353301      -0.61403080       1.21343049
H        1.22190603      -1.03723293      -1.63046722
H        0.51111564      -1.84356956      -0.25299952
H        1.57278136       1.99019977       0.38820128
H        0.19566493       2.32356539       1.39982016
H        0.03463764       2.48668929      -0.36036396
H       -0.46091356       0.79586750      -1.82588848
H       -1.02279395      -0.89436146      -1.64797657
H       -1.96040778       1.23678069       0.03301998
H       -2.50471193      -0.56259288       1.76511383
H       -1.65635250      -1.74888541       0.79524701
H       -3.13618148      -1.01384476       0.16590173
21
Frame=7 idx=010812 GeodesicLength=0.4410342765001998 rxn_smarts="[C:1]([C:2]([C@@:3]1([C:4]([H:13])([H:14])[H:15])[C:5]([H:16])([H:17])[C@:6]1([C:7]([H:19])([H:20])[H:21])[H:18])([H:11])[H:12])([H:8])([H:9])[H:10]>>[C:1]([C:2]([C:5]([C@:6]([C:3][C:4]([H:13])([H:14])[H:15])([C:7]([H:19])([H:20])[H:21])[H:18])([H:16])[H:17])([H:11])[H:12])([H:8])([H:9])[H:10]"
C        2.24734932      -0.71458620       0.15867166
C        0.92811006      -0.88947212      -0.58945291
C       -0.00684634       0.50197223       0.51649669
C        0.48575965       1.90846884       0.42371287
C       -0.64970148      -0.00523932      -1.14541083
C       -1.41320682       0.29279825       0.11292033
C       -2.19819436      -0.83174486       0.74996358
H        2.89048577      -1.57908817      -0.02735651
H        2.79933407       0.16039789      -0.18913069
H        2.06700213      -0.64651269       1.23346274
H        1.24008030      -1.02330704      -1.63592903
H        0.49572281      -1.84396836      -0.28732257
H        1.56662151       2.02206980       0.34617485
H        0.21553762       2.33425499       1.39746212
H        0.00648420       2.51252172      -0.35919805
H       -0.47355398       0.81384427      -1.83487012
H       -1.03729036      -0.87232748      -1.66880146
H       -1.96889352       1.22921176       0.03826936
H       -2.46716522      -0.57738032       1.77689833
H       -1.61672024      -1.75367649       0.79922790
H       -3.11091515      -1.03823668       0.18421172
21
Frame=8 idx=010812 GeodesicLength=0.5054756265032672 rxn_smarts="[C:1]([C:2]([C@@:3]1([C:4]([H:13])([H:14])[H:15])[C:5]([H:16])([H:17])[C@:6]1([C:7]([H:19])([H:20])[H:21])[H:18])([H:11])[H:12])([H:8])([H:9])[H:10]>>[C:1]([C:2]([C:5]([C@:6]([C:3][C:4]([H:13])([H:14])[H:15])([C:7]([H:19])([H:20])[H:21])[H:18])([H:16])[H:17])([H:11])[H:12])([H:8])([H:9])[H:10]"
C        2.22811511      -0.73916205       0.18236682
C        0.92483705      -0.88645325      -0.59968058
C       -0.00115737       0.52425821       0.49789371
C        0.48186905       1.93209642       0.40824620
C       -0.65262882       0.00702473      -1.15788107
C       -1.40781278       0.29199093       0.11134726
C       -2.16860872      -0.84319195       0.75826619
H        2.86451765      -1.61105353       0.00897000
H        2.80208683       0.13001398      -0.14404554
H        2.01808022      -0.67902085       1.25262702
H        1.25914075      -1.00915940      -1.64057478
H        0.48112730      -1.84399110      -0.32236544
H        1.55963268       2.05413350       0.30277611
H        0.23697765       2.34471436       1.39450547
H       -0.02199301       2.53798924      -0.35713929
H       -0.48640785       0.83164852      -1.84371886
H       -1.05198891      -0.85029579      -1.68899495
H       -1.97667969       1.22121260       0.04388108
H       -2.42832981      -0.59203170       1.78842968
H       -1.57636730      -1.75836279       0.80263924
H       -3.08441003      -1.06236009       0.20245174
21
Frame=9 idx=010812 GeodesicLength=0.570287261775608 rxn_smarts="[C:1]([C:2]([C@@:3]1([C:4]([H:13])([H:14])[H:15])[C:5]([H:16])([H:17])[C@:6]1([C:7]([H:19])([H:20])[H:21])[H:18])([H:11])[H:12])([H:8])([H:9])[H:10]>>[C:1]([C:2]([C:5]([C@:6]([C:3][C:4]([H:13])([H:14])[H:15])([C:7]([H:19])([H:20])[H:21])[H:18])([H:16])[H:17])([H:11])[H:12])([H:8])([H:9])[H:10]"
C        2.20758341      -0.76367280       0.20605041
C        0.92180743      -0.88347924      -0.60970837
C        0.00466766       0.54642267       0.47934056
C        0.47804707       1.95561867       0.39273090
C       -0.65539056       0.01907562      -1.17017201
C       -1.40177794       0.29104098       0.10994816
C       -2.13829730      -0.85447644       0.76623659
H        2.83728148      -1.64262156       0.04487239
H        2.80253002       0.09973633      -0.09771763
H        1.96752077      -0.71137840       1.27082099
H        1.27907558      -0.99498950      -1.64413177
H        0.46723021      -1.84358981      -0.35769430
H        1.55174304       2.08621055       0.25816374
H        0.26007984       2.35494448       1.39084119
H       -0.05083260       2.56305113      -0.35400085
H       -0.49937255       0.84920145      -1.85231548
H       -1.06685387      -0.82835330      -1.70842713
H       -1.98372463       1.21284086       0.04980641
H       -2.38864231      -0.60649288       1.79954529
H       -1.53570775      -1.76295626       0.80546340
H       -3.05696700      -1.08613255       0.22034749
21
Frame=10 idx=010812 GeodesicLength=0.6359368837518354 rxn_smarts="[C:1]([C:2]([C@@:3]1([C:4]([H:13])([H:14])[H:15])[C:5]([H:16])([H:17])[C@:6]1([C:7]([H:19])([H:20])[H:21])[H:18])([H:11])[H:12])([H:8])([H:9])[H:10]>>[C:1]([C:2]([C:5]([C@:6]([C:3][C:4]([H:13])([H:14])[H:15])([C:7]([H:19])([H:20])[H:21])[H:18])([H:16])[H:17])([H:11])[H:12])([H:8])([H:9])[H:10]"
C        2.18544693      -0.78811374       0.22977756
C        0.91906885      -0.88052284      -0.61966245
C        0.01071418       0.56849677       0.46074498
C        0.47424860       1.97911368       0.37714103
C       -0.65795271       0.03096625      -1.18235726
C       -1.39500224       0.28992368       0.10872495
C       -2.10695804      -0.86563938       0.77393428
H        2.80826077      -1.67394644       0.08077967
H        2.80055285       0.06932122      -0.05019036
H        1.91468860      -0.74341394       1.28785088
H        1.29984016      -0.98090605      -1.64669908
H        0.45418657      -1.84274147      -0.39344429
H        1.54283456       2.11859997       0.21258447
H        0.28464027       2.36499051       1.38640683
H       -0.07979678       2.58762387      -0.34984897
H       -0.51246009       0.86655987      -1.86071332
H       -1.08189467      -0.80641273      -1.72717858
H       -1.98998383       1.20403786       0.05610491
H       -2.34759269      -0.62089330       1.81037011
H       -1.49446478      -1.76754235       0.80753051
H       -3.02837652      -1.10950143       0.23814411
21
Frame=11 idx=010812 GeodesicLength=0.7026222067185446 rxn_smarts="[C:1]([C:2]([C@@:3]1([C:4]([H:13])([H:14])[H:15])[C:5]([H:16])([H:17])[C@:6]1([C:7]([H:19])([H:20])[H:21])[H:18])([H:11])[H:12])([H:8])([H:9])[H:10]>>[C:1]([C:2]([C:5]([C@:6]([C:3][C:4]([H:13])([H:14])[H:15])([C:7]([H:19])([H:20])[H:21])[H:18])([H:16])[H:17])([H:11])[H:12])([H:8])([H:9])[H:10]"
C        2.16171767      -0.81244407       0.25349176
C        0.91663156      -0.87761629      -0.62952792
C        0.01700081       0.59045193       0.44213007
C        0.47046258       2.00255698       0.36153547
C       -0.66029130       0.04268654      -1.19442201
C       -1.38745722       0.28863639       0.10767781
C       -2.07459963      -0.87667557       0.78131990
H        2.77742258      -1.70502563       0.11670264
H        2.79612728       0.03874951      -0.00168939
H        1.85970673      -0.77490883       1.30362311
H        1.32139389      -0.96708078      -1.64821701
H        0.44198887      -1.84144146      -0.42946629
H        1.53279554       2.15138674       0.16621335
H        0.31058825       2.37486287       1.38113416
H       -0.10881064       2.61164699      -0.34461373
H       -0.52562285       0.88370924      -1.86887876
H       -1.09710254      -0.78447111      -1.74522847
H       -1.99541276       1.19480217       0.06277583
H       -2.30511113      -0.63527018       1.82087818
H       -1.45273392      -1.77218363       0.80871769
H       -2.99869377      -1.13237182       0.25584360
21
Frame=12 idx=010812 GeodesicLength=0.7705471927569932 rxn_smarts="[C:1]([C:2]([C@@:3]1([C:4]([H:13])([H:14])[H:15])[C:5]([H:16])([H:17])[C@:6]1([C:7]([H:19])([H:20])[H:21])[H:18])([H:11])[H:12])([H:8])([H:9])[H:10]>>[C:1]([C:2]([C:5]([C@:6]([C:3][C:4]([H:13])([H:14])[H:15])([C:7]([H:19])([H:20])[H:21])[H:18])([H:16])[H:17])([H:11])[H:12])([H:8])([H:9])[H:10]"
C        2.13643911      -0.83662056       0.27711466
C        0.91451182      -0.87478989      -0.63928661
C        0.02354767       0.61226330       0.42351431
C        0.46667660       2.02593101       0.34596439
C       -0.66238163       0.05422348      -1.20635241
C       -1.37911329       0.28717820       0.10680842
C       -2.04126104      -0.88758219       0.78835910
H        2.74476630      -1.73586196       0.15267864
H        2.78928026       0.00800610       0.04755534
H        1.80272983      -0.80565584       1.31805871
H        1.34368385      -0.95368473      -1.64865544
H        0.43063082      -1.83968860      -0.46560382
H        1.52151483       2.18467093       0.11922477
H        0.33785960       2.38455781       1.37496495
H       -0.13782580       2.63507126      -0.33822952
H       -0.53881774       0.90063500      -1.87678219
H       -1.11246233      -0.76253294      -1.76254978
H       -1.99996450       1.18513497       0.06981786
H       -2.26116033      -0.64965695       1.83104725
H       -1.41063959      -1.77695003       0.80891010
H       -2.96801445      -1.15464838       0.27344125
21
Frame=13 idx=010812 GeodesicLength=0.8399235407641372 rxn_smarts="[C:1]([C:2]([C@@:3]1([C:4]([H:13])([H:14])[H:15])[C:5]([H:16])([H:17])[C@:6]1([C:7]([H:19])([H:20])[H:21])[H:18])([H:11])[H:12])([H:8])([H:9])[H:10]>>[C:1]([C:2]([C:5]([C@:6]([C:3][C:4]([H:13])([H:14])[H:15])([C:7]([H:19])([H:20])[H:21])[H:18])([H:16])[H:17])([H:11])[H:12])([H:8])([H:9])[H:10]"
C        2.10966799      -0.86059847       0.30058040
C        0.91272902      -0.87207471      -0.64892170
C        0.03037954       0.63390106       0.40491276
C        0.46287385       2.04921786       0.33047997
C       -0.66419793       0.06556271      -1.21813646
C       -1.36994664       0.28554853       0.10611614
C       -2.00698845      -0.89835767       0.79502496
H        2.71027804      -1.76644771       0.18871183
H        2.78005729      -0.02292289       0.09733806
H        1.74394098      -0.83545582       1.33110447
H        1.36667223      -0.94088373      -1.64797414
H        0.42009854      -1.83751758      -0.50172897
H        1.50888148       2.21854942       0.07178401
H        0.36636473       2.39412163       1.36781937
H       -0.16678577       2.65783461      -0.33061983
H       -0.55199776       0.91732224      -1.88439455
H       -1.12795642      -0.74059895      -1.77912082
H       -2.00359880       1.17504222       0.07722756
H       -2.21569294      -0.66409320       1.84085981
H       -1.36833430      -1.78192406       0.80799504
H       -2.93644469      -1.17622548       0.29094210
21
Frame=14 idx=010812 GeodesicLength=0.9109773529099836 rxn_smarts="[C:1]([C:2]([C@@:3]1([C:4]([H:13])([H:14])[H:15])[C:5]([H:16])([H:17])[C@:6]1([C:7]([H:19])([H:20])[H:21])[H:18])([H:11])[H:12])([H:8])([H:9])[H:10]>>[C:1]([C:2]([C:5]([C@:6]([C:3][C:4]([H:13])([H:14])[H:15])([C:7]([H:19])([H:20])[H:21])[H:18])([H:16])[H:17])([H:11])[H:12])([H:8])([H:9])[H:10]"
C        2.08145654      -0.88435383       0.32383771
C        0.91130627      -0.86949551      -0.65840697
C        0.03751641       0.65534553       0.38634133
C        0.45903685       2.07239950       0.31513014
C       -0.66571279       0.07668925      -1.22976260
C       -1.35993547       0.28375171       0.10559455
C       -1.97184252      -0.90899926       0.80128477
H        2.67396346      -1.79680038       0.22480568
H        2.76850886      -0.05403296       0.14745186
H        1.68355213      -0.86411901       1.34272873
H        1.39032551      -0.92882567      -1.64612683
H        0.41039247      -1.83493432      -0.53770280
H        1.49476808       2.25312222       0.02399566
H        0.39607264       2.40354554       1.35965176
H       -0.19568541       2.67989744      -0.32170636
H       -0.56511378       0.93375300      -1.89169047
H       -1.14355785      -0.71868155      -1.79491846
H       -2.00627837       1.16453209       0.08499092
H       -2.16868682      -0.67860556       1.85029171
H       -1.32596837      -1.78717943       0.80586146
H       -2.90411783      -1.19700878       0.30834821
21
Frame=15 idx=010812 GeodesicLength=0.9839613344714577 rxn_smarts="[C:1]([C:2]([C@@:3]1([C:4]([H:13])([H:14])[H:15])[C:5]([H:16])([H:17])[C@:6]1([C:7]([H:19])([H:20])[H:21])[H:18])([H:11])[H:12])([H:8])([H:9])[H:10]>>[C:1]([C:2]([C:5]([C@:6]([C:3][C:4]([H:13])([H:14])[H:15])([C:7]([H:19])([H:20])[H:21])[H:18])([H:16])[H:17])([H:11])[H:12])([H:8])([H:9])[H:10]"
C        2.05187093      -0.90785864       0.34684267
C        0.91026536      -0.86707417      -0.66772165
C        0.04498327       0.67657897       0.36780719
C        0.45514706       2.09546314       0.29995247
C       -0.66690203       0.08759061      -1.24122401
C       -1.34906268       0.28179131       0.10523705
C       -1.93588029      -0.91950945       0.80711529
H        2.63580289      -1.82693231       0.26097115
H        2.75470139      -0.08532202       0.19773444
H        1.62176536      -0.89147878       1.35292411
H        1.41462145      -0.91763706      -1.64306990
H        0.40150587      -1.83196832      -0.57343151
H        1.47904263       2.28848150      -0.02404962
H        0.42694483       2.41286125       1.35038617
H       -0.22451103       2.70120995      -0.31140371
H       -0.57812357       0.94991406      -1.89864839
H       -1.15924087      -0.69678539      -1.80992408
H       -2.00796663       1.15361389       0.09310065
H       -2.12009543      -0.69323409       1.85932597
H       -1.28370340      -1.79280216       0.80240100
H       -2.87116510      -1.21690228       0.32567470
21
Frame=16 idx=010812 GeodesicLength=1.0591450062493482 rxn_smarts="[C:1]([C:2]([C@@:3]1([C:4]([H:13])([H:14])[H:15])[C:5]([H:16])([H:17])[C@:6]1([C:7]([H:19])([H:20])[H:21])[H:18])([H:11])[H:12])([H:8])([H:9])[H:10]>>[C:1]([C:2]([C:5]([C@:6]([C:3][C:4]([H:13])([H:14])[H:15])([C:7]([H:19])([H:20])[H:21])[H:18])([H:16])[H:17])([H:11])[H:12])([H:8])([H:9])[H:10]"
C        2.02099341      -0.93108905       0.36956723
C        0.90962586      -0.86483460      -0.67684154
C        0.05280161       0.69758281       0.34931694
C        0.45118717       2.11839483       0.28498095
C       -0.66774336       0.09825241      -1.25251344
C       -1.33731324       0.27967169       0.10503559
C       -1.89917182      -0.92988826       0.81248664
H        2.59582464      -1.85684911       0.29720400
H        2.73872513      -0.11676755       0.24803473
H        1.55878763      -0.91740460       1.36171490
H        1.43953490      -0.90743474      -1.63876694
H        0.39342141      -1.82866272      -0.60882998
H        1.46156119       2.32471075      -0.07228044
H        0.45896872       2.42211355       1.33993661
H       -0.25326659       2.72172362      -0.29960937
H       -0.59098544       0.96579353      -1.90524812
H       -1.17498105      -0.67491801      -1.82411796
H       -2.00863084       1.14230127       0.10154363
H       -2.06989412      -0.70801070       1.86793926
H       -1.24171417      -1.79887283       0.79751181
H       -2.83773107      -1.23581229       0.34293551
