11
Frame=0 idx=000625 GeodesicLength=0.0 rxn_smarts="[O:1]([C:2]([C:3]([C:4](=[O:5])[H:11])([H:9])[H:10])([H:7])[H:8])[H:6]>>[C:3]([C:4](=[O:5])[H:11])([H:7])([H:9])[H:10].[O:1]([C:2][H:8])[H:6]"
O       -1.97609127       0.69081921      -0.57220885
C       -1.27566910       0.38907801       0.51246015
C        0.57007839      -0.75866454      -0.21454652
C        1.55472622       0.26042504       0.16855501
O        2.20313156       0.22983409       1.18783754
H       -2.62320787      -0.00235504      -0.73695019
H       -0.56938926      -0.65392905       0.50223782
H       -0.62995362       1.24068882       0.75673517
H        0.30044775      -0.76987898      -1.26717033
H        0.79667633      -1.74455642       0.19259435
H        1.64925089       1.11853881      -0.52954413
11
Frame=1 idx=000625 GeodesicLength=0.1180941029766988 rxn_smarts="[O:1]([C:2]([C:3]([C:4](=[O:5])[H:11])([H:9])[H:10])([H:7])[H:8])[H:6]>>[C:3]([C:4](=[O:5])[H:11])([H:7])([H:9])[H:10].[O:1]([C:2][H:8])[H:6]"
O       -1.92905352       0.74361221      -0.54787668
C       -1.27808806       0.34661331       0.53252421
C        0.57872572      -0.78873363      -0.19659439
C        1.53955204       0.27447365       0.12838455
O        2.18627797       0.31570130       1.14803950
H       -2.60901002       0.13943527      -0.85756970
H       -0.57629574      -0.72469657       0.50904132
H       -0.66468361       1.18152374       0.89253518
H        0.30834155      -0.84812225      -1.24790717
H        0.85381400      -1.74913745       0.24053900
H        1.59041969       1.10933042      -0.60111582
11
Frame=2 idx=000625 GeodesicLength=0.23304243301073999 rxn_smarts="[O:1]([C:2]([C:3]([C:4](=[O:5])[H:11])([H:9])[H:10])([H:7])[H:8])[H:6]>>[C:3]([C:4](=[O:5])[H:11])([H:7])([H:9])[H:10].[O:1]([C:2][H:8])[H:6]"
O       -1.89233893       0.78720376      -0.51289469
C       -1.28068805       0.30785299       0.55280526
C        0.58569756      -0.81616034      -0.17872300
C        1.52025943       0.28775373       0.08959603
O        2.16652717       0.39594505       1.10429615
H       -2.56578027       0.28285425      -0.97380745
H       -0.58290618      -0.79226878       0.51685703
H       -0.70385010       1.12018418       1.01281372
H        0.31563916      -0.92093735      -1.22708335
H        0.90696115      -1.74887083       0.28601946
H        1.53047906       1.09644333      -0.66987917
11
Frame=3 idx=000625 GeodesicLength=0.347748743383658 rxn_smarts="[O:1]([C:2]([C:3]([C:4](=[O:5])[H:11])([H:9])[H:10])([H:7])[H:8])[H:6]>>[C:3]([C:4](=[O:5])[H:11])([H:7])([H:9])[H:10].[O:1]([C:2][H:8])[H:6]"
O       -1.85748520       0.81427227      -0.48545849
C       -1.28169123       0.26789080       0.56398990
C        0.59780797      -0.84390380      -0.16089466
C        1.50074140       0.29973975       0.05358295
O        2.13832827       0.47635238       1.06386338
H       -2.53302744       0.45109807      -1.05864896
H       -0.58632022      -0.86103747       0.51909913
H       -0.74913276       1.05599290       1.11247301
H        0.33485382      -0.99458288      -1.20598951
H        0.96274884      -1.74508366       0.33284305
H        1.47317654       1.07926163      -0.73485980
11
Frame=4 idx=000625 GeodesicLength=0.4592091699214701 rxn_smarts="[O:1]([C:2]([C:3]([C:4](=[O:5])[H:11])([H:9])[H:10])([H:7])[H:8])[H:6]>>[C:3]([C:4](=[O:5])[H:11])([H:7])([H:9])[H:10].[O:1]([C:2][H:8])[H:6]"
O       -1.83053597       0.82839686      -0.46050145
C       -1.28191768       0.22968324       0.57139347
C        0.61100837      -0.87018790      -0.14335454
C        1.48026416       0.30995845       0.01897146
O        2.10625337       0.55207135       1.02262976
H       -2.49003330       0.62806152      -1.12373122
H       -0.58736480      -0.92826092       0.52068657
H       -0.80012894       0.99429845       1.19596176
H        0.35932657      -1.06564199      -1.18434102
H        1.01686990      -1.73763740       0.37799423
H        1.41625832       1.05925833      -0.79570904
11
Frame=5 idx=000625 GeodesicLength=0.5645855620235943 rxn_smarts="[O:1]([C:2]([C:3]([C:4](=[O:5])[H:11])([H:9])[H:10])([H:7])[H:8])[H:6]>>[C:3]([C:4](=[O:5])[H:11])([H:7])([H:9])[H:10].[O:1]([C:2][H:8])[H:6]"
O       -1.82076413       0.83025869      -0.43088306
C       -1.28333844       0.19502972       0.58201010
C        0.62055709      -0.89272001      -0.12676766
C        1.45621022       0.31956969      -0.01548148
O        2.07814907       0.61781657       0.97520665
H       -2.40743693       0.79844000      -1.18359010
H       -0.58715470      -0.99176658       0.52763841
H       -0.85695463       0.93945691       1.26905199
H        0.38050966      -1.12974351      -1.16240811
H        1.06594048      -1.72663107       0.41654256
H        1.35428230       1.04028960      -0.85131929
11
Frame=6 idx=000625 GeodesicLength=0.6652049800123908 rxn_smarts="[O:1]([C:2]([C:3]([C:4](=[O:5])[H:11])([H:9])[H:10])([H:7])[H:8])[H:6]>>[C:3]([C:4](=[O:5])[H:11])([H:7])([H:9])[H:10].[O:1]([C:2][H:8])[H:6]"
O       -1.81930356       0.81529576      -0.41542776
C       -1.28513840       0.16203170       0.58573839
C        0.63152687      -0.91409893      -0.10975896
C        1.43175811       0.32765064      -0.04814994
O        2.05263574       0.67651742       0.92628112
H       -2.31840428       0.97961261      -1.21200186
H       -0.58387630      -1.05333021       0.53586930
H       -0.92315427       0.89178026       1.32427120
H        0.40835727      -1.19261947      -1.13940879
H        1.11370780      -1.71308953       0.45419023
H        1.29189101       1.02024975      -0.90160293
11
Frame=7 idx=000625 GeodesicLength=0.7606788659230379 rxn_smarts="[O:1]([C:2]([C:3]([C:4](=[O:5])[H:11])([H:9])[H:10])([H:7])[H:8])[H:6]>>[C:3]([C:4](=[O:5])[H:11])([H:7])([H:9])[H:10].[O:1]([C:2][H:8])[H:6]"
O       -1.82309907       0.78714106      -0.41896744
C       -1.28747904       0.13241527       0.58036120
C        0.64346237      -0.93419871      -0.09286625
C        1.40797205       0.33361724      -0.07985220
O        2.02757605       0.72970570       0.87702237
H       -2.22315127       1.16458175      -1.19841259
H       -0.57866116      -1.11192142       0.54404551
H       -0.99970095       0.85191511       1.36102765
H        0.44287543      -1.25436215      -1.11564576
H        1.15869353      -1.69702887       0.49150501
H        1.23151206       0.99813502      -0.94821751
11
Frame=8 idx=000625 GeodesicLength=0.8547331870847943 rxn_smarts="[O:1]([C:2]([C:3]([C:4](=[O:5])[H:11])([H:9])[H:10])([H:7])[H:8])[H:6]>>[C:3]([C:4](=[O:5])[H:11])([H:7])([H:9])[H:10].[O:1]([C:2][H:8])[H:6]"
O       -1.82109335       0.76937565      -0.43370852
C       -1.28937945       0.11042948       0.56671289
C        0.65473848      -0.95248067      -0.07742181
C        1.38678101       0.33643737      -0.11306806
O        1.99352504       0.78291370       0.82970008
H       -2.12280893       1.32757969      -1.14735433
H       -0.57620041      -1.16616405       0.54524456
H       -1.08211204       0.81248694       1.38827390
H        0.48166016      -1.31435612      -1.09193774
H        1.19826896      -1.67731285       0.52930036
H        1.17662055       0.97109086      -0.99574133
11
Frame=9 idx=000625 GeodesicLength=0.954534052436086 rxn_smarts="[O:1]([C:2]([C:3]([C:4](=[O:5])[H:11])([H:9])[H:10])([H:7])[H:8])[H:6]>>[C:3]([C:4](=[O:5])[H:11])([H:7])([H:9])[H:10].[O:1]([C:2][H:8])[H:6]"
O       -1.81760667       0.76697332      -0.44776581
C       -1.29278596       0.09340339       0.55015068
C        0.66372765      -0.96752428      -0.06323099
C        1.36536799       0.33836826      -0.15029749
O        1.94917237       0.83973114       0.77920792
H       -1.99730164       1.46590493      -1.07520164
H       -0.57688447      -1.21771737       0.54085654
H       -1.17093456       0.76514366       1.41379952
H        0.52120836      -1.37216582      -1.06695960
H        1.23273311      -1.65122552       0.56750087
H        1.12330381       0.93910829      -1.04805999
11
Frame=10 idx=000625 GeodesicLength=1.0621703755957725 rxn_smarts="[O:1]([C:2]([C:3]([C:4](=[O:5])[H:11])([H:9])[H:10])([H:7])[H:8])[H:6]>>[C:3]([C:4](=[O:5])[H:11])([H:7])([H:9])[H:10].[O:1]([C:2][H:8])[H:6]"
O       -1.80386550       0.78394349      -0.46503928
C       -1.29708605       0.07996603       0.52610273
C        0.67325066      -0.98088244      -0.04772319
C        1.34579534       0.33790183      -0.19239734
O        1.89375339       0.90192855       0.72284049
H       -1.86856314       1.59353302      -0.97361077
H       -0.58005953      -1.26799595       0.52826992
H       -1.26828954       0.70453171       1.43305315
H        0.56746826      -1.43294412      -1.03632611
H        1.26303783      -1.61691409       0.61319001
H        1.07455827       0.89693196      -1.10835961
11
Frame=11 idx=000625 GeodesicLength=1.1774841496621147 rxn_smarts="[O:1]([C:2]([C:3]([C:4](=[O:5])[H:11])([H:9])[H:10])([H:7])[H:8])[H:6]>>[C:3]([C:4](=[O:5])[H:11])([H:7])([H:9])[H:10].[O:1]([C:2][H:8])[H:6]"
O       -1.77912938       0.82148621      -0.48135295
C       -1.30234245       0.07017613       0.49576865
C        0.68304257      -0.99164953      -0.03030650
C        1.32830537       0.33507463      -0.23908649
O        1.83250444       0.96627591       0.65720829
H       -1.73935736       1.70904170      -0.84645930
H       -0.58519525      -1.31675580       0.50782400
H       -1.37558374       0.62961947       1.44285908
H        0.62065281      -1.49532697      -0.99814666
H        1.28805829      -1.57312564       0.66627439
H        1.02904470       0.84518387      -1.17458252
11
Frame=12 idx=000625 GeodesicLength=1.2993449866025133 rxn_smarts="[O:1]([C:2]([C:3]([C:4](=[O:5])[H:11])([H:9])[H:10])([H:7])[H:8])[H:6]>>[C:3]([C:4](=[O:5])[H:11])([H:7])([H:9])[H:10].[O:1]([C:2][H:8])[H:6]"
O       -1.74619311       0.87779078      -0.49085404
C       -1.30922836       0.06410635       0.46144742
C        0.69208683      -0.99836716      -0.01100596
C        1.31229982       0.33058464      -0.28942791
O        1.77363927       1.02826652       0.58025185
H       -1.60719455       1.80735434      -0.70055668
H       -0.59142654      -1.36338225       0.48112453
H       -1.49343181       0.54177004       1.43890058
H        0.67926943      -1.55599291      -0.95157612
H        1.30663289      -1.51919187       0.72430486
H        0.98354614       0.78706153      -1.24260852
11
Frame=13 idx=000625 GeodesicLength=1.4261609357415497 rxn_smarts="[O:1]([C:2]([C:3]([C:4](=[O:5])[H:11])([H:9])[H:10])([H:7])[H:8])[H:6]>>[C:3]([C:4](=[O:5])[H:11])([H:7])([H:9])[H:10].[O:1]([C:2][H:8])[H:6]"
O       -1.70555967       0.95016082      -0.49009785
C       -1.31807546       0.06182548       0.42379956
C        0.69992514      -1.00030389       0.01034191
C        1.29741092       0.32437432      -0.34320176
O        1.72533610       1.08432615       0.49066596
H       -1.47451644       1.88648844      -0.53708661
H       -0.59757600      -1.40737184       0.44998644
H       -1.62285956       0.44330522       1.41454421
H        0.74249106      -1.61309073      -0.89523498
H        1.31813557      -1.45454287       0.78580879
H        0.93528835       0.72482890      -1.30952565
11
Frame=14 idx=000625 GeodesicLength=1.5559188740158312 rxn_smarts="[O:1]([C:2]([C:3]([C:4](=[O:5])[H:11])([H:9])[H:10])([H:7])[H:8])[H:6]>>[C:3]([C:4](=[O:5])[H:11])([H:7])([H:9])[H:10].[O:1]([C:2][H:8])[H:6]"
O       -1.65808681       1.03468230      -0.47571213
C       -1.32981175       0.06278451       0.38328493
C        0.70589507      -0.99683170       0.03353452
C        1.28263620       0.31648561      -0.39995542
O        1.69393347       1.13171792       0.38890766
H       -1.34265795       1.94232537      -0.35756436
H       -0.60230440      -1.44850097       0.41751082
H       -1.76182100       0.33912121       1.36294887
H        0.80810202      -1.66410052      -0.82869735
H        1.32257906      -1.37914239       0.84820341
H        0.88153610       0.66145866      -1.37246095
11
Frame=15 idx=000625 GeodesicLength=1.6871954142220442 rxn_smarts="[O:1]([C:2]([C:3]([C:4](=[O:5])[H:11])([H:9])[H:10])([H:7])[H:8])[H:6]>>[C:3]([C:4](=[O:5])[H:11])([H:7])([H:9])[H:10].[O:1]([C:2][H:8])[H:6]"
O       -1.60396030       1.12710179      -0.44411668
C       -1.34486426       0.06639533       0.33996744
C        0.70957508      -0.98783624       0.05791026
C        1.26704614       0.30672251      -0.45924862
O        1.67869855       1.16977492       0.27688637
H       -1.21151478       1.96961303      -0.16415094
H       -0.60432500      -1.48684672       0.38752664
H       -1.90568795       0.23629504       1.27924629
H        0.87336004      -1.70677381      -0.75284605
H        1.32090105      -1.29359762       0.90834058
H        0.82077144       0.59915178      -1.42951531
11
Frame=16 idx=000625 GeodesicLength=1.8194114666527272 rxn_smarts="[O:1]([C:2]([C:3]([C:4](=[O:5])[H:11])([H:9])[H:10])([H:7])[H:8])[H:6]>>[C:3]([C:4](=[O:5])[H:11])([H:7])([H:9])[H:10].[O:1]([C:2][H:8])[H:6]"
O       -1.54296360       1.22216005      -0.39258757
C       -1.36322658       0.07219431       0.29307523
C        0.71085388      -0.97364741       0.08248420
C        1.25002084       0.29505541      -0.52002520
O        1.67254495       1.19942273       0.15825909
H       -1.08060606       1.96189364       0.03884572
H       -0.60263804      -1.52248548       0.36471963
H       -2.04731007       0.14454023       1.16217891
H        0.93511736      -1.73908334      -0.67038176
H        1.31500204      -1.19980011       0.96260233
H        0.75320527       0.53974999      -1.47917058
