17
Frame=0 idx=010098 GeodesicLength=0.0 rxn_smarts="[C:1]([C@@:2]1([H:11])[C:3]([H:12])([H:13])[C@:4]1([C:5]([C:6](=[O:7])[H:17])([H:15])[H:16])[H:14])([H:8])([H:9])[H:10]>>[C:1]([C@@:2]1([H:11])[C:3]([H:12])([H:13])[C@:4]1(/[C:5](=[C:6](\[O:7][H:16])[H:17])[H:15])[H:14])([H:8])([H:9])[H:10]"
C       -2.04902883      -0.25641042       0.13743894
C       -1.09041740       0.76707667      -0.41018258
C       -0.04299172       1.38611694       0.46375545
C        0.36483841       0.45382463      -0.64565149
C        0.91433325      -0.94070433      -0.42286429
C        2.22820812      -1.05053791       0.09037802
O        2.25565328      -0.78942835       1.33613711
H       -2.88090582       0.22827091       0.65320730
H       -1.55553752      -0.92346601       0.84493305
H       -2.46495995      -0.87232296      -0.66366845
H       -1.52608499       1.42690338      -1.15319588
H        0.18226452       2.43843194       0.35106814
H        0.02787078       1.02811864       1.48354998
H        0.77852114       0.95657368      -1.51634016
H        0.66343502      -1.61075458      -1.24526574
H        1.04010193      -0.87512549       1.09321531
H        3.15469980      -1.36656679      -0.39651467
17
Frame=1 idx=010098 GeodesicLength=0.04931154670323847 rxn_smarts="[C:1]([C@@:2]1([H:11])[C:3]([H:12])([H:13])[C@:4]1([C:5]([C:6](=[O:7])[H:17])([H:15])[H:16])[H:14])([H:8])([H:9])[H:10]>>[C:1]([C@@:2]1([H:11])[C:3]([H:12])([H:13])[C@:4]1(/[C:5](=[C:6](\[O:7][H:16])[H:17])[H:15])[H:14])([H:8])([H:9])[H:10]"
C       -2.05145404      -0.25861567       0.12927574
C       -1.09175758       0.76779957      -0.41122941
C       -0.05089971       1.38719664       0.47038140
C        0.36531334       0.45765705      -0.63833407
C        0.91508001      -0.93473927      -0.41193304
C        2.23899727      -1.04277739       0.07642589
O        2.29104277      -0.76825016       1.31886795
H       -2.88862321       0.22356168       0.63874941
H       -1.56184588      -0.92385590       0.84126957
H       -2.45947643      -0.87599235      -0.67475657
H       -1.52466932       1.42883070      -1.15473671
H        0.17270151       2.44030429       0.36178923
H        0.01117626       1.02813013       1.49042812
H        0.78534164       0.96269791      -1.50450204
H        0.65363124      -1.61341077      -1.22402348
H        1.05584529      -0.85426020       1.10428852
H        3.13959684      -1.42427628      -0.41196053
17
Frame=2 idx=010098 GeodesicLength=0.09849932139271221 rxn_smarts="[C:1]([C@@:2]1([H:11])[C:3]([H:12])([H:13])[C@:4]1([C:5]([C:6](=[O:7])[H:17])([H:15])[H:16])[H:14])([H:8])([H:9])[H:10]>>[C:1]([C@@:2]1([H:11])[C:3]([H:12])([H:13])[C@:4]1(/[C:5](=[C:6](\[O:7][H:16])[H:17])[H:15])[H:14])([H:8])([H:9])[H:10]"
C       -2.05361015      -0.26091886       0.12113454
C       -1.09292577       0.76848596      -0.41221567
C       -0.05856567       1.38810124       0.47698166
C        0.36587837       0.46144925      -0.63115668
C        0.91602616      -0.92878572      -0.40118984
C        2.24969061      -1.03558507       0.06172263
O        2.32642002      -0.74697461       1.30010862
H       -2.89597447       0.21870045       0.62439727
H       -1.56789134      -0.92443415       0.83749622
H       -2.45379126      -0.87964654      -0.68578997
H       -1.52316741       1.43081708      -1.15607223
H        0.16333348       2.44200867       0.37257665
H       -0.00518433       1.02781776       1.49714660
H        0.79213822       0.96886973      -1.49273251
H        0.64386010      -1.61604400      -1.20259212
H        1.07189653      -0.83329816       1.11485683
H        3.12186691      -1.48056303      -0.42467201
17
Frame=3 idx=010098 GeodesicLength=0.14757473678247474 rxn_smarts="[C:1]([C@@:2]1([H:11])[C:3]([H:12])([H:13])[C@:4]1([C:5]([C:6](=[O:7])[H:17])([H:15])[H:16])[H:14])([H:8])([H:9])[H:10]>>[C:1]([C@@:2]1([H:11])[C:3]([H:12])([H:13])[C@:4]1(/[C:5](=[C:6](\[O:7][H:16])[H:17])[H:15])[H:14])([H:8])([H:9])[H:10]"
C       -2.05548175      -0.26329579       0.11300888
C       -1.09389745       0.76913413      -0.41315634
C       -0.06598239       1.38879946       0.48357133
C        0.36652981       0.46515859      -0.62411396
C        0.91710576      -0.92291023      -0.39060208
C        2.26016051      -1.02914701       0.04629536
O        2.36173410      -0.72568067       1.27984115
H       -2.90293889       0.21373519       0.61011827
H       -1.57369302      -0.92517686       0.83365439
H       -2.44786493      -0.88326743      -0.69679159
H       -1.52152414       1.43286921      -1.15725094
H        0.15417970       2.44350897       0.38343689
H       -0.02121845       1.02714648       1.50374894
H        0.79892878       0.97503306      -1.48104167
H        0.63404402      -1.61869396      -1.18094258
H        1.08823662      -0.81226305       1.12498144
H        3.10168174      -1.53495009      -0.43475750
17
Frame=4 idx=010098 GeodesicLength=0.19660636606866833 rxn_smarts="[C:1]([C@@:2]1([H:11])[C:3]([H:12])([H:13])[C@:4]1([C:5]([C:6](=[O:7])[H:17])([H:15])[H:16])[H:14])([H:8])([H:9])[H:10]>>[C:1]([C@@:2]1([H:11])[C:3]([H:12])([H:13])[C@:4]1(/[C:5](=[C:6](\[O:7][H:16])[H:17])[H:15])[H:14])([H:8])([H:9])[H:10]"
C       -2.05719355      -0.26568529       0.10485148
C       -1.09468545       0.76971129      -0.41402596
C       -0.07311595       1.38918900       0.49015575
C        0.36726855       0.46868501      -0.61712794
C        0.91822847      -0.91717799      -0.38007220
C        2.27031683      -1.02361375       0.03016311
O        2.39703058      -0.70428550       1.25787130
H       -2.90963307       0.20875668       0.59581722
H       -1.57942886      -0.92601847       0.82965669
H       -2.44186645      -0.88674144      -0.70778236
H       -1.51969294       1.43494812      -1.15820616
H        0.14535224       2.44464938       0.39440164
H       -0.03694806       1.02603964       1.51017950
H        0.80579275       0.98103911      -1.46927649
H        0.62403695      -1.62140711      -1.15889997
H        1.10489628      -0.79109242       1.13465072
H        3.07964168      -1.58699625      -0.44235631
17
Frame=5 idx=010098 GeodesicLength=0.24559926289247563 rxn_smarts="[C:1]([C@@:2]1([H:11])[C:3]([H:12])([H:13])[C@:4]1([C:5]([C:6](=[O:7])[H:17])([H:15])[H:16])[H:14])([H:8])([H:9])[H:10]>>[C:1]([C@@:2]1([H:11])[C:3]([H:12])([H:13])[C@:4]1(/[C:5](=[C:6](\[O:7][H:16])[H:17])[H:15])[H:14])([H:8])([H:9])[H:10]"
C       -2.05875397      -0.26804919       0.09670610
C       -1.09530504       0.77025382      -0.41486390
C       -0.07999158       1.38934640       0.49672473
C        0.36807964       0.47199947      -0.61022965
C        0.91936486      -0.91170754      -0.36958613
C        2.28004709      -1.01913864       0.01348593
O        2.43210810      -0.68321924       1.23444292
H       -2.91605944       0.20387473       0.58155441
H       -1.58510671      -0.92694362       0.82561630
H       -2.43579377      -0.89009492      -0.71873526
H       -1.51768870       1.43709835      -1.15905757
H        0.13683499       2.44554537       0.40540110
H       -0.05236582       1.02458363       1.51649971
H        0.81271118       0.98683522      -1.45754208
H        0.61390735      -1.62429657      -1.13653304
H        1.12171758      -0.76993292       1.14397392
H        3.05629422      -1.63615436      -0.44785748
17
Frame=6 idx=010098 GeodesicLength=0.29459029060563896 rxn_smarts="[C:1]([C@@:2]1([H:11])[C:3]([H:12])([H:13])[C@:4]1([C:5]([C:6](=[O:7])[H:17])([H:15])[H:16])[H:14])([H:8])([H:9])[H:10]>>[C:1]([C@@:2]1([H:11])[C:3]([H:12])([H:13])[C@:4]1(/[C:5](=[C:6](\[O:7][H:16])[H:17])[H:15])[H:14])([H:8])([H:9])[H:10]"
C       -2.06018454      -0.27039444       0.08852979
C       -1.09574439       0.77075012      -0.41565966
C       -0.08664233       1.38925363       0.50330436
C        0.36897130       0.47511123      -0.60335221
C        0.92047553      -0.90645753      -0.35904291
C        2.28928479      -1.01567060      -0.00374047
O        2.46701346      -0.66246069       1.20945123
H       -2.92227732       0.19905949       0.56720122
H       -1.59080740      -0.92791758       0.82152108
H       -2.42960480      -0.89334285      -0.72968736
H       -1.51544589       1.43928911      -1.15979827
H        0.12860529       2.44616064       0.41647369
H       -0.06753663       1.02275447       1.52271118
H        0.81973735       0.99242374      -1.44574004
H        0.60356107      -1.62733615      -1.11364920
H        1.13877530      -0.74863485       1.15298225
H        3.03181919      -1.68258775      -0.45150468
17
Frame=7 idx=010098 GeodesicLength=0.34369882827465514 rxn_smarts="[C:1]([C@@:2]1([H:11])[C:3]([H:12])([H:13])[C@:4]1([C:5]([C:6](=[O:7])[H:17])([H:15])[H:16])[H:14])([H:8])([H:9])[H:10]>>[C:1]([C@@:2]1([H:11])[C:3]([H:12])([H:13])[C@:4]1(/[C:5](=[C:6](\[O:7][H:16])[H:17])[H:15])[H:14])([H:8])([H:9])[H:10]"
C       -2.06153501      -0.27271873       0.08025926
C       -1.09605929       0.77123221      -0.41641442
C       -0.09313591       1.38894367       0.50996215
C        0.36991885       0.47804711      -0.59645748
C        0.92157505      -0.90142191      -0.34838323
C        2.29806351      -1.01322087      -0.02155806
O        2.50193023      -0.64193131       1.18275680
H       -2.92839739       0.19431392       0.55262685
H       -1.59658042      -0.92892252       0.81735788
H       -2.42328958      -0.89651518      -0.74074093
H       -1.51302980       1.44157309      -1.16044043
H        0.12056575       2.44654946       0.42772824
H       -0.08251661       1.02056134       1.52888884
H        0.82685451       0.99784837      -1.43381482
H        0.59294663      -1.63056771      -1.09012237
H        1.15627012      -0.72706491       1.16171273
H        3.00641937      -1.72670605      -0.45336100
17
Frame=8 idx=010098 GeodesicLength=0.3928939486239614 rxn_smarts="[C:1]([C@@:2]1([H:11])[C:3]([H:12])([H:13])[C@:4]1([C:5]([C:6](=[O:7])[H:17])([H:15])[H:16])[H:14])([H:8])([H:9])[H:10]>>[C:1]([C@@:2]1([H:11])[C:3]([H:12])([H:13])[C@:4]1(/[C:5](=[C:6](\[O:7][H:16])[H:17])[H:15])[H:14])([H:8])([H:9])[H:10]"
C       -2.06278944      -0.27504265       0.07187060
C       -1.09622171       0.77168046      -0.41710225
C       -0.09948687       1.38835150       0.51670867
C        0.37092292       0.48082558      -0.58951882
C        0.92264415      -0.89652087      -0.33758104
C        2.30630241      -1.01171114      -0.04003752
O        2.53682674      -0.62142607       1.15407767
H       -2.93438849       0.18957006       0.53780737
H       -1.60245251      -0.92998436       0.81305574
H       -2.41681994      -0.89956653      -0.75191100
H       -1.51037012       1.44393945      -1.16090971
H        0.11271402       2.44661626       0.43921226
H       -0.09736718       1.01791022       1.53499906
H        0.83409630       1.00315314      -1.42168978
H        0.58202994      -1.63388493      -1.06583673
H        1.17426003      -0.70509008       1.17008369
H        2.98009974      -1.76882006      -0.45322821
17
Frame=9 idx=010098 GeodesicLength=0.44219711523767824 rxn_smarts="[C:1]([C@@:2]1([H:11])[C:3]([H:12])([H:13])[C@:4]1([C:5]([C:6](=[O:7])[H:17])([H:15])[H:16])[H:14])([H:8])([H:9])[H:10]>>[C:1]([C@@:2]1([H:11])[C:3]([H:12])([H:13])[C@:4]1(/[C:5](=[C:6](\[O:7][H:16])[H:17])[H:15])[H:14])([H:8])([H:9])[H:10]"
C       -2.06396126      -0.27734444       0.06339427
C       -1.09627013       0.77211674      -0.41774903
C       -0.10571668       1.38756627       0.52352922
C        0.37197560       0.48345225      -0.58254726
C        0.92370307      -0.89179484      -0.32663571
C        2.31396968      -1.01117314      -0.05902842
O        2.57156293      -0.60138534       1.12367045
H       -2.94027713       0.18489189       0.52276394
H       -1.60840110      -0.93106351       0.80869274
H       -2.41021191      -0.90254753      -0.76316345
H       -1.50754628       1.44638228      -1.16128688
H        0.10500521       2.44647533       0.45086244
H       -0.11204302       1.01492029       1.54106688
H        0.84142368       1.00831240      -1.40942090
H        0.57090756      -1.63731753      -1.04085402
H        1.19263419      -0.68279812       1.17814073
H        2.95324559      -1.80869299      -0.45143499
17
Frame=10 idx=010098 GeodesicLength=0.4915395810834505 rxn_smarts="[C:1]([C@@:2]1([H:11])[C:3]([H:12])([H:13])[C@:4]1([C:5]([C:6](=[O:7])[H:17])([H:15])[H:16])[H:14])([H:8])([H:9])[H:10]>>[C:1]([C@@:2]1([H:11])[C:3]([H:12])([H:13])[C@:4]1(/[C:5](=[C:6](\[O:7][H:16])[H:17])[H:15])[H:14])([H:8])([H:9])[H:10]"
C       -2.06503484      -0.27961706       0.05487730
C       -1.09619885       0.77253164      -0.41835638
C       -0.11181429       1.38659872       0.53038214
C        0.37307603       0.48592963      -0.57556298
C        0.92474974      -0.88722706      -0.31558196
C        2.32099109      -1.01155117      -0.07843307
O        2.60590484      -0.58200304       1.09165060
H       -2.94601358       0.18028844       0.50758562
H       -1.61439655      -0.93215306       0.80428824
H       -2.40348375      -0.90544990      -0.77442145
H       -1.50456250       1.44887283      -1.16156918
H        0.09745803       2.44612627       0.46260737
H       -0.12652324       1.01162610       1.54705098
H        0.84882692       1.01331595      -1.39703623
H        0.55968415      -1.64078646      -1.01527247
H        1.21121314      -0.66027514       1.18584735
H        2.92612368      -1.84622668      -0.44805587
17
Frame=11 idx=010098 GeodesicLength=0.5408650208289578 rxn_smarts="[C:1]([C@@:2]1([H:11])[C:3]([H:12])([H:13])[C@:4]1([C:5]([C:6](=[O:7])[H:17])([H:15])[H:16])[H:14])([H:8])([H:9])[H:10]>>[C:1]([C@@:2]1([H:11])[C:3]([H:12])([H:13])[C@:4]1(/[C:5](=[C:6](\[O:7][H:16])[H:17])[H:15])[H:14])([H:8])([H:9])[H:10]"
C       -2.06599920      -0.28185437       0.04636088
C       -1.09601254       0.77292362      -0.41893135
C       -0.11777337       1.38548229       0.53723261
C        0.37422126       0.48826501      -0.56858421
C        0.92579030      -0.88280986      -0.30444999
C        2.32732028      -1.01278472      -0.09813909
O        2.63964988      -0.56349303       1.05820645
H       -2.95156452       0.17577421       0.49234531
H       -1.62040392      -0.93324200       0.79987172
H       -2.39665229      -0.90828502      -0.78562225
H       -1.50144331       1.45138860      -1.16177153
H        0.09008201       2.44560119       0.47437826
H       -0.14078267       1.00808998       1.55292732
H        0.85628429       1.01815485      -1.38457216
H        0.54845992      -1.64424385      -0.98919040
H        1.22982544      -0.63761881       1.19319916
H        2.89899844      -1.88134809      -0.44326073
17
Frame=12 idx=010098 GeodesicLength=0.5902405185620831 rxn_smarts="[C:1]([C@@:2]1([H:11])[C:3]([H:12])([H:13])[C@:4]1([C:5]([C:6](=[O:7])[H:17])([H:15])[H:16])[H:14])([H:8])([H:9])[H:10]>>[C:1]([C@@:2]1([H:11])[C:3]([H:12])([H:13])[C@:4]1(/[C:5](=[C:6](\[O:7][H:16])[H:17])[H:15])[H:14])([H:8])([H:9])[H:10]"
C       -2.06686093      -0.28406837       0.03779294
C       -1.09571404       0.77329934      -0.41946848
C       -0.12364419       1.38421574       0.54412675
C        0.37541562       0.49048429      -0.56156161
C        0.92683176      -0.87850367      -0.29316091
C        2.33294386      -1.01486828      -0.11818787
O        2.67290856      -0.54579912       1.02318794
H       -2.95698682       0.17131962       0.47690582
H       -1.62647016      -0.93431308       0.79543298
H       -2.38964596      -0.91107996      -0.79683106
H       -1.49816562       1.45393702      -1.16189662
H        0.08279995       2.44490065       0.48624741
H       -0.15488718       1.00428806       1.55873381
H        0.86382795       1.02286747      -1.37195357
H        0.53716516      -1.64767912      -0.96242019
H        1.24863000      -0.61467201       1.20020786
H        2.87185204      -1.91432858      -0.43715521
17
Frame=13 idx=010098 GeodesicLength=0.6397137340750052 rxn_smarts="[C:1]([C@@:2]1([H:11])[C:3]([H:12])([H:13])[C@:4]1([C:5]([C:6](=[O:7])[H:17])([H:15])[H:16])[H:14])([H:8])([H:9])[H:10]>>[C:1]([C@@:2]1([H:11])[C:3]([H:12])([H:13])[C@:4]1(/[C:5](=[C:6](\[O:7][H:16])[H:17])[H:15])[H:14])([H:8])([H:9])[H:10]"
C       -2.06763692      -0.28626614       0.02911939
C       -1.09531218       0.77366727      -0.41995578
C       -0.12945699       1.38277139       0.55111151
C        0.37664842       0.49259474      -0.55446718
C        0.92788000      -0.87428575      -0.28166648
C        2.33784258      -1.01779980      -0.13864698
O        2.70575208      -0.52874198       0.98634675
H       -2.96231426       0.16690117       0.46118751
H       -1.63263789      -0.93538223       0.79091560
H       -2.38245127      -0.91381342      -0.80812848
H       -1.49471771       1.45655567      -1.16190995
H        0.07558923       2.44399316       0.49830728
H       -0.16889107       1.00016136       1.56450213
H        0.87147424       1.02748504      -1.35911448
H        0.52576281      -1.65108955      -0.93482002
H        1.26778297      -0.59130960       1.20684144
H        2.84468596      -1.94544131      -0.42962225
17
Frame=14 idx=010098 GeodesicLength=0.6893574037231878 rxn_smarts="[C:1]([C@@:2]1([H:11])[C:3]([H:12])([H:13])[C@:4]1([C:5]([C:6](=[O:7])[H:17])([H:15])[H:16])[H:14])([H:8])([H:9])[H:10]>>[C:1]([C@@:2]1([H:11])[C:3]([H:12])([H:13])[C@:4]1(/[C:5](=[C:6](\[O:7][H:16])[H:17])[H:15])[H:14])([H:8])([H:9])[H:10]"
C       -2.06833966      -0.28846115       0.02028449
C       -1.09481979       0.77404324      -0.42039169
C       -0.13525653       1.38116988       0.55823429
C        0.37792093       0.49462249      -0.54725194
C        0.92894674      -0.87013473      -0.26988341
C        2.34198870      -1.02161857      -0.15953756
O        2.73827226      -0.51236052       0.94753389
H       -2.96760977       0.16249454       0.44504397
H       -1.63895240      -0.93643858       0.78631135
H       -2.37500375      -0.91653024      -0.81958598
H       -1.49109766       1.45926447      -1.16182565
H        0.06838384       2.44291354       0.51062969
H       -0.18283153       0.99570480       1.57027441
H        0.87924332       1.03204550      -1.34598260
H        0.51418656      -1.65449421      -0.90617559
H        1.28745578      -0.56737777       1.21309578
H        2.81751296      -1.97484269      -0.42077344
17
Frame=15 idx=010098 GeodesicLength=0.7391002204128115 rxn_smarts="[C:1]([C@@:2]1([H:11])[C:3]([H:12])([H:13])[C@:4]1([C:5]([C:6](=[O:7])[H:17])([H:15])[H:16])[H:14])([H:8])([H:9])[H:10]>>[C:1]([C@@:2]1([H:11])[C:3]([H:12])([H:13])[C@:4]1(/[C:5](=[C:6](\[O:7][H:16])[H:17])[H:15])[H:14])([H:8])([H:9])[H:10]"
C       -2.06893526      -0.29064597       0.01133070
C       -1.09422660       0.77442180      -0.42077749
C       -0.14102143       1.37941527       0.56545974
C        0.37922909       0.49656711      -0.53994747
C        0.93003341      -0.86603725      -0.25785970
C        2.34531045      -1.02627150      -0.18076623
O        2.77021533      -0.49679121       0.90687685
H       -2.97280037       0.15810594       0.42856946
H       -1.64536072      -0.93747625       0.78163844
H       -2.36729991      -0.91921964      -0.83113971
H       -1.48731251       1.46204210      -1.16164158
H        0.06121192       2.44165296       0.52315623
H       -0.19667942       0.99094486       1.57602323
H        0.88711412       1.03653306      -1.33260334
H        0.50254740      -1.65781931      -0.87660219
H        1.30746165      -0.54298857       1.21894039
H        2.79051286      -2.00243341      -0.41065734
17
Frame=16 idx=010098 GeodesicLength=0.7889093525932855 rxn_smarts="[C:1]([C@@:2]1([H:11])[C:3]([H:12])([H:13])[C@:4]1([C:5]([C:6](=[O:7])[H:17])([H:15])[H:16])[H:14])([H:8])([H:9])[H:10]>>[C:1]([C@@:2]1([H:11])[C:3]([H:12])([H:13])[C@:4]1(/[C:5](=[C:6](\[O:7][H:16])[H:17])[H:15])[H:14])([H:8])([H:9])[H:10]"
C       -2.06940742      -0.29282330       0.00230185
C       -1.09353267       0.77480238      -0.42111824
C       -0.14674735       1.37755332       0.57275084
C        0.38058617       0.49844874      -0.53256484
C        0.93115770      -0.86197756      -0.24562191
C        2.34777795      -1.03171630      -0.20221524
O        2.80139713      -0.48227290       0.86459441
H       -2.97786640       0.15373458       0.41181456
H       -1.65182747      -0.93847976       0.77693980
H       -2.35932721      -0.92191879      -0.84271471
H       -1.48338372       1.46485799      -1.16137754
H        0.05406417       2.44026154       0.53580954
H       -0.21041403       0.98595851       1.58172127
H        0.89508797       1.04094942      -1.31900512
H        0.49093908      -1.66100394      -0.84618518
H        1.32762993      -0.51823592       1.22437515
H        2.76386618      -2.02813800      -0.39950465
