12
Frame=0 idx=007456 GeodesicLength=0.0 rxn_smarts="[O:1]([C:2]([c:3]1[n:4][o:5][c:6]([H:11])[c:7]1[H:12])([H:9])[H:10])[H:8]>>[O:1]([C:2]([C:3]1=[N:4][C@:7]1([C:6](=[O:5])[H:11])[H:12])([H:9])[H:10])[H:8]"
O       -2.59942767       0.49732693      -0.32320664
C       -1.54455337      -0.25684584       0.17650813
C       -0.16380718       0.32719701      -0.08258873
N        0.12999770       1.37766808      -0.65281808
O        2.53099795       1.31154020      -0.09107443
C        2.28098030       0.17159122       0.25795121
C        1.03752870      -0.48278281       0.13445616
H       -2.48418612       0.62467322      -1.26761996
H       -1.65380849      -0.30610864       1.26184812
H       -1.53349310      -1.28640233      -0.20452978
H        3.03819194      -0.42331645       0.80535062
H        0.96157929      -1.55454064      -0.01427665
12
Frame=1 idx=007456 GeodesicLength=0.06854366693970751 rxn_smarts="[O:1]([C:2]([c:3]1[n:4][o:5][c:6]([H:11])[c:7]1[H:12])([H:9])[H:10])[H:8]>>[O:1]([C:2]([C:3]1=[N:4][C@:7]1([C:6](=[O:5])[H:11])[H:12])([H:9])[H:10])[H:8]"
O       -2.59318641       0.51006013      -0.32111929
C       -1.54824139      -0.25581571       0.18349205
C       -0.16372933       0.30996393      -0.08036235
N        0.14952190       1.33603788      -0.68769105
O        2.48759934       1.33198056      -0.06361104
C        2.27143193       0.17920251       0.27635628
C        1.04208853      -0.49392927       0.11619678
H       -2.46519146       0.64631732      -1.26275858
H       -1.65657118      -0.29733417       1.26937122
H       -1.55311976      -1.28784501      -0.19117516
H        3.05039240      -0.41248804       0.79326363
H        0.97900543      -1.56615013      -0.03196249
12
Frame=2 idx=007456 GeodesicLength=0.13743010370192857 rxn_smarts="[O:1]([C:2]([c:3]1[n:4][o:5][c:6]([H:11])[c:7]1[H:12])([H:9])[H:10])[H:8]>>[O:1]([C:2]([C:3]1=[N:4][C@:7]1([C:6](=[O:5])[H:11])[H:12])([H:9])[H:10])[H:8]"
O       -2.58653510       0.52252726      -0.32046938
C       -1.55207289      -0.25481540       0.18970996
C       -0.16377979       0.29241801      -0.07809488
N        0.16816760       1.29514316      -0.71752891
O        2.44347007       1.34994682      -0.03850699
C        2.26074733       0.18684185       0.29617941
C        1.04642402      -0.50443167       0.10088553
H       -2.44461305       0.66801872      -1.25877640
H       -1.66036870      -0.28883452       1.27590057
H       -1.57252571      -1.28885565      -0.17878151
H        3.06441987      -0.40101202       0.77579950
H        0.99666635      -1.57694655      -0.04631690
12
Frame=3 idx=007456 GeodesicLength=0.20625203021113134 rxn_smarts="[O:1]([C:2]([c:3]1[n:4][o:5][c:6]([H:11])[c:7]1[H:12])([H:9])[H:10])[H:8]>>[O:1]([C:2]([C:3]1=[N:4][C@:7]1([C:6](=[O:5])[H:11])[H:12])([H:9])[H:10])[H:8]"
O       -2.57962533       0.53505756      -0.32042008
C       -1.55598324      -0.25405588       0.19525579
C       -0.16387737       0.27438764      -0.07603516
N        0.18601072       1.25530484      -0.74311971
O        2.39961293       1.36526848      -0.01734572
C        2.24932343       0.19419544       0.31691198
C        1.05077500      -0.51474552       0.08747050
H       -2.42315443       0.69056234      -1.25491005
H       -1.66448811      -0.28130188       1.28173241
H       -1.59206957      -1.28968481      -0.16775959
H        3.07875164      -0.38744060       0.75692049
H        1.01472433      -1.58754761      -0.05870086
12
Frame=4 idx=007456 GeodesicLength=0.275565452864572 rxn_smarts="[O:1]([C:2]([c:3]1[n:4][o:5][c:6]([H:11])[c:7]1[H:12])([H:9])[H:10])[H:8]>>[O:1]([C:2]([C:3]1=[N:4][C@:7]1([C:6](=[O:5])[H:11])[H:12])([H:9])[H:10])[H:8]"
O       -2.57222126       0.54792021      -0.31993409
C       -1.55966416      -0.25354329       0.20027590
C       -0.16381231       0.25551583      -0.07471000
N        0.20322588       1.21596192      -0.76578856
O        2.35605458       1.37793892      -0.00008709
C        2.23763035       0.20040678       0.33679895
C        1.05536977      -0.52533366       0.07465354
H       -2.40097313       0.71448856      -1.25001345
H       -1.66807719      -0.27490443       1.28700104
H       -1.61183000      -1.29015339      -0.15814013
H        3.09093055      -0.37001744       0.74046140
H        1.03336692      -1.59828001      -0.07051750
12
Frame=5 idx=007456 GeodesicLength=0.3448976754311788 rxn_smarts="[O:1]([C:2]([c:3]1[n:4][o:5][c:6]([H:11])[c:7]1[H:12])([H:9])[H:10])[H:8]>>[O:1]([C:2]([C:3]1=[N:4][C@:7]1([C:6](=[O:5])[H:11])[H:12])([H:9])[H:10])[H:8]"
O       -2.56436067       0.56074305      -0.32045267
C       -1.56345854      -0.25289146       0.20495860
C       -0.16379400       0.23601017      -0.07367883
N        0.22005863       1.17687667      -0.78596330
O        2.31155516       1.38938902       0.01816253
C        2.22561196       0.20627304       0.35630992
C        1.05993326      -0.53577228       0.06368795
H       -2.37765972       0.73794035      -1.24563560
H       -1.67211254      -0.26793929       1.29181261
H       -1.63193887      -1.29026339      -0.14846052
H        3.10383206      -0.35181453       0.72014302
H        1.05233327      -1.60855135      -0.08088371
12
Frame=6 idx=007456 GeodesicLength=0.4146174786710773 rxn_smarts="[O:1]([C:2]([c:3]1[n:4][o:5][c:6]([H:11])[c:7]1[H:12])([H:9])[H:10])[H:8]>>[O:1]([C:2]([C:3]1=[N:4][C@:7]1([C:6](=[O:5])[H:11])[H:12])([H:9])[H:10])[H:8]"
O       -2.55591434       0.57416095      -0.31994936
C       -1.56682598      -0.25241470       0.20940311
C       -0.16356666       0.21560069      -0.07359876
N        0.23615763       1.13822344      -0.80458006
O        2.26720463       1.39887213       0.03286574
C        2.21389565       0.21071030       0.37293623
C        1.06483013      -0.54681874       0.05238928
H       -2.35393923       0.76278815      -1.23978739
H       -1.67496714      -0.26197403       1.29653336
H       -1.65232449      -1.29004293      -0.13988346
H        3.11347683      -0.32972929       0.70574915
H        1.07197296      -1.61937597      -0.09207784
12
Frame=7 idx=007456 GeodesicLength=0.4845451192165765 rxn_smarts="[O:1]([C:2]([c:3]1[n:4][o:5][c:6]([H:11])[c:7]1[H:12])([H:9])[H:10])[H:8]>>[O:1]([C:2]([C:3]1=[N:4][C@:7]1([C:6](=[O:5])[H:11])[H:12])([H:9])[H:10])[H:8]"
O       -2.54692100       0.58757746      -0.31975361
C       -1.57015600      -0.25185621       0.21362245
C       -0.16334334       0.19447377      -0.07387755
N        0.25184644       1.09982017      -0.82120771
O        2.22238244       1.40688795       0.04729023
C        2.20215838       0.21473203       0.38807558
C        1.06974331      -0.55784991       0.04199311
H       -2.32926108       0.78731903      -1.23366499
H       -1.67781249      -0.25581294       1.30083785
H       -1.67309349      -1.28928537      -0.13137492
H        3.12244624      -0.30635013       0.69118956
H        1.09201059      -1.62965584      -0.10313000
12
Frame=8 idx=007456 GeodesicLength=0.5545554782612769 rxn_smarts="[O:1]([C:2]([c:3]1[n:4][o:5][c:6]([H:11])[c:7]1[H:12])([H:9])[H:10])[H:8]>>[O:1]([C:2]([C:3]1=[N:4][C@:7]1([C:6](=[O:5])[H:11])[H:12])([H:9])[H:10])[H:8]"
O       -2.53741545       0.60140530      -0.31933090
C       -1.57331595      -0.25132821       0.21767100
C       -0.16311522       0.17250759      -0.07478712
N        0.26692958       1.06171601      -0.83666726
O        2.17717516       1.41366948       0.06028806
C        2.19047108       0.21819475       0.40166930
C        1.07482029      -0.56923813       0.03206615
H       -2.30393787       0.81241541      -1.22690445
H       -1.68010049      -0.24990131       1.30510623
H       -1.69427671      -1.28823436      -0.12329785
H        3.12999821      -0.28109525       0.67864795
H        1.11276736      -1.64011128      -0.11446112
12
Frame=9 idx=007456 GeodesicLength=0.6249921917335326 rxn_smarts="[O:1]([C:2]([c:3]1[n:4][o:5][c:6]([H:11])[c:7]1[H:12])([H:9])[H:10])[H:8]>>[O:1]([C:2]([C:3]1=[N:4][C@:7]1([C:6](=[O:5])[H:11])[H:12])([H:9])[H:10])[H:8]"
O       -2.52731406       0.61560309      -0.31852027
C       -1.57632255      -0.25082384       0.22145332
C       -0.16291105       0.14957166      -0.07639596
N        0.28148297       1.02358701      -0.85108882
O        2.13162528       1.41898680       0.07165904
C        2.17864676       0.22116140       0.41411393
C        1.08005026      -0.58090892       0.02259056
H       -2.27784038       0.83809456      -1.21911642
H       -1.68183431      -0.24436352       1.30904482
H       -1.71597538      -1.28661074      -0.11577090
H        3.13607534      -0.25381484       0.66793145
H        1.13431710      -1.65048266      -0.12590074
12
Frame=10 idx=007456 GeodesicLength=0.6956973870490569 rxn_smarts="[O:1]([C:2]([c:3]1[n:4][o:5][c:6]([H:11])[c:7]1[H:12])([H:9])[H:10])[H:8]>>[O:1]([C:2]([C:3]1=[N:4][C@:7]1([C:6](=[O:5])[H:11])[H:12])([H:9])[H:10])[H:8]"
O       -2.51654246       0.63029964      -0.31739629
C       -1.57917182      -0.25034163       0.22501645
C       -0.16276260       0.12558881      -0.07874340
N        0.29555533       0.98537299      -0.86480799
O        2.08539758       1.42314779       0.08197702
C        2.16662162       0.22390505       0.42553630
C        1.08542798      -0.59291919       0.01365061
H       -2.25089116       0.86436299      -1.21049309
H       -1.68298838      -0.23910402       1.31283391
H       -1.73824580      -1.28452271      -0.10870049
H        3.14087401      -0.22491130       0.65841395
H        1.15672570      -1.66087844      -0.13728697
12
Frame=11 idx=007456 GeodesicLength=0.7667878656233806 rxn_smarts="[O:1]([C:2]([c:3]1[n:4][o:5][c:6]([H:11])[c:7]1[H:12])([H:9])[H:10])[H:8]>>[O:1]([C:2]([C:3]1=[N:4][C@:7]1([C:6](=[O:5])[H:11])[H:12])([H:9])[H:10])[H:8]"
O       -2.50501173       0.64550797      -0.31590684
C       -1.58185305      -0.24987152       0.22833435
C       -0.16269624       0.10046343      -0.08186612
N        0.30918686       0.94691961      -0.87792299
O        2.03837781       1.42609445       0.09129032
C        2.15430162       0.22653185       0.43607532
C        1.09095061      -0.60524559       0.00523039
H       -2.22297318       0.89119263      -1.20090213
H       -1.68352532      -0.23414389       1.31638664
H       -1.76114992      -1.28184260      -0.10210317
H        3.14434472      -0.19443012       0.64989958
H        1.18004783      -1.67117621      -0.14851535
12
Frame=12 idx=007456 GeodesicLength=0.8382125194107862 rxn_smarts="[O:1]([C:2]([c:3]1[n:4][o:5][c:6]([H:11])[c:7]1[H:12])([H:9])[H:10])[H:8]>>[O:1]([C:2]([C:3]1=[N:4][C@:7]1([C:6](=[O:5])[H:11])[H:12])([H:9])[H:10])[H:8]"
O       -2.49263464       0.66139596      -0.31394465
C       -1.58433779      -0.24943975       0.23138924
C       -0.16274319       0.07404973      -0.08587532
N        0.32237304       0.90807019      -0.89073729
O        1.99035973       1.42792370       0.09956309
C        2.14158018       0.22915078       0.44589619
C        1.09664258      -0.61798249      -0.00264881
H       -2.19400540       0.91883058      -1.19023168
H       -1.68331058      -0.22960452       1.31976182
H       -1.78477602      -1.27856587      -0.09608668
H        3.14643508      -0.16231711       0.64232563
H        1.20441701      -1.68151119      -0.15941153
12
Frame=13 idx=007456 GeodesicLength=0.9102974120387547 rxn_smarts="[O:1]([C:2]([c:3]1[n:4][o:5][c:6]([H:11])[c:7]1[H:12])([H:9])[H:10])[H:8]>>[O:1]([C:2]([C:3]1=[N:4][C@:7]1([C:6](=[O:5])[H:11])[H:12])([H:9])[H:10])[H:8]"
O       -2.47923332       0.67815146      -0.31091806
C       -1.58657742      -0.24917200       0.23406310
C       -0.16291961       0.04616267      -0.09096818
N        0.33509444       0.86837134      -0.90375079
O        1.94148872       1.42844904       0.10546068
C        2.12822706       0.23186996       0.45492880
C        1.10253795      -0.63115621      -0.01008237
H       -2.16374778       0.94796819      -1.17762154
H       -1.68219614      -0.22620487       1.32278953
H       -1.80925415      -1.27448255      -0.09118628
H        3.14656336      -0.12809309       0.63691019
H        1.23001689      -1.69186394      -0.16962507
12
Frame=14 idx=007456 GeodesicLength=0.9829026382493157 rxn_smarts="[O:1]([C:2]([c:3]1[n:4][o:5][c:6]([H:11])[c:7]1[H:12])([H:9])[H:10])[H:8]>>[O:1]([C:2]([C:3]1=[N:4][C@:7]1([C:6](=[O:5])[H:11])[H:12])([H:9])[H:10])[H:8]"
O       -2.46478805       0.69529604      -0.30769256
C       -1.58854301      -0.24883724       0.23657367
C       -0.16326820       0.01707688      -0.09679017
N        0.34737940       0.82862707      -0.91604305
O        1.89164563       1.42768385       0.11071382
C        2.11428899       0.23459314       0.46334987
C        1.10848857      -0.64455326      -0.01728035
H       -2.13209395       0.97706087      -1.16415880
H       -1.68035731      -0.22282638       1.32562737
H       -1.83430498      -1.26962224      -0.08639471
H        3.14509024      -0.09266258       0.63198454
H        1.25646268      -1.70183615      -0.17988965
12
Frame=15 idx=007456 GeodesicLength=1.056148644008127 rxn_smarts="[O:1]([C:2]([c:3]1[n:4][o:5][c:6]([H:11])[c:7]1[H:12])([H:9])[H:10])[H:8]>>[O:1]([C:2]([C:3]1=[N:4][C@:7]1([C:6](=[O:5])[H:11])[H:12])([H:9])[H:10])[H:8]"
O       -2.44917911       0.71309624      -0.30383558
C       -1.59018722      -0.24853035       0.23884435
C       -0.16381384      -0.01335340      -0.10349908
N        0.35919184       0.78847307      -0.92816654
O        1.84075222       1.42562733       0.11447539
C        2.09961649       0.23742111       0.47113743
C        1.11454211      -0.65826406      -0.02418637
H       -2.09890589       1.00674063      -1.14929778
H       -1.67766284      -0.22003609       1.32826542
H       -1.86000299      -1.26387967      -0.08216245
H        3.14166803      -0.05573209       0.62822860
H        1.28398119      -1.71156271      -0.18980340
12
Frame=16 idx=007456 GeodesicLength=1.130031398052306 rxn_smarts="[O:1]([C:2]([c:3]1[n:4][o:5][c:6]([H:11])[c:7]1[H:12])([H:9])[H:10])[H:8]>>[O:1]([C:2]([C:3]1=[N:4][C@:7]1([C:6](=[O:5])[H:11])[H:12])([H:9])[H:10])[H:8]"
O       -2.43233318       0.73147445      -0.29934336
C       -1.59143550      -0.24824772       0.24092216
C       -0.16458153      -0.04503325      -0.11105499
N        0.37046929       0.74806882      -0.94015916
O        1.78891961       1.42229395       0.11653226
C        2.08411281       0.24037248       0.47826629
C        1.12064109      -0.67223554      -0.03096532
H       -2.06407770       1.03683371      -1.13302265
H       -1.67404315      -0.21783312       1.33077320
H       -1.88621865      -1.25723490      -0.07838906
H        3.13606468      -0.01748310       0.62594915
H        1.31248223      -1.72097579      -0.19950852
