12
Frame=0 idx=004352 GeodesicLength=0.0 rxn_smarts="[O:1]=[C:2]([C@@:3]1([H:8])[C:4]([H:9])([H:10])[C:5]([H:11])([H:12])[O:6]1)[H:7]>>[O:1]1[C:2]([H:7])([H:11])[C@@:3]1([C:4]([C:5](=[O:6])[H:12])([H:9])[H:10])[H:8]"
O        1.99533000      -0.98926366       0.15356416
C        1.12695528      -0.31639429       0.84072477
C        0.42868405       0.63861212      -0.15074630
C       -0.48594839      -0.24731294      -0.99703358
C       -1.48015941       0.18481704       0.00042081
O       -0.86826850       1.17728350       0.50331128
H        1.48055629       0.23039803       1.74563148
H        1.01341245       1.45206892      -0.56743615
H       -0.17998710      -1.29122597      -1.04857941
H       -0.73240762       0.14086834      -1.98949264
H        0.19388048      -0.90357585       1.21084511
H       -2.49204756      -0.07627525       0.29879043
12
Frame=1 idx=004352 GeodesicLength=0.11616719122994698 rxn_smarts="[O:1]=[C:2]([C@@:3]1([H:8])[C:4]([H:9])([H:10])[C:5]([H:11])([H:12])[O:6]1)[H:7]>>[O:1]1[C:2]([H:7])([H:11])[C@@:3]1([C:4]([C:5](=[O:6])[H:12])([H:9])[H:10])[H:8]"
O        2.00228548      -0.96247557       0.13574837
C        1.13365063      -0.31761474       0.84895320
C        0.44364914       0.62719162      -0.15320526
C       -0.48546439      -0.24956934      -0.99303904
C       -1.47328032       0.16786710       0.02215055
O       -0.87206301       1.18094717       0.50451125
H        1.49216688       0.23104717       1.74931283
H        1.01933919       1.44719309      -0.56942380
H       -0.18532636      -1.29497417      -1.05030944
H       -0.73752270       0.14091130      -1.98265529
H        0.16721110      -0.90500807       1.21396731
H       -2.50464564      -0.06551555       0.27398930
12
Frame=2 idx=004352 GeodesicLength=0.23221367570490403 rxn_smarts="[O:1]=[C:2]([C@@:3]1([H:8])[C:4]([H:9])([H:10])[C:5]([H:11])([H:12])[O:6]1)[H:7]>>[O:1]1[C:2]([H:7])([H:11])[C@@:3]1([C:4]([C:5](=[O:6])[H:12])([H:9])[H:10])[H:8]"
O        2.00875361      -0.93644405       0.11836152
C        1.14080833      -0.31903429       0.85652860
C        0.45838121       0.61566500      -0.15556344
C       -0.48527059      -0.25163780      -0.98875643
C       -1.46698461       0.15176515       0.04338130
O       -0.87648815       1.18424729       0.50630557
H        1.50452686       0.23169581       1.75211030
H        1.02452852       1.44261174      -0.57094537
H       -0.19136198      -1.29861010      -1.05155151
H       -0.74217829       0.14100963      -1.97576225
H        0.14011881      -0.90565596       1.21775783
H       -2.51483373      -0.05561243       0.24813390
12
Frame=3 idx=004352 GeodesicLength=0.3482155142337298 rxn_smarts="[O:1]=[C:2]([C@@:3]1([H:8])[C:4]([H:9])([H:10])[C:5]([H:11])([H:12])[O:6]1)[H:7]>>[O:1]1[C:2]([H:7])([H:11])[C@@:3]1([C:4]([C:5](=[O:6])[H:12])([H:9])[H:10])[H:8]"
O        2.01468916      -0.91124445       0.10148016
C        1.14832467      -0.32060611       0.86346013
C        0.47292033       0.60407901      -0.15791730
C       -0.48527165      -0.25344447      -0.98435158
C       -1.46132352       0.13670101       0.06378857
O       -0.88152030       1.18737405       0.50849671
H        1.51734025       0.23227490       1.75416357
H        1.02913332       1.43829548      -0.57205195
H       -0.19806028      -1.30207037      -1.05240148
H       -0.74619004       0.14120458      -1.96902325
H        0.11235262      -0.90551275       1.22208297
H       -2.52239455      -0.04705089       0.22227345
12
Frame=4 idx=004352 GeodesicLength=0.4642225754589171 rxn_smarts="[O:1]=[C:2]([C@@:3]1([H:8])[C:4]([H:9])([H:10])[C:5]([H:11])([H:12])[O:6]1)[H:7]>>[O:1]1[C:2]([H:7])([H:11])[C@@:3]1([C:4]([C:5](=[O:6])[H:12])([H:9])[H:10])[H:8]"
O        2.02013548      -0.88690387       0.08512266
C        1.15615223      -0.32228404       0.86976680
C        0.48730826       0.59245964      -0.16032909
C       -0.48537511      -0.25495371      -0.97993748
C       -1.45630460       0.12277153       0.08316954
O       -0.88713338       1.19046049       0.51094994
H        1.53041438       0.23274503       1.75559197
H        1.03327227       1.43420918      -0.57278017
H       -0.20535364      -1.30531745      -1.05293215
H       -0.74943458       0.14150722      -1.96257302
H        0.08375062      -0.90461242       1.22681351
H       -2.52743194      -0.04008160       0.19713748
12
Frame=5 idx=004352 GeodesicLength=0.580281021474562 rxn_smarts="[O:1]=[C:2]([C@@:3]1([H:8])[C:4]([H:9])([H:10])[C:5]([H:11])([H:12])[O:6]1)[H:7]>>[O:1]1[C:2]([H:7])([H:11])[C@@:3]1([C:4]([C:5](=[O:6])[H:12])([H:9])[H:10])[H:8]"
O        2.02517229      -0.86340967       0.06927596
C        1.16432262      -0.32402445       0.87545927
C        0.50158538       0.58081614      -0.16282955
C       -0.48549606      -0.25617106      -0.97556794
C       -1.45189012       0.10994652       0.10146760
O       -0.89329668       1.19357731       0.51361113
H        1.54367103       0.23308989       1.75648204
H        1.03701019       1.43033009      -0.57315284
H       -0.21313709      -1.30833944      -1.05319313
H       -0.75187225       0.14189906      -1.95645908
H        0.05426422      -0.90301888       1.23184750
H       -2.53033353      -0.03469550       0.17305904
12
Frame=6 idx=004352 GeodesicLength=0.6964034938913042 rxn_smarts="[O:1]=[C:2]([C@@:3]1([H:8])[C:4]([H:9])([H:10])[C:5]([H:11])([H:12])[O:6]1)[H:7]>>[O:1]1[C:2]([H:7])([H:11])[C@@:3]1([C:4]([C:5](=[O:6])[H:12])([H:9])[H:10])[H:8]"
O        2.02990747      -0.84073469       0.05390834
C        1.17287625      -0.32578624       0.88055144
C        0.51577711       0.56915114      -0.16543441
C       -0.48558348      -0.25711091      -0.97126599
C       -1.44806362       0.09818776       0.11867062
O       -0.89999637       1.19676291       0.51646338
H        1.55707459       0.23331273       1.75690166
H        1.04038793       1.42663456      -0.57318616
H       -0.22132719      -1.31113626      -1.05320213
H       -0.75350239       0.14235719      -1.95070685
H        0.02386827      -0.90082721       1.23711025
H       -2.53141856      -0.03081099       0.15018986
12
Frame=7 idx=004352 GeodesicLength=0.8126132951025982 rxn_smarts="[O:1]=[C:2]([C@@:3]1([H:8])[C:4]([H:9])([H:10])[C:5]([H:11])([H:12])[O:6]1)[H:7]>>[O:1]1[C:2]([H:7])([H:11])[C@@:3]1([C:4]([C:5](=[O:6])[H:12])([H:9])[H:10])[H:8]"
O        2.03446276      -0.81882511       0.03895046
C        1.18188615      -0.32752735       0.88506183
C        0.52990168       0.55745771      -0.16813784
C       -0.48559764      -0.25780911      -0.96701449
C       -1.44479534       0.08739932       0.13484426
O       -0.90722474       1.20002403       0.51952580
H        1.57064695       0.23343851       1.75690099
H        1.04341362       1.42309772      -0.57288644
H       -0.22983720      -1.31372330      -1.05295798
H       -0.75436218       0.14284069      -1.94528378
H       -0.00742320      -0.89815818       1.24253886
H       -2.53107087      -0.02821492       0.12845833
12
Frame=8 idx=004352 GeodesicLength=0.9289227639810629 rxn_smarts="[O:1]=[C:2]([C@@:3]1([H:8])[C:4]([H:9])([H:10])[C:5]([H:11])([H:12])[O:6]1)[H:7]>>[O:1]1[C:2]([H:7])([H:11])[C@@:3]1([C:4]([C:5](=[O:6])[H:12])([H:9])[H:10])[H:8]"
O        2.03891395      -0.79763893       0.02436312
C        1.19142330      -0.32920925       0.88899155
C        0.54396433       0.54573413      -0.17093226
C       -0.48551411      -0.25829231      -0.96280020
C       -1.44207882       0.07751624       0.15002528
O       -0.91497172       1.20336377       0.52283257
H        1.58441302       0.23349504       1.75651190
H        1.04608669       1.41970458      -0.57225976
H       -0.23860062      -1.31611031      -1.05244910
H       -0.75448188       0.14331090      -1.94017435
H       -0.03962649      -0.89512959       1.24808544
H       -2.52952766      -0.02674426       0.10780581
12
Frame=9 idx=004352 GeodesicLength=1.045319446966974 rxn_smarts="[O:1]=[C:2]([C@@:3]1([H:8])[C:4]([H:9])([H:10])[C:5]([H:11])([H:12])[O:6]1)[H:7]>>[O:1]1[C:2]([H:7])([H:11])[C@@:3]1([C:4]([C:5](=[O:6])[H:12])([H:9])[H:10])[H:8]"
O        2.04338306      -0.77712087       0.01000896
C        1.20158626      -0.33075617       0.89236005
C        0.55796535       0.53396391      -0.17377073
C       -0.48532472      -0.25859728      -0.95856702
C       -1.43991023       0.06853231       0.16421662
O       -0.92327677       1.20672925       0.52643582
H        1.59845257       0.23353042       1.75576636
H        1.04836658       1.41640528      -0.57126845
H       -0.24758362      -1.31833541      -1.05160697
H       -0.75385564       0.14370352      -1.93531946
H       -0.07274738      -0.89188786       1.25367372
H       -2.52705545      -0.02616710       0.08807110
12
Frame=10 idx=004352 GeodesicLength=1.1618140979255671 rxn_smarts="[O:1]=[C:2]([C@@:3]1([H:8])[C:4]([H:9])([H:10])[C:5]([H:11])([H:12])[O:6]1)[H:7]>>[O:1]1[C:2]([H:7])([H:11])[C@@:3]1([C:4]([C:5](=[O:6])[H:12])([H:9])[H:10])[H:8]"
O        2.04794173      -0.75719291      -0.00414418
C        1.21243581      -0.33216595       0.89518903
C        0.57191521       0.52214134      -0.17665339
C       -0.48500303      -0.25877143      -0.95428127
C       -1.43825683       0.06025451       0.17760666
O       -0.93210253       1.21013539       0.53038686
H        1.61283531       0.23360728       1.75466043
H        1.05025740       1.41319564      -0.56994003
H       -0.25669029      -1.32041311      -1.05044928
H       -0.75258760       0.14398900      -1.93066013
H       -0.10677965      -0.88857743       1.25930511
H       -2.52396553      -0.02620233       0.06898018
12
Frame=11 idx=004352 GeodesicLength=1.2784064823428183 rxn_smarts="[O:1]=[C:2]([C@@:3]1([H:8])[C:4]([H:9])([H:10])[C:5]([H:11])([H:12])[O:6]1)[H:7]>>[O:1]1[C:2]([H:7])([H:11])[C@@:3]1([C:4]([C:5](=[O:6])[H:12])([H:9])[H:10])[H:8]"
O        2.05265793      -0.73779389      -0.01816755
C        1.22404147      -0.33340263       0.89749594
C        0.58582220       0.51025714      -0.17956337
C       -0.48453764      -0.25884683      -0.94990343
C       -1.43711100       0.05261840       0.19026795
O       -0.94144788       1.21356747       0.53473135
H        1.62762653       0.23378896       1.75319887
H        1.05174863       1.41004692      -0.56826969
H       -0.26587390      -1.32236455      -1.04894721
H       -0.75071816       0.14412835      -1.92614876
H       -0.14176628      -0.88534542       1.26494586
H       -2.52044188      -0.02665392       0.05036004
12
Frame=12 idx=004352 GeodesicLength=1.3950333650109272 rxn_smarts="[O:1]=[C:2]([C@@:3]1([H:8])[C:4]([H:9])([H:10])[C:5]([H:11])([H:12])[O:6]1)[H:7]>>[O:1]1[C:2]([H:7])([H:11])[C@@:3]1([C:4]([C:5](=[O:6])[H:12])([H:9])[H:10])[H:8]"
O        2.05758223      -0.71886873      -0.03212927
C        1.23645714      -0.33443567       0.89930192
C        0.59968777       0.49830356      -0.18247953
C       -0.48392137      -0.25885204      -0.94539673
C       -1.43647814       0.04556776       0.20225612
O       -0.95131577       1.21701756       0.53950251
H        1.64289124       0.23413835       1.75137846
H        1.05283169       1.40692824      -0.56624727
H       -0.27509601      -1.32420937      -1.04707573
H       -0.74827799       0.14408793      -1.92174095
H       -0.17775148      -0.88232847       1.27056696
H       -2.51660930      -0.02734912       0.03206350
12
Frame=13 idx=004352 GeodesicLength=1.5116582681897193 rxn_smarts="[O:1]=[C:2]([C@@:3]1([H:8])[C:4]([H:9])([H:10])[C:5]([H:11])([H:12])[O:6]1)[H:7]>>[O:1]1[C:2]([H:7])([H:11])[C@@:3]1([C:4]([C:5](=[O:6])[H:12])([H:9])[H:10])[H:8]"
O        2.06276854      -0.70035310      -0.04611145
C        1.24973949      -0.33523782       0.90062898
C        0.61351479       0.48627026      -0.18537660
C       -0.48314735      -0.25881431      -0.94072276
C       -1.43636540       0.03906799       0.21361139
O       -0.96170890       1.22047344       0.54474022
H        1.65870005       0.23472194       1.74919173
H        1.05350100       1.40380434      -0.56385971
H       -0.28432510      -1.32596797      -1.04480049
H       -0.74528453       0.14382838      -1.91739453
H       -0.21481926      -0.87965988       1.27613305
H       -2.51257333      -0.02813326       0.01396017
12
Frame=14 idx=004352 GeodesicLength=1.6282587492547134 rxn_smarts="[O:1]=[C:2]([C@@:3]1([H:8])[C:4]([H:9])([H:10])[C:5]([H:11])([H:12])[O:6]1)[H:7]>>[O:1]1[C:2]([H:7])([H:11])[C@@:3]1([C:4]([C:5](=[O:6])[H:12])([H:9])[H:10])[H:8]"
O        2.06824557      -0.68219128      -0.06017782
C        1.26395338      -0.33578085       0.90148673
C        0.62730814       0.47415173      -0.18823356
C       -0.48220671      -0.25875958      -0.93584416
C       -1.43678229       0.03307465       0.22437764
O       -0.97262427       1.22392426       0.55048402
H        1.67512174       0.23560477       1.74662389
H        1.05374587       1.40064751      -0.56109657
H       -0.29352587      -1.32766017      -1.04209040
H       -0.74175924       0.14331348      -1.91306767
H       -0.25306705      -0.87747047       1.28161673
H       -2.50840927      -0.02885406      -0.00407884
12
Frame=15 idx=004352 GeodesicLength=1.7447787896088776 rxn_smarts="[O:1]=[C:2]([C@@:3]1([H:8])[C:4]([H:9])([H:10])[C:5]([H:11])([H:12])[O:6]1)[H:7]>>[O:1]1[C:2]([H:7])([H:11])[C@@:3]1([C:4]([C:5](=[O:6])[H:12])([H:9])[H:10])[H:8]"
O        2.07404024      -0.66432357      -0.07439749
C        1.27915557      -0.33604290       0.90188635
C        0.64107023       0.46194095      -0.19102470
C       -0.48109258      -0.25871233      -0.93072417
C       -1.43774627       0.02755961       0.23457882
O       -0.98406358       1.22735938       0.55676982
H        1.69222640       0.23684763       1.74365494
H        1.05355964       1.39742875      -0.55794317
H       -0.30267018      -1.32930491      -1.03891078
H       -0.73771103       0.14250486      -1.90872261
H       -0.29260449      -0.87588002       1.28698950
H       -2.50416395      -0.02937745      -0.02215650
12
Frame=16 idx=004352 GeodesicLength=1.8611698417913942 rxn_smarts="[O:1]=[C:2]([C@@:3]1([H:8])[C:4]([H:9])([H:10])[C:5]([H:11])([H:12])[O:6]1)[H:7]>>[O:1]1[C:2]([H:7])([H:11])[C@@:3]1([C:4]([C:5](=[O:6])[H:12])([H:9])[H:10])[H:8]"
O        2.08018328      -0.64667993      -0.08885709
C        1.29540794      -0.33600270       0.90183707
C        0.65480407       0.44962991      -0.19372004
C       -0.47979766      -0.25869955      -0.92532188
C       -1.43927985       0.02250094       0.24423452
O       -0.99602807       1.23076237       0.56363914
H        1.71008876       0.23851062       1.74026253
H        1.05293161       1.39411459      -0.55437852
H       -0.31173100      -1.33092660      -1.03521794
H       -0.73314147       0.14135722      -1.90431940
H       -0.33356098      -0.87500551       1.29222264
H       -2.49987664      -0.02956137      -0.04038105
