13
Frame=0 idx=003371 GeodesicLength=0.0 rxn_smarts="[C:1]([O:2][C:3](=[O:4])[C:5]([N:6]([H:12])[H:13])([H:10])[H:11])([H:7])([H:8])[H:9]>>[C:1]([O:2][C@@:3]1([O:4][H:13])[C:5]([H:10])([H:11])[N:6]1[H:12])([H:7])([H:8])[H:9]"
C        2.04001910       0.45952632       0.05833755
O        0.95201179      -0.34772101       0.54018399
C       -0.12401399      -0.40254534      -0.18498539
O       -0.09145132       0.00612356      -1.42166569
C       -1.40061162      -0.84706311       0.37404154
N       -1.94368678       0.45503788      -0.00943458
H        2.78216562       0.44006966       0.85069691
H        1.69148666       1.47557155      -0.12187076
H        2.44515897       0.03910038      -0.85956661
H       -1.32086752      -1.05472376       1.44202515
H       -1.85898613      -1.69940504      -0.14019395
H       -2.10372375       1.04274804       0.79684685
H       -1.06750100       0.43328088      -1.32441497
13
Frame=1 idx=003371 GeodesicLength=0.07246328040511195 rxn_smarts="[C:1]([O:2][C:3](=[O:4])[C:5]([N:6]([H:12])[H:13])([H:10])[H:11])([H:7])([H:8])[H:9]>>[C:1]([O:2][C@@:3]1([O:4][H:13])[C:5]([H:10])([H:11])[N:6]1[H:12])([H:7])([H:8])[H:9]"
C        2.03676899       0.45978958       0.06321649
O        0.95232468      -0.35518188       0.53680838
C       -0.12732830      -0.39974254      -0.18872008
O       -0.09381144       0.00429279      -1.42652127
C       -1.39952959      -0.85096506       0.37820819
N       -1.94084365       0.44865149      -0.01541170
H        2.78236211       0.43011853       0.85217750
H        1.68795579       1.47858320      -0.10158423
H        2.43987529       0.05312408      -0.86194844
H       -1.31957385      -1.04870653       1.44771121
H       -1.85440329      -1.70631611      -0.13264515
H       -2.07435192       1.05237799       0.78397625
H       -1.08944481       0.43397446      -1.33526715
13
Frame=2 idx=003371 GeodesicLength=0.14492579360856214 rxn_smarts="[C:1]([O:2][C:3](=[O:4])[C:5]([N:6]([H:12])[H:13])([H:10])[H:11])([H:7])([H:8])[H:9]>>[C:1]([O:2][C@@:3]1([O:4][H:13])[C:5]([H:10])([H:11])[N:6]1[H:12])([H:7])([H:8])[H:9]"
C        2.03367230       0.45992604       0.06808634
O        0.95278009      -0.36266852       0.53329368
C       -0.13053074      -0.39685464      -0.19245418
O       -0.09606904       0.00248691      -1.43138748
C       -1.39827979      -0.85460508       0.38247916
N       -1.93787875       0.44245332      -0.02120516
H        2.78278093       0.41995906       0.85341697
H        1.68464333       1.48128324      -0.08106694
H        2.43460722       0.06725877      -0.86423038
H       -1.31813277      -1.04239440       1.45341792
H       -1.84968243      -1.71295328      -0.12493220
H       -2.04610875       1.06130592       0.77051927
H       -1.11180159       0.43480266      -1.34593699
13
Frame=3 idx=003371 GeodesicLength=0.2173854012471495 rxn_smarts="[C:1]([O:2][C:3](=[O:4])[C:5]([N:6]([H:12])[H:13])([H:10])[H:11])([H:7])([H:8])[H:9]>>[C:1]([O:2][C@@:3]1([O:4][H:13])[C:5]([H:10])([H:11])[N:6]1[H:12])([H:7])([H:8])[H:9]"
C        2.03071643       0.45994591       0.07295427
O        0.95336256      -0.37016781       0.52964666
C       -0.13362113      -0.39389853      -0.19619985
O       -0.09821164       0.00067234      -1.43627725
C       -1.39686853      -0.85799428       0.38683408
N       -1.93479386       0.43643087      -0.02684857
H        2.78339577       0.40962840       0.85443129
H        1.68153487       1.48366945      -0.06033999
H        2.42935927       0.08149713      -0.86638635
H       -1.31655406      -1.03580260       1.45912422
H       -1.84482993      -1.71932648      -0.11707518
H       -2.01890048       1.06958983       0.75656739
H       -1.13458925       0.43575577      -1.35643073
13
Frame=4 idx=003371 GeodesicLength=0.2898322175734521 rxn_smarts="[C:1]([O:2][C:3](=[O:4])[C:5]([N:6]([H:12])[H:13])([H:10])[H:11])([H:7])([H:8])[H:9]>>[C:1]([O:2][C@@:3]1([O:4][H:13])[C:5]([H:10])([H:11])[N:6]1[H:12])([H:7])([H:8])[H:9]"
C        2.02789291       0.45985370       0.07782828
O        0.95405677      -0.37766328       0.52587014
C       -0.13659897      -0.39088130      -0.19996490
O       -0.10022965      -0.00117517      -1.44120027
C       -1.39529712      -0.86114313       0.39125853
N       -1.93159659       0.43056509      -0.03236914
H        2.78419184       0.39913939       0.85522603
H        1.67862212       1.48573781      -0.03940566
H        2.42412971       0.09584170      -0.86839572
H       -1.31484072      -1.02893812       1.46481526
H       -1.83983972      -1.72544892      -0.10908689
H       -1.99265761       1.07728751       0.74217648
H       -1.15783297       0.43682474      -1.36675213
13
Frame=5 idx=003371 GeodesicLength=0.3622691687327584 rxn_smarts="[C:1]([O:2][C:3](=[O:4])[C:5]([N:6]([H:12])[H:13])([H:10])[H:11])([H:7])([H:8])[H:9]>>[C:1]([O:2][C@@:3]1([O:4][H:13])[C:5]([H:10])([H:11])[N:6]1[H:12])([H:7])([H:8])[H:9]"
C        2.02519686       0.45965702       0.08271064
O        0.95484977      -0.38513154       0.52197974
C       -0.13946428      -0.38780977      -0.20375548
O       -0.10210968      -0.00307529      -1.44616447
C       -1.39357073      -0.86406186       0.39573451
N       -1.92829063       0.42484518      -0.03779257
H        2.78515063       0.38852649       0.85581436
H        1.67590626       1.48748569      -0.01830084
H        2.41892641       0.11026668      -0.87023084
H       -1.31300341      -1.02181854       1.47047236
H       -1.83471315      -1.73133017      -0.10098982
H       -1.96731967       1.08443508       0.72741979
H       -1.18155837       0.43801103      -1.37689740
13
Frame=6 idx=003371 GeodesicLength=0.4346851441377697 rxn_smarts="[C:1]([O:2][C:3](=[O:4])[C:5]([N:6]([H:12])[H:13])([H:10])[H:11])([H:7])([H:8])[H:9]>>[C:1]([O:2][C@@:3]1([O:4][H:13])[C:5]([H:10])([H:11])[N:6]1[H:12])([H:7])([H:8])[H:9]"
C        2.02262679       0.45935994       0.08760281
O        0.95573276      -0.39255352       0.51799042
C       -0.14221670      -0.38468620      -0.20757558
O       -0.10383932      -0.00504096      -1.45117240
C       -1.39169173      -0.86675830       0.40024870
N       -1.92487794       0.41926330      -0.04313445
H        2.78625913       0.37781669       0.85621143
H        1.67339178       1.48891448       0.00294055
H        2.41375778       0.12474369      -0.87187478
H       -1.31104899      -1.01445951       1.47608115
H       -1.82944994      -1.73697753      -0.09280255
H       -1.94285277       1.09105576       0.71234483
H       -1.20579086       0.43932216      -1.38686012
13
Frame=7 idx=003371 GeodesicLength=0.5070706544067896 rxn_smarts="[C:1]([O:2][C:3](=[O:4])[C:5]([N:6]([H:12])[H:13])([H:10])[H:11])([H:7])([H:8])[H:9]>>[C:1]([O:2][C@@:3]1([O:4][H:13])[C:5]([H:10])([H:11])[N:6]1[H:12])([H:7])([H:8])[H:9]"
C        2.02017393       0.45897147       0.09250815
O        0.95669783      -0.39992364       0.51390975
C       -0.14485580      -0.38152449      -0.21143414
O       -0.10540517      -0.00710080      -1.45623373
C       -1.38966339      -0.86924244       0.40478762
N       -1.92135365       0.41381402      -0.04840569
H        2.78749727       0.36704038       0.85643660
H        1.67106231       1.49002731       0.02430197
H        2.40863023       0.13926238      -0.87331551
H       -1.30898304      -1.00687802       1.48162715
H       -1.82405919      -1.74239574      -0.08454271
H       -1.91918419       1.09719405       0.69699784
H       -1.23055714       0.44075551      -1.39663729
13
Frame=8 idx=003371 GeodesicLength=0.5794409318664645 rxn_smarts="[C:1]([O:2][C:3](=[O:4])[C:5]([N:6]([H:12])[H:13])([H:10])[H:11])([H:7])([H:8])[H:9]>>[C:1]([O:2][C@@:3]1([O:4][H:13])[C:5]([H:10])([H:11])[N:6]1[H:12])([H:7])([H:8])[H:9]"
C        2.01783085       0.45849444       0.09743769
O        0.95773004      -0.40721993       0.50974549
C       -0.14737846      -0.37833378      -0.21533841
O       -0.10679522      -0.00927872      -1.46135794
C       -1.38748656      -0.87152276       0.40933777
N       -1.91771762       0.40848567      -0.05362480
H        2.78885546       0.35621036       0.85648785
H        1.66891272       1.49081584       0.04577776
H        2.40354035       0.15382752      -0.87452689
H       -1.30680800      -0.99908349       1.48709603
H       -1.81853834      -1.74759161      -0.07622425
H       -1.89624282       1.10289230       0.68140578
H       -1.25590239       0.44230416      -1.40621606
13
Frame=9 idx=003371 GeodesicLength=0.6517345390658391 rxn_smarts="[C:1]([O:2][C:3](=[O:4])[C:5]([N:6]([H:12])[H:13])([H:10])[H:11])([H:7])([H:8])[H:9]>>[C:1]([O:2][C@@:3]1([O:4][H:13])[C:5]([H:10])([H:11])[N:6]1[H:12])([H:7])([H:8])[H:9]"
C        2.01559303       0.45793332       0.10239631
O        0.95882249      -0.41443310       0.50550457
C       -0.14978327      -0.37512102      -0.21929280
O       -0.10799886      -0.01158908      -1.46655211
C       -1.38516222      -0.87360504       0.41389031
N       -1.91396072       0.40328304      -0.05878638
H        2.79032200       0.34534784       0.85637216
H        1.66693808       1.49127741       0.06735730
H        2.39849075       0.16843316      -0.87549212
H       -1.30452352      -0.99109400       1.49247717
H       -1.81289631      -1.75256276      -0.06786476
H       -1.87398530       1.10817900       0.66558832
H       -1.28185616       0.44395123      -1.41559797
13
Frame=10 idx=003371 GeodesicLength=0.7240077754633704 rxn_smarts="[C:1]([O:2][C:3](=[O:4])[C:5]([N:6]([H:12])[H:13])([H:10])[H:11])([H:7])([H:8])[H:9]>>[C:1]([O:2][C@@:3]1([O:4][H:13])[C:5]([H:10])([H:11])[N:6]1[H:12])([H:7])([H:8])[H:9]"
C        2.01345172       0.45729455       0.10738784
O        0.95997342      -0.42156437       0.50119265
C       -0.15206597      -0.37190806      -0.22331119
O       -0.10899691      -0.01406401      -1.47182758
C       -1.38269368      -0.87549630       0.41843098
N       -1.91007408       0.39819812      -0.06391825
H        2.79188192       0.33447918       0.85610412
H        1.66511655       1.49140997       0.08903164
H        2.39348398       0.18308150      -0.87619261
H       -1.30213497      -0.98291237       1.49775743
H       -1.80714135      -1.75731552      -0.05947300
H       -1.85233030       1.11309096       0.64957683
H       -1.30847033       0.44570634      -1.42475887
13
Frame=11 idx=003371 GeodesicLength=0.7962793488026068 rxn_smarts="[C:1]([O:2][C:3](=[O:4])[C:5]([N:6]([H:12])[H:13])([H:10])[H:11])([H:7])([H:8])[H:9]>>[C:1]([O:2][C@@:3]1([O:4][H:13])[C:5]([H:10])([H:11])[N:6]1[H:12])([H:7])([H:8])[H:9]"
C        2.01139901       0.45658712       0.11241802
O        0.96118530      -0.42862249       0.49681756
C       -0.15422207      -0.36871550      -0.22740518
O       -0.10977061      -0.01673319      -1.47719389
C       -1.38008315      -0.87720170       0.42294886
N       -1.90604234       0.39323328      -0.06903373
H        2.79352026       0.32363200       0.85570298
H        1.66342471       1.49121968       0.11078779
H        2.38852921       0.19776770      -0.87662217
H       -1.29964656      -0.97454896       1.50292543
H       -1.80128918      -1.76184985      -0.05106152
H       -1.83121286       1.11765528       0.63338760
H       -1.33579174       0.44757662      -1.43367176
13
Frame=12 idx=003371 GeodesicLength=0.8685559608921292 rxn_smarts="[C:1]([O:2][C:3](=[O:4])[C:5]([N:6]([H:12])[H:13])([H:10])[H:11])([H:7])([H:8])[H:9]>>[C:1]([O:2][C@@:3]1([O:4][H:13])[C:5]([H:10])([H:11])[N:6]1[H:12])([H:7])([H:8])[H:9]"
C        2.00942417       0.45581596       0.11749621
O        0.96246028      -0.43562081       0.49237462
C       -0.15624532      -0.36556833      -0.23158935
O       -0.11030115      -0.01963153      -1.48266670
C       -1.37733141      -0.87872275       0.42743550
N       -1.90184595       0.38839401      -0.07414548
H        2.79522783       0.31281785       0.85517410
H        1.66183321       1.49069952       0.13264635
H        2.38361977       0.21252357      -0.87676621
H       -1.29705355      -0.96600187       1.50797291
H       -1.79535523      -1.76616250      -0.04263257
H       -1.81055626       1.12190677       0.61702172
H       -1.36387639       0.44955013      -1.44232108
13
Frame=13 idx=003371 GeodesicLength=0.9408298622592685 rxn_smarts="[C:1]([O:2][C:3](=[O:4])[C:5]([N:6]([H:12])[H:13])([H:10])[H:11])([H:7])([H:8])[H:9]>>[C:1]([O:2][C@@:3]1([O:4][H:13])[C:5]([H:10])([H:11])[N:6]1[H:12])([H:7])([H:8])[H:9]"
C        2.00752113       0.45499029       0.12262377
O        0.96380276      -0.44257068       0.48786803
C       -0.15813151      -0.36248264      -0.23587665
O       -0.11056904      -0.02278471      -1.48825477
C       -1.37444052      -0.88006315       0.43187915
N       -1.89746992       0.38368464      -0.07926355
H        2.79698841       0.30206629       0.85454764
H        1.66032013       1.48985966       0.15459071
H        2.37877003       0.22733415      -0.87662198
H       -1.29435802      -0.95728007       1.51288870
H       -1.78935491      -1.77025217      -0.03419951
H       -1.79030231       1.12586514       0.60049424
H       -1.39277624       0.45163324      -1.45067578
13
Frame=14 idx=003371 GeodesicLength=1.0131229456872746 rxn_smarts="[C:1]([O:2][C:3](=[O:4])[C:5]([N:6]([H:12])[H:13])([H:10])[H:11])([H:7])([H:8])[H:9]>>[C:1]([O:2][C@@:3]1([O:4][H:13])[C:5]([H:10])([H:11])[N:6]1[H:12])([H:7])([H:8])[H:9]"
C        2.00567906       0.45411173       0.12781328
O        0.96521701      -0.44948701       0.48328893
C       -0.15987154      -0.35948670      -0.24028389
O       -0.11055282      -0.02623017      -1.49397718
C       -1.37140813      -0.88122239       0.43627306
N       -1.89289373       0.37910601      -0.08441055
H        2.79879831       0.29138046       0.85381907
H        1.65885392       1.48868358       0.17665811
H        2.37396575       0.24224586      -0.87617073
H       -1.29155212      -0.94837019       1.51766539
H       -1.78329934      -1.77411745      -0.02575708
H       -1.77037422       1.12956538       0.58378238
H       -1.42256215       0.45382089      -1.45870078
13
Frame=15 idx=003371 GeodesicLength=1.0854250682989803 rxn_smarts="[C:1]([O:2][C:3](=[O:4])[C:5]([N:6]([H:12])[H:13])([H:10])[H:11])([H:7])([H:8])[H:9]>>[C:1]([O:2][C@@:3]1([O:4][H:13])[C:5]([H:10])([H:11])[N:6]1[H:12])([H:7])([H:8])[H:9]"
C        2.00389014       0.45318708       0.13307204
O        0.96670911      -0.45638378       0.47863683
C       -0.16145853      -0.35660094      -0.24482632
O       -0.11022964      -0.02999754      -1.49984583
C       -1.36823454      -0.88220094       0.44060665
N       -1.88809870       0.37466351      -0.08960152
H        2.80064759       0.28077782       0.85300716
H        1.65740920       1.48717308       0.19884899
H        2.36921016       0.25726690      -0.87540335
H       -1.28863345      -0.93927194       1.52229263
H       -1.77720352      -1.77775547      -0.01731238
H       -1.75070830       1.13302808       0.56688257
H       -1.45329953       0.45611412      -1.46635746
13
Frame=16 idx=003371 GeodesicLength=1.1577448226655913 rxn_smarts="[C:1]([O:2][C:3](=[O:4])[C:5]([N:6]([H:12])[H:13])([H:10])[H:11])([H:7])([H:8])[H:9]>>[C:1]([O:2][C@@:3]1([O:4][H:13])[C:5]([H:10])([H:11])[N:6]1[H:12])([H:7])([H:8])[H:9]"
C        2.00214185       0.45222235       0.13841063
O        0.96828937      -0.46328789       0.47389926
C       -0.16288250      -0.35385772      -0.24952500
O       -0.10957445      -0.03412963      -1.50588117
C       -1.36491786      -0.88299623       0.44487210
N       -1.88305861       0.37036248      -0.09485931
H        2.80252775       0.27027018       0.85212046
H        1.65594597       1.48531654       0.22119718
H        2.36449629       0.27243593      -0.87430888
H       -1.28559287      -0.92997011       1.52676238
H       -1.77108581      -1.78116179      -0.00886045
H       -1.73122552       1.13627993       0.54976800
H       -1.48506362       0.45851595      -1.47359520
