19
Frame=0 idx=011041 GeodesicLength=0.0 rxn_smarts="[C:1]([C:2]([C:3]([C@@:4]1([H:15])[C:5]([H:16])([H:17])[C@:6]1([O:7][H:19])[H:18])([H:13])[H:14])([H:11])[H:12])([H:8])([H:9])[H:10]>>[C:1]([C:2]([C:3]([C:4][C:5]([C:6]([O:7][H:19])([H:15])[H:18])([H:16])[H:17])([H:13])[H:14])([H:11])[H:12])([H:8])([H:9])[H:10]"
C       -2.79689071       0.22991425      -0.24489556
C       -1.47971673       0.51960751       0.46172667
C       -0.42026605      -0.54305216       0.20240203
C        0.82641644      -0.41198077       1.03309617
C        2.02651556      -0.94364170       0.34051484
C        2.09719492       0.52827071      -0.03355137
O        1.81710650       0.88260519      -1.34671246
H       -2.65929434       0.16086871      -1.32703147
H       -3.22410125      -0.71714195       0.09502623
H       -3.53292693       1.01262495      -0.05348869
H       -1.63413866       0.60473337       1.54031008
H       -1.09228908       1.48845452       0.12801639
H       -0.24274277      -0.64290538      -0.87971123
H       -0.79841688      -1.52163782       0.53443545
H        1.26184701       0.97540627       0.67071319
H        1.86801384      -1.58066252      -0.53503829
H        2.84550646      -1.30274646       0.95716644
H        2.95980182       1.04175987       0.39284770
H        2.17838091       0.21952336      -1.93582604
19
Frame=1 idx=011041 GeodesicLength=0.08919327214294709 rxn_smarts="[C:1]([C:2]([C:3]([C@@:4]1([H:15])[C:5]([H:16])([H:17])[C@:6]1([O:7][H:19])[H:18])([H:13])[H:14])([H:11])[H:12])([H:8])([H:9])[H:10]>>[C:1]([C:2]([C:3]([C:4][C:5]([C:6]([O:7][H:19])([H:15])[H:18])([H:16])[H:17])([H:13])[H:14])([H:11])[H:12])([H:8])([H:9])[H:10]"
C       -2.80469309       0.21895860      -0.24382635
C       -1.48059695       0.52428048       0.44313743
C       -0.42372157      -0.54390980       0.19666377
C        0.82725065      -0.40608165       1.01351315
C        2.02877324      -0.94460805       0.33154330
C        2.12326134       0.53052758      -0.01732901
O        1.85313683       0.92638077      -1.31958730
H       -2.67748835       0.11943326      -1.32484340
H       -3.23056993      -0.71745636       0.12601269
H       -3.53749012       1.00811541      -0.06715427
H       -1.62464645       0.63447612       1.52089512
H       -1.09667113       1.48522186       0.08374978
H       -0.25107461      -0.66257733      -0.88403255
H       -0.80174690      -1.51661323       0.54680335
H        1.29516935       0.98643229       0.71462013
H        1.87180943      -1.56858435      -0.55325961
H        2.82868228      -1.32874878       0.95835492
H        3.00034216       1.01692585       0.41170839
H        2.10027381       0.23782734      -1.93696952
19
Frame=2 idx=011041 GeodesicLength=0.1797655963309061 rxn_smarts="[C:1]([C:2]([C:3]([C@@:4]1([H:15])[C:5]([H:16])([H:17])[C@:6]1([O:7][H:19])[H:18])([H:13])[H:14])([H:11])[H:12])([H:8])([H:9])[H:10]>>[C:1]([C:2]([C:3]([C:4][C:5]([C:6]([O:7][H:19])([H:15])[H:18])([H:16])[H:17])([H:13])[H:14])([H:11])[H:12])([H:8])([H:9])[H:10]"
C       -2.81268065       0.20758963      -0.24269407
C       -1.48173039       0.52897750       0.42356752
C       -0.42729304      -0.54471073       0.19103924
C        0.82845976      -0.39802901       0.99278769
C        2.03079941      -0.94569022       0.32224077
C        2.15083089       0.53186073      -0.00158321
O        1.89501722       0.96638248      -1.29349808
H       -2.69614514       0.07706924      -1.32162919
H       -3.23644529      -0.71734148       0.15738467
H       -3.54263299       1.00261647      -0.08125911
H       -1.61519084       0.66528974       1.49975391
H       -1.10187500       1.48122457       0.03780266
H       -0.26033580      -0.68414068      -0.88780960
H       -0.80451443      -1.51064769       0.56143879
H        1.32973888       0.99607329       0.75773656
H        1.87540038      -1.55627651      -0.57187416
H        2.81020645      -1.35545491       0.95892767
H        3.04159528       0.99030920       0.43050368
H        2.01679531       0.26489836      -1.93283574
19
Frame=3 idx=011041 GeodesicLength=0.2709407499281583 rxn_smarts="[C:1]([C:2]([C:3]([C@@:4]1([H:15])[C:5]([H:16])([H:17])[C@:6]1([O:7][H:19])[H:18])([H:13])[H:14])([H:11])[H:12])([H:8])([H:9])[H:10]>>[C:1]([C:2]([C:3]([C:4][C:5]([C:6]([O:7][H:19])([H:15])[H:18])([H:16])[H:17])([H:13])[H:14])([H:11])[H:12])([H:8])([H:9])[H:10]"
C       -2.82130605       0.19536491      -0.24077699
C       -1.48309603       0.53384770       0.40214296
C       -0.43124481      -0.54555556       0.18533488
C        0.82980678      -0.38821084       0.97038181
C        2.03225847      -0.94697204       0.31188216
C        2.17981225       0.53197129       0.01411317
O        1.94205707       1.00209490      -1.26776277
H       -2.71641934       0.03081321      -1.31620202
H       -3.24241426      -0.71586363       0.19218171
H       -3.54830831       0.99631357      -0.09647249
H       -1.60500803       0.69889696       1.47564825
H       -1.10795818       1.47575563      -0.01221377
H       -0.27074859      -0.70814004      -0.89088900
H       -0.80716327      -1.50324289       0.57863118
H        1.36534044       1.00362598       0.80049686
H        1.87854786      -1.54293744      -0.59191889
H        2.78926180      -1.38351949       0.95795208
H        3.08350353       0.96109079       0.44974669
H        1.93307866       0.30466700      -1.92227582
19
Frame=4 idx=011041 GeodesicLength=0.36299238920516447 rxn_smarts="[C:1]([C:2]([C:3]([C@@:4]1([H:15])[C:5]([H:16])([H:17])[C@:6]1([O:7][H:19])[H:18])([H:13])[H:14])([H:11])[H:12])([H:8])([H:9])[H:10]>>[C:1]([C:2]([C:3]([C:4][C:5]([C:6]([O:7][H:19])([H:15])[H:18])([H:16])[H:17])([H:13])[H:14])([H:11])[H:12])([H:8])([H:9])[H:10]"
C       -2.83073741       0.18255439      -0.23842748
C       -1.48572247       0.53848309       0.38057923
C       -0.43556628      -0.54560120       0.17966954
C        0.83134374      -0.37496294       0.94625337
C        2.03308062      -0.94816157       0.30140516
C        2.21058170       0.53090287       0.02833327
O        1.99563964       1.03091768      -1.24561405
H       -2.73743029      -0.01438738      -1.30945412
H       -3.24763978      -0.71507199       0.22592423
H       -3.55592679       0.98786273      -0.11032430
H       -1.59623156       0.73192490       1.45060256
H       -1.11653677       1.46981946      -0.06184410
H       -0.28249667      -0.73290927      -0.89330810
H       -0.80874844      -1.49424882       0.59767629
H        1.40202097       1.01069327       0.84049293
H        1.88099845      -1.52980688      -0.61169096
H        2.76568818      -1.41164854       0.95706089
H        3.12625698       0.92996266       0.46781239
H        1.85142619       0.35367755      -1.90514676
19
Frame=5 idx=011041 GeodesicLength=0.4552324323617381 rxn_smarts="[C:1]([C:2]([C:3]([C@@:4]1([H:15])[C:5]([H:16])([H:17])[C@:6]1([O:7][H:19])[H:18])([H:13])[H:14])([H:11])[H:12])([H:8])([H:9])[H:10]>>[C:1]([C:2]([C:3]([C:4][C:5]([C:6]([O:7][H:19])([H:15])[H:18])([H:16])[H:17])([H:13])[H:14])([H:11])[H:12])([H:8])([H:9])[H:10]"
C       -2.84114967       0.16886064      -0.23516608
C       -1.48941051       0.54301571       0.35805351
C       -0.44035903      -0.54506407       0.17384689
C        0.83290220      -0.35898098       0.92008612
C        2.03308733      -0.94936242       0.29029906
C        2.24279688       0.52849720       0.04163250
O        2.05397848       1.05312074      -1.22611358
H       -2.75992124      -0.06124973      -1.30053233
H       -3.25261858      -0.71401412       0.26123449
H       -3.56514148       0.97768555      -0.12370096
H       -1.58804061       0.76594448       1.42351686
H       -1.12738981       1.46279954      -0.11326840
H       -0.29551950      -0.75883486      -0.89501082
H       -0.80961066      -1.48342368       0.61857966
H        1.43966667       1.01645783       0.87894353
H        1.88269240      -1.51632983      -0.63200924
H        2.73912302      -1.44013118       0.95545385
H        3.16962529       0.89646716       0.48504325
H        1.77528884       0.41454199      -1.88088831
19
Frame=6 idx=011041 GeodesicLength=0.5472891130038564 rxn_smarts="[C:1]([C:2]([C:3]([C@@:4]1([H:15])[C:5]([H:16])([H:17])[C@:6]1([O:7][H:19])[H:18])([H:13])[H:14])([H:11])[H:12])([H:8])([H:9])[H:10]>>[C:1]([C:2]([C:3]([C:4][C:5]([C:6]([O:7][H:19])([H:15])[H:18])([H:16])[H:17])([H:13])[H:14])([H:11])[H:12])([H:8])([H:9])[H:10]"
C       -2.85255149       0.15433144      -0.23104267
C       -1.49446514       0.54732375       0.33504163
C       -0.44559059      -0.54365528       0.16782762
C        0.83443818      -0.33994957       0.89175154
C        2.03222136      -0.95044020       0.27886277
C        2.27626195       0.52474094       0.05359336
O        2.11581029       1.06795834      -1.21011389
H       -2.78354830      -0.10860491      -1.28964264
H       -3.25714048      -0.71322546       0.29703601
H       -3.57627887       0.96545854      -0.13595306
H       -1.58108109       0.80001326       1.39493095
H       -1.14097905       1.45491895      -0.16526965
H       -0.30969069      -0.78511332      -0.89601368
H       -0.80943351      -1.47062214       0.64083748
H        1.47833024       1.02104638       0.91573244
H        1.88359296      -1.50298085      -0.65225257
H        2.70940422      -1.46826744       0.95370483
H        3.21350699       0.86081171       0.50050531
H        1.70719303       0.48625586      -1.84953580
19
Frame=7 idx=011041 GeodesicLength=0.6384413523342988 rxn_smarts="[C:1]([C:2]([C:3]([C@@:4]1([H:15])[C:5]([H:16])([H:17])[C@:6]1([O:7][H:19])[H:18])([H:13])[H:14])([H:11])[H:12])([H:8])([H:9])[H:10]>>[C:1]([C:2]([C:3]([C:4][C:5]([C:6]([O:7][H:19])([H:15])[H:18])([H:16])[H:17])([H:13])[H:14])([H:11])[H:12])([H:8])([H:9])[H:10]"
C       -2.86480142       0.13908742      -0.22608893
C       -1.50084874       0.55134671       0.31165075
C       -0.45121608      -0.54140730       0.16161762
C        0.83590260      -0.31817749       0.86121658
C        2.03049682      -0.95129064       0.26717629
C        2.31039184       0.51971594       0.06411218
O        2.17854839       1.07576128      -1.19756773
H       -2.80801624      -0.15620281      -1.27684585
H       -3.26115963      -0.71262664       0.33312265
H       -3.58916740       0.95134512      -0.14703902
H       -1.57543933       0.83392464       1.36493037
H       -1.15716841       1.44608286      -0.21760601
H       -0.32482346      -0.81143545      -0.89625358
H       -0.80816711      -1.45582457       0.66414191
H        1.51790143       1.02387445       0.95165851
H        1.88378694      -1.48999732      -0.67216524
H        2.67671501      -1.49539379       0.95189759
H        3.25748601       0.82336175       0.51339805
H        1.64957878       0.56785586      -1.81135612
19
Frame=8 idx=011041 GeodesicLength=0.728389726857403 rxn_smarts="[C:1]([C:2]([C:3]([C@@:4]1([H:15])[C:5]([H:16])([H:17])[C@:6]1([O:7][H:19])[H:18])([H:13])[H:14])([H:11])[H:12])([H:8])([H:9])[H:10]>>[C:1]([C:2]([C:3]([C:4][C:5]([C:6]([O:7][H:19])([H:15])[H:18])([H:16])[H:17])([H:13])[H:14])([H:11])[H:12])([H:8])([H:9])[H:10]"
C       -2.87768442       0.12322109      -0.22035309
C       -1.50837390       0.55507486       0.28775505
C       -0.45715179      -0.53844922       0.15528753
C        0.83730207      -0.29411561       0.82848909
C        2.02795389      -0.95186381       0.25518479
C        2.34464937       0.51353016       0.07325525
O        2.23995116       1.07750411      -1.18805245
H       -2.83306404      -0.20431293      -1.26209252
H       -3.26463916      -0.71186833       0.36967554
H       -3.60346291       0.93559483      -0.15727154
H       -1.57094191       0.86790134       1.33328160
H       -1.17559630       1.43601991      -0.27060341
H       -0.34072362      -0.83780514      -0.89557991
H       -0.80582710      -1.43897636       0.68844096
H        1.55820001       1.02405872       0.98769743
H        1.88339019      -1.47746686      -0.69176358
H        2.64130336      -1.52109352       0.94988810
H        3.30118106       0.78439562       0.52328042
H        1.60353404       0.65865114      -1.76651927
19
Frame=9 idx=011041 GeodesicLength=0.8170753049102616 rxn_smarts="[C:1]([C:2]([C:3]([C@@:4]1([H:15])[C:5]([H:16])([H:17])[C@:6]1([O:7][H:19])[H:18])([H:13])[H:14])([H:11])[H:12])([H:8])([H:9])[H:10]>>[C:1]([C:2]([C:3]([C:4][C:5]([C:6]([O:7][H:19])([H:15])[H:18])([H:16])[H:17])([H:13])[H:14])([H:11])[H:12])([H:8])([H:9])[H:10]"
C       -2.89093196       0.10684431      -0.21386222
C       -1.51671711       0.55852043       0.26298607
C       -0.46331330      -0.53504855       0.14901071
C        0.83866115      -0.26838221       0.79365867
C        2.02463299      -0.95216702       0.24268878
C        2.37846634       0.50634211       0.08121383
O        2.29802052       1.07459912      -1.18092210
H       -2.85852857      -0.25342023      -1.24519145
H       -3.26746911      -0.71037355       0.40712567
H       -3.61870285       0.91852288      -0.16708288
H       -1.56715252       0.90255606       1.29936927
H       -1.19571005       1.42421499      -0.32515228
H       -0.35728160      -0.86467228      -0.89367507
H       -0.80251394      -1.41999684       0.71401323
H        1.59882010       1.02046617       1.02487797
H        1.88248706      -1.46534679      -0.71133060
H        2.60358750      -1.54517255       0.94720123
H        3.34413016       0.74422880       0.52998795
H        1.56951519       0.75828517      -1.71491678
19
Frame=10 idx=011041 GeodesicLength=0.9040858649045155 rxn_smarts="[C:1]([C:2]([C:3]([C@@:4]1([H:15])[C:5]([H:16])([H:17])[C@:6]1([O:7][H:19])[H:18])([H:13])[H:14])([H:11])[H:12])([H:8])([H:9])[H:10]>>[C:1]([C:2]([C:3]([C:4][C:5]([C:6]([O:7][H:19])([H:15])[H:18])([H:16])[H:17])([H:13])[H:14])([H:11])[H:12])([H:8])([H:9])[H:10]"
C       -2.90415956       0.09033871      -0.20679351
C       -1.52544801       0.56157819       0.23716639
C       -0.46963314      -0.53165534       0.14320924
C        0.84002373      -0.24182528       0.75698882
C        2.02071988      -0.95206209       0.22931576
C        2.41101553       0.49855753       0.08812429
O        2.35002472       1.06945825      -1.17520804
H       -2.88391940      -0.30348066      -1.22608615
H       -3.26969392      -0.70730330       0.44542620
H       -3.63419713       0.90076799      -0.17706468
H       -1.56372986       0.93816134       1.26273025
H       -1.21656057       1.41000103      -0.38167190
H       -0.37450398      -0.89293186      -0.88982205
H       -0.79841908      -1.39882756       0.74144416
H        1.63904089       1.01164267       1.06431446
H        1.88125415      -1.45330798      -0.73133815
H        2.56435256      -1.56731326       0.94306271
H        3.38563646       0.70364439       0.53314574
H        1.54819672       0.86455721      -1.65694354
19
Frame=11 idx=011041 GeodesicLength=0.9893535783390265 rxn_smarts="[C:1]([C:2]([C:3]([C@@:4]1([H:15])[C:5]([H:16])([H:17])[C@:6]1([O:7][H:19])[H:18])([H:13])[H:14])([H:11])[H:12])([H:8])([H:9])[H:10]>>[C:1]([C:2]([C:3]([C:4][C:5]([C:6]([O:7][H:19])([H:15])[H:18])([H:16])[H:17])([H:13])[H:14])([H:11])[H:12])([H:8])([H:9])[H:10]"
C       -2.91701826       0.07406269      -0.19927248
C       -1.53410981       0.56416349       0.20998418
C       -0.47604512      -0.52871019       0.13838041
C        0.84142478      -0.21527017       0.71883784
C        2.01637754      -0.95148889       0.21460739
C        2.44165694       0.49059661       0.09427005
O        2.39441271       1.06459225      -1.16986158
H       -2.90893192      -0.35440050      -1.20466366
H       -3.27123560      -0.70187035       0.48459862
H       -3.64933010       0.88288552      -0.18765180
H       -1.56021134       0.97516545       1.22266819
H       -1.23722935       1.39261014      -0.44084864
H       -0.39245811      -0.92366147      -0.88311889
H       -0.79371486      -1.37530413       0.77149267
H        1.67784710       0.99630166       1.10664296
H        1.87976995      -1.44087426      -0.75248664
H        2.52446779      -1.58757989       0.93645526
H        3.42503544       0.66343564       0.53295791
H        1.53929223       0.97534638      -1.59299177
19
Frame=12 idx=011041 GeodesicLength=1.0734010265605256 rxn_smarts="[C:1]([C:2]([C:3]([C@@:4]1([H:15])[C:5]([H:16])([H:17])[C@:6]1([O:7][H:19])[H:18])([H:13])[H:14])([H:11])[H:12])([H:8])([H:9])[H:10]>>[C:1]([C:2]([C:3]([C:4][C:5]([C:6]([O:7][H:19])([H:15])[H:18])([H:16])[H:17])([H:13])[H:14])([H:11])[H:12])([H:8])([H:9])[H:10]"
C       -2.92932507       0.05814894      -0.19128173
C       -1.54237644       0.56618278       0.18085283
C       -0.48246431      -0.52645607       0.13495264
C        0.84291787      -0.18923948       0.67940878
C        2.01169601      -0.95044113       0.19791936
C        2.47020076       0.48267666       0.10000455
O        2.43097476       1.06193163      -1.16389757
H       -2.93356223      -0.40696500      -1.18027774
H       -3.27209282      -0.69300502       0.52530133
H       -3.66370634       0.86512986      -0.19959889
H       -1.55613272       1.01429668       1.17795082
H       -1.25711318       1.37099465      -0.50387335
H       -0.41119657      -0.95790200      -0.87250563
H       -0.78848051      -1.34886893       0.80494765
H        1.71437484       0.97329336       1.15195297
H        1.87798391      -1.42729572      -0.77576029
H        2.48434434      -1.60653583       0.92614589
H        3.46207876       0.62384310       0.52994256
H        1.54187898       1.09021153      -1.52218420
19
Frame=13 idx=011041 GeodesicLength=1.1569658808515664 rxn_smarts="[C:1]([C:2]([C:3]([C@@:4]1([H:15])[C:5]([H:16])([H:17])[C@:6]1([O:7][H:19])[H:18])([H:13])[H:14])([H:11])[H:12])([H:8])([H:9])[H:10]>>[C:1]([C:2]([C:3]([C:4][C:5]([C:6]([O:7][H:19])([H:15])[H:18])([H:16])[H:17])([H:13])[H:14])([H:11])[H:12])([H:8])([H:9])[H:10]"
C       -2.94094276       0.04258446      -0.18259879
C       -1.54994968       0.56743350       0.14883766
C       -0.48884277      -0.52508528       0.13331996
C        0.84448296      -0.16413335       0.63879088
C        2.00659724      -0.94890812       0.17827268
C        2.49658547       0.47488552       0.10583959
O        2.45985101       1.06332386      -1.15602468
H       -2.95801966      -0.46291268      -1.15143458
H       -3.27229681      -0.67894254       0.56891933
H       -3.67692754       0.84751078      -0.21403844
H       -1.55086798       1.05661640       1.12656487
H       -1.27570715       1.34345072      -0.57258381
H       -0.43081200      -0.99685526      -0.85665766
H       -0.78283046      -1.31855448       0.84269526
H        1.74777347       0.94137259       1.20017998
H        1.87561263      -1.41139751      -0.80262895
H        2.44402031      -1.62508925       0.91034336
H        3.49663517       0.58474612       0.52481035
H        1.55563856       1.20995453      -1.44260702
19
Frame=14 idx=011041 GeodesicLength=1.2398999565180786 rxn_smarts="[C:1]([C:2]([C:3]([C@@:4]1([H:15])[C:5]([H:16])([H:17])[C@:6]1([O:7][H:19])[H:18])([H:13])[H:14])([H:11])[H:12])([H:8])([H:9])[H:10]>>[C:1]([C:2]([C:3]([C:4][C:5]([C:6]([O:7][H:19])([H:15])[H:18])([H:16])[H:17])([H:13])[H:14])([H:11])[H:12])([H:8])([H:9])[H:10]"
C       -2.95135223       0.02801343      -0.17389645
C       -1.55634731       0.56760630       0.11400797
C       -0.49494667      -0.52478535       0.13448017
C        0.84623506      -0.14074875       0.59819964
C        2.00138550      -0.94685793       0.15538281
C        2.52024938       0.46752587       0.11159393
O        2.47920013       1.07045313      -1.14568367
H       -2.98140885      -0.52073272      -1.11858782
H       -3.27172031      -0.65899226       0.61384605
H       -3.68833729       0.83055147      -0.23165788
H       -1.54442369       1.10149752       1.06801193
H       -1.29190767       1.30913692      -0.64627910
H       -0.45112558      -1.04123861      -0.83359521
H       -0.77678646      -1.28374903       0.88551370
H        1.77726906       0.89980054       1.25065331
H        1.87242290      -1.39269589      -0.83342041
H        2.40507192      -1.64336618       0.88799798
H        3.52833762       0.54725021       0.51667061
H        1.57818449       1.33133134      -1.35323757
19
Frame=15 idx=011041 GeodesicLength=1.322081579722515 rxn_smarts="[C:1]([C:2]([C:3]([C@@:4]1([H:15])[C:5]([H:16])([H:17])[C@:6]1([O:7][H:19])[H:18])([H:13])[H:14])([H:11])[H:12])([H:8])([H:9])[H:10]>>[C:1]([C:2]([C:3]([C:4][C:5]([C:6]([O:7][H:19])([H:15])[H:18])([H:16])[H:17])([H:13])[H:14])([H:11])[H:12])([H:8])([H:9])[H:10]"
C       -2.96007461       0.01493026      -0.16590440
C       -1.56116851       0.56638974       0.07673134
C       -0.50051314      -0.52539919       0.13931749
C        0.84824665      -0.11962203       0.55909942
C        1.99622446      -0.94419218       0.12912117
C        2.54085775       0.46083304       0.11704086
O        2.48775983       1.08467985      -1.13220880
H       -3.00278074      -0.57906910      -1.08232083
H       -3.27038999      -0.63268565       0.65836182
H       -3.69732251       0.81453351      -0.25327082
H       -1.53694403       1.14790841       1.00226638
H       -1.30475379       1.26753839      -0.72357159
H       -0.47172764      -1.09080169      -0.80150445
H       -0.77038398      -1.24376267       0.93357186
H        1.80269015       0.84839503       1.30234780
H        1.86789512      -1.37060115      -0.86825990
H        2.36874291      -1.66154185       0.85834569
H        3.55706932       0.51226677       0.50460467
H        1.60657275       1.45020053      -1.25376770
19
Frame=16 idx=011041 GeodesicLength=1.4037598163184193 rxn_smarts="[C:1]([C:2]([C:3]([C@@:4]1([H:15])[C:5]([H:16])([H:17])[C@:6]1([O:7][H:19])[H:18])([H:13])[H:14])([H:11])[H:12])([H:8])([H:9])[H:10]>>[C:1]([C:2]([C:3]([C:4][C:5]([C:6]([O:7][H:19])([H:15])[H:18])([H:16])[H:17])([H:13])[H:14])([H:11])[H:12])([H:8])([H:9])[H:10]"
C       -2.96697175       0.00343233      -0.15912726
C       -1.56440386       0.56355688       0.03766716
C       -0.50534276      -0.52628199       0.14819430
C        0.85050370      -0.10064191       0.52266210
C        1.99104635      -0.94077640       0.09975343
C        2.55853833       0.45481581       0.12191778
O        2.48575914       1.10602488      -1.11521457
H       -3.02154790      -0.63681216      -1.04320885
H       -3.26841181      -0.60034015       0.70091344
H       -3.70385078       0.79912247      -0.27912279
H       -1.52890040       1.19444480       0.92994328
H       -1.31401981       1.21879492      -0.80248643
H       -0.49201185      -1.14389084      -0.75948800
H       -0.76358286      -1.19804596       0.98599493
H        1.82444805       0.78785978       1.35374682
H        1.86138172      -1.34481230      -0.90670116
H        2.33547191      -1.67963725       0.82148315
H        3.58304259       0.48020209       0.48801025
H        1.63885199       1.56298501      -1.14493758
