11
Frame=0 idx=010262 GeodesicLength=0.0 rxn_smarts="[C:1](#[C:2][c:3]1[c:4]([H:9])[n:5]([H:10])[n:6][c:7]1[H:11])[H:8]>>[C:1](#[C:2][C@:3]1(/[C:4](=[N:5]/[H:10])[H:9])[N:6]=[C:7]1[H:11])[H:8]"
C        2.59536379      -0.38672630      -0.12989972
C        1.42318472      -0.13165007      -0.03532495
C        0.06337430       0.21467343       0.08671347
C       -0.91669833      -0.74724515       0.48023173
N       -2.08796291      -0.80995744      -0.01758982
N       -1.42266261       1.41751012      -1.05769248
C       -0.35473299       1.52128429      -0.45680813
H        3.63042597      -0.62317632      -0.20937438
H       -0.57269965      -1.41152607       1.28041877
H       -2.69546961      -1.41346976       0.53551637
H        0.33787728       2.37028322      -0.47619091
11
Frame=1 idx=010262 GeodesicLength=0.06271978361704683 rxn_smarts="[C:1](#[C:2][c:3]1[c:4]([H:9])[n:5]([H:10])[n:6][c:7]1[H:11])[H:8]>>[C:1](#[C:2][C@:3]1(/[C:4](=[N:5]/[H:10])[H:9])[N:6]=[C:7]1[H:11])[H:8]"
C        2.60222883      -0.37408402      -0.12150575
C        1.43117927      -0.11703117      -0.02311556
C        0.06368871       0.21128131       0.07079819
C       -0.91249241      -0.74948034       0.47283690
N       -2.11082626      -0.75349325       0.03697153
N       -1.39796374       1.36827831      -1.09389764
C       -0.36013547       1.52281866      -0.44789125
H        3.63424957      -0.62571739      -0.19393372
H       -0.55815977      -1.47692527       1.21034240
H       -2.70663908      -1.39003427       0.56363484
H        0.31487034       2.38438743      -0.47423995
11
Frame=2 idx=010262 GeodesicLength=0.12514126815910756 rxn_smarts="[C:1](#[C:2][c:3]1[c:4]([H:9])[n:5]([H:10])[n:6][c:7]1[H:11])[H:8]>>[C:1](#[C:2][C@:3]1(/[C:4](=[N:5]/[H:10])[H:9])[N:6]=[C:7]1[H:11])[H:8]"
C        2.61378909      -0.35224042      -0.09634138
C        1.43918169      -0.10464512      -0.02352270
C        0.06477164       0.20482366       0.04561325
C       -0.90575853      -0.75740290       0.45478011
N       -2.13206967      -0.68969163       0.10810838
N       -1.38358491       1.32360777      -1.11768818
C       -0.36607866       1.52111001      -0.44680217
H        3.63914451      -0.63151946      -0.16243149
H       -0.54171053      -1.55361782       1.11121424
H       -2.71732548      -1.35632807       0.60713658
H        0.28964085       2.39590397      -0.48006664
11
Frame=3 idx=010262 GeodesicLength=0.18731545030755997 rxn_smarts="[C:1](#[C:2][c:3]1[c:4]([H:9])[n:5]([H:10])[n:6][c:7]1[H:11])[H:8]>>[C:1](#[C:2][C@:3]1(/[C:4](=[N:5]/[H:10])[H:9])[N:6]=[C:7]1[H:11])[H:8]"
C        2.62274254      -0.33950481      -0.05967206
C        1.44684118      -0.09574814      -0.00049081
C        0.06630649       0.19745941       0.03164487
C       -0.90298327      -0.76485323       0.44155194
N       -2.14706481      -0.62009325       0.19061646
N       -1.36554829       1.27361922      -1.13996757
C       -0.36651347       1.51383828      -0.45090635
H        3.64793407      -0.61046727      -0.15572334
H       -0.54141300      -1.63623814       0.99469197
H       -2.73107167      -1.31834198       0.64432835
H        0.27077024       2.40032993      -0.49607344
11
Frame=4 idx=010262 GeodesicLength=0.2490579122875014 rxn_smarts="[C:1](#[C:2][c:3]1[c:4]([H:9])[n:5]([H:10])[n:6][c:7]1[H:11])[H:8]>>[C:1](#[C:2][C@:3]1(/[C:4](=[N:5]/[H:10])[H:9])[N:6]=[C:7]1[H:11])[H:8]"
C        2.62884414      -0.32652211      -0.03676122
C        1.45618615      -0.07286931       0.03682305
C        0.06952987       0.19799433       0.02456855
C       -0.89574592      -0.76572702       0.43947110
N       -2.14688416      -0.55871992       0.27626705
N       -1.35484845       1.22144107      -1.15361791
C       -0.37031650       1.50926924      -0.45748070
H        3.64752286      -0.61765102      -0.14297880
H       -0.54272921      -1.70667303       0.86901345
H       -2.73590844      -1.28970995       0.66597654
H        0.24434966       2.40916772      -0.52128110
11
Frame=5 idx=010262 GeodesicLength=0.31148795834709125 rxn_smarts="[C:1](#[C:2][c:3]1[c:4]([H:9])[n:5]([H:10])[n:6][c:7]1[H:11])[H:8]>>[C:1](#[C:2][C@:3]1(/[C:4](=[N:5]/[H:10])[H:9])[N:6]=[C:7]1[H:11])[H:8]"
C        2.63656961      -0.31912041      -0.00223196
C        1.46312624      -0.06755764       0.06095430
C        0.07335553       0.18831868       0.00946162
C       -0.89027574      -0.77296907       0.43367874
N       -2.13915271      -0.50082295       0.36550222
N       -1.35138081       1.17376678      -1.15330381
C       -0.36985823       1.49841897      -0.46467884
H        3.65878879      -0.59012966      -0.12564166
H       -0.56258188      -1.77211431       0.72928379
H       -2.74529423      -1.24508206       0.69814218
H        0.22670343       2.40729165      -0.55116658
11
Frame=6 idx=010262 GeodesicLength=0.3749696381233161 rxn_smarts="[C:1](#[C:2][c:3]1[c:4]([H:9])[n:5]([H:10])[n:6][c:7]1[H:11])[H:8]>>[C:1](#[C:2][C@:3]1(/[C:4](=[N:5]/[H:10])[H:9])[N:6]=[C:7]1[H:11])[H:8]"
C        2.64463495      -0.30564530       0.02637536
C        1.47066184      -0.05660322       0.08467802
C        0.07838556       0.18153368      -0.00471203
C       -0.88039829      -0.77984870       0.43108106
N       -2.12048237      -0.45712691       0.44312171
N       -1.35193594       1.12662437      -1.14793430
C       -0.37275751       1.48903727      -0.47032560
H        3.66395520      -0.58440825      -0.10381996
H       -0.58681477      -1.81872105       0.59354767
H       -2.74795058      -1.20252771       0.72842411
H        0.20270191       2.40768581      -0.58043604
11
Frame=7 idx=010262 GeodesicLength=0.440042493908052 rxn_smarts="[C:1](#[C:2][c:3]1[c:4]([H:9])[n:5]([H:10])[n:6][c:7]1[H:11])[H:8]>>[C:1](#[C:2][C@:3]1(/[C:4](=[N:5]/[H:10])[H:9])[N:6]=[C:7]1[H:11])[H:8]"
C        2.65372416      -0.29148633       0.05276849
C        1.47707391      -0.05295335       0.09257363
C        0.08344202       0.17023950      -0.02851865
C       -0.86949129      -0.79142969       0.42123248
N       -2.09416485      -0.42090830       0.51630761
N       -1.35941952       1.08597047      -1.13440496
C       -0.37598886       1.47858703      -0.47533499
H        3.67359546      -0.57444857      -0.06336707
H       -0.62179693      -1.85369395       0.45544247
H       -2.74577203      -1.15559073       0.77181693
H        0.17879793       2.40571393      -0.60851593
11
Frame=8 idx=010262 GeodesicLength=0.5071041294214307 rxn_smarts="[C:1](#[C:2][c:3]1[c:4]([H:9])[n:5]([H:10])[n:6][c:7]1[H:11])[H:8]>>[C:1](#[C:2][C@:3]1(/[C:4](=[N:5]/[H:10])[H:9])[N:6]=[C:7]1[H:11])[H:8]"
C        2.66233952      -0.28025347       0.07773073
C        1.48210100      -0.05891941       0.08917035
C        0.08823268       0.15343433      -0.06003178
C       -0.85973339      -0.80692937       0.40521890
N       -2.06187919      -0.39017695       0.58280395
N       -1.36903854       1.05040159      -1.11662277
C       -0.37741753       1.46594594      -0.47938761
H        3.68804356      -0.55062574      -0.01493098
H       -0.66986946      -1.87824658       0.32579754
H       -2.73992295      -1.10547580       0.82171729
H        0.15714430       2.40084547      -0.63146562
11
Frame=9 idx=010262 GeodesicLength=0.5751891605183578 rxn_smarts="[C:1](#[C:2][c:3]1[c:4]([H:9])[n:5]([H:10])[n:6][c:7]1[H:11])[H:8]>>[C:1](#[C:2][C@:3]1(/[C:4](=[N:5]/[H:10])[H:9])[N:6]=[C:7]1[H:11])[H:8]"
C        2.67012775      -0.26675421       0.09858949
C        1.48696983      -0.06510628       0.07331732
C        0.09269228       0.13742275      -0.09735004
C       -0.84828491      -0.82375908       0.38334359
N       -2.02202754      -0.36648384       0.64412740
N       -1.38276149       1.01924687      -1.09541797
C       -0.38056048       1.45482139      -0.48355822
H        3.69876704      -0.53732064       0.04972455
H       -0.72193097      -1.89165225       0.20157121
H       -2.72441400      -1.05872632       0.87817207
H        0.13142249       2.39831160      -0.65251940
11
Frame=10 idx=010262 GeodesicLength=0.6439708005492774 rxn_smarts="[C:1](#[C:2][c:3]1[c:4]([H:9])[n:5]([H:10])[n:6][c:7]1[H:11])[H:8]>>[C:1](#[C:2][C@:3]1(/[C:4](=[N:5]/[H:10])[H:9])[N:6]=[C:7]1[H:11])[H:8]"
C        2.67627139      -0.25443231       0.11725194
C        1.49178068      -0.07282471       0.05167535
C        0.09692546       0.12211628      -0.13499844
C       -0.83674315      -0.84084415       0.35979389
N       -1.97785471      -0.34809003       0.69808063
N       -1.39536470       0.98941985      -1.07424491
C       -0.38352320       1.44397456      -0.48726950
H        3.70587805      -0.52564178       0.11653182
H       -0.77786639      -1.89561275       0.08983627
H       -2.70336674      -1.01498740       0.93268971
H        0.10386331       2.39692244      -0.66934678
11
Frame=11 idx=010262 GeodesicLength=0.7130056044811848 rxn_smarts="[C:1](#[C:2][c:3]1[c:4]([H:9])[n:5]([H:10])[n:6][c:7]1[H:11])[H:8]>>[C:1](#[C:2][C@:3]1(/[C:4](=[N:5]/[H:10])[H:9])[N:6]=[C:7]1[H:11])[H:8]"
C        2.68032282      -0.24479371       0.13413360
C        1.49656817      -0.08151500       0.02655487
C        0.10089903       0.10773206      -0.17213966
C       -0.82559498      -0.85774533       0.33497821
N       -1.93098584      -0.33396664       0.74473478
N       -1.40609446       0.96057785      -1.05397002
C       -0.38599773       1.43343459      -0.49068111
H        3.70928096      -0.51407323       0.18284283
H       -0.83533367      -1.89229320      -0.00866462
H       -2.67803384      -0.97400611       0.98404335
H        0.07496954       2.39664873      -0.68183221
11
Frame=12 idx=010262 GeodesicLength=0.7830836332812222 rxn_smarts="[C:1](#[C:2][c:3]1[c:4]([H:9])[n:5]([H:10])[n:6][c:7]1[H:11])[H:8]>>[C:1](#[C:2][C@:3]1(/[C:4](=[N:5]/[H:10])[H:9])[N:6]=[C:7]1[H:11])[H:8]"
C        2.68224234      -0.23704908       0.15025749
C        1.50126989      -0.09339668      -0.00290446
C        0.10461071       0.09231388      -0.21077233
C       -0.81524298      -0.87542655       0.30815280
N       -1.88057411      -0.32275213       0.78643913
N       -1.41533143       0.93276385      -1.03408154
C       -0.38702108       1.42195582      -0.49442457
H        3.70973774      -0.49753323       0.25037274
H       -0.89748062      -1.88368176      -0.09783799
H       -2.64842375      -0.93333272       1.03422081
H        0.04621329       2.39613860      -0.68942209
11
Frame=13 idx=010262 GeodesicLength=0.8536840373734655 rxn_smarts="[C:1](#[C:2][c:3]1[c:4]([H:9])[n:5]([H:10])[n:6][c:7]1[H:11])[H:8]>>[C:1](#[C:2][C@:3]1(/[C:4](=[N:5]/[H:10])[H:9])[N:6]=[C:7]1[H:11])[H:8]"
C        2.68186316      -0.23189604       0.16604711
C        1.50583063      -0.10525805      -0.03169528
C        0.10814672       0.07760139      -0.24867041
C       -0.80560985      -0.89277419       0.28045353
N       -1.82856801      -0.31449778       0.82213098
N       -1.42253825       0.90530243      -1.01569376
C       -0.38728242       1.41045110      -0.49846638
H        3.70641311      -0.48042978       0.31477811
H       -0.95967958      -1.87007485      -0.17684457
H       -2.61526332      -0.89449811       1.08152021
H        0.01668781       2.39607388      -0.69355953
11
Frame=14 idx=010262 GeodesicLength=0.924894760454271 rxn_smarts="[C:1](#[C:2][c:3]1[c:4]([H:9])[n:5]([H:10])[n:6][c:7]1[H:11])[H:8]>>[C:1](#[C:2][C@:3]1(/[C:4](=[N:5]/[H:10])[H:9])[N:6]=[C:7]1[H:11])[H:8]"
C        2.67949373      -0.22888758       0.18107934
C        1.51033626      -0.11750707      -0.06046780
C        0.11152932       0.06327731      -0.28598086
C       -0.79669039      -0.90984712       0.25227700
N       -1.77543866      -0.30855206       0.85236037
N       -1.42775303       0.87807214      -0.99898384
C       -0.38670105       1.39875016      -0.50294246
H        3.69974047      -0.46215324       0.37662713
H       -1.02178128      -1.85266491      -0.24607231
H       -2.57924897      -0.85676999       1.12566229
H       -0.01348638       2.39628236      -0.69355887
11
Frame=15 idx=010262 GeodesicLength=0.9967797734282742 rxn_smarts="[C:1](#[C:2][c:3]1[c:4]([H:9])[n:5]([H:10])[n:6][c:7]1[H:11])[H:8]>>[C:1](#[C:2][C@:3]1(/[C:4](=[N:5]/[H:10])[H:9])[N:6]=[C:7]1[H:11])[H:8]"
C        2.67550402      -0.22784759       0.19418975
C        1.51466621      -0.13029090      -0.08900592
C        0.11469909       0.04918390      -0.32288906
C       -0.78862292      -0.92666718       0.22353486
N       -1.72154476      -0.30453807       0.87756400
N       -1.43116893       0.85128579      -0.98379885
C       -0.38523344       1.38686038      -0.50774691
H        3.68972288      -0.44214310       0.43688921
H       -1.08345148      -1.83251753      -0.30607121
H       -2.54074455      -0.81971016       1.16672045
H       -0.04382612       2.39638445      -0.68938632
11
Frame=16 idx=010262 GeodesicLength=1.0688727988724473 rxn_smarts="[C:1](#[C:2][c:3]1[c:4]([H:9])[n:5]([H:10])[n:6][c:7]1[H:11])[H:8]>>[C:1](#[C:2][C@:3]1(/[C:4](=[N:5]/[H:10])[H:9])[N:6]=[C:7]1[H:11])[H:8]"
C        2.67061498      -0.22935130       0.20506585
C        1.51889601      -0.14181430      -0.11547319
C        0.11778888       0.03629208      -0.35816677
C       -0.78109747      -0.94234675       0.19553532
N       -1.66861489      -0.30171991       0.89743455
N       -1.43269445       0.82434590      -0.97115239
C       -0.38348247       1.37526111      -0.51333313
H        3.67678778      -0.42345566       0.49371909
H       -1.14135881      -1.81053200      -0.35632790
H       -2.50096624      -0.78369623       1.20358314
H       -0.07587334       2.39701707      -0.68088458
