11
Frame=0 idx=006342 GeodesicLength=0.0 rxn_smarts="[O:1]=[c:2]1[o:3][c:4]([H:8])[c:5]([H:9])[c:6]([H:10])[c:7]1[H:11]>>[O:1]=[C:2]1[O:3][C:4]([H:8])=[C:5]2[C:6]([H:9])([H:10])[C@@:7]12[H:11]"
O        2.19388093      -1.18245377       0.61539515
C        1.13766157      -0.71883172       0.29231393
O        0.00670012      -1.49974184       0.38373891
C       -1.16290022      -1.07649522      -0.19572478
C       -1.49826176       0.20165121      -0.38425126
C       -0.32534888       1.22033992      -0.06155765
C        0.92595023       0.65022763      -0.17660726
H       -1.77593327      -1.90168736      -0.53366929
H       -0.78167348       0.88632145       0.91479158
H       -0.50323347       2.27017359      -0.24705199
H        1.78315820       1.15049606      -0.60737737
11
Frame=1 idx=006342 GeodesicLength=0.09653414438348011 rxn_smarts="[O:1]=[c:2]1[o:3][c:4]([H:8])[c:5]([H:9])[c:6]([H:10])[c:7]1[H:11]>>[O:1]=[C:2]1[O:3][C:4]([H:8])=[C:5]2[C:6]([H:9])([H:10])[C@@:7]12[H:11]"
O        2.20013192      -1.18182715       0.61505940
C        1.14123912      -0.71932202       0.30136903
O        0.01373780      -1.50959066       0.37544760
C       -1.14882728      -1.07768326      -0.20789870
C       -1.45878876       0.20454208      -0.40971138
C       -0.32404239       1.23254232      -0.04229335
C        0.91752375       0.64254902      -0.18387160
H       -1.78848472      -1.89695356      -0.50828446
H       -0.82907700       0.88345748       0.92249495
H       -0.49399046       2.28183523      -0.23660336
H        1.77057801       1.14045052      -0.62570813
11
Frame=2 idx=006342 GeodesicLength=0.193086820742437 rxn_smarts="[O:1]=[c:2]1[o:3][c:4]([H:8])[c:5]([H:9])[c:6]([H:10])[c:7]1[H:11]>>[O:1]=[C:2]1[O:3][C:4]([H:8])=[C:5]2[C:6]([H:9])([H:10])[C@@:7]12[H:11]"
O        2.20672279      -1.18177072       0.61323933
C        1.14521576      -0.72019749       0.30920199
O        0.02131232      -1.51961572       0.36625396
C       -1.13487507      -1.07891480      -0.21946638
C       -1.41939417       0.20720293      -0.43245604
C       -0.32267428       1.24327652      -0.02360288
C        0.90959425       0.63511550      -0.19010819
H       -1.80107839      -1.88996477      -0.48150027
H       -0.87886289       0.88128756       0.92704797
H       -0.48465584       2.29182894      -0.22754455
H        1.75869552       1.13175204      -0.64106495
11
Frame=3 idx=006342 GeodesicLength=0.2896604891663608 rxn_smarts="[O:1]=[c:2]1[o:3][c:4]([H:8])[c:5]([H:9])[c:6]([H:10])[c:7]1[H:11]>>[O:1]=[C:2]1[O:3][C:4]([H:8])=[C:5]2[C:6]([H:9])([H:10])[C@@:7]12[H:11]"
O        2.21352283      -1.18214886       0.61048098
C        1.14956784      -0.72159333       0.31560780
O        0.02928172      -1.52976796       0.35646301
C       -1.12124113      -1.08015629      -0.23004581
C       -1.38047857       0.20967339      -0.45209956
C       -0.32127757       1.25263895      -0.00540929
C        0.90212776       0.62782771      -0.19557635
H       -1.81302380      -1.88092189      -0.45423811
H       -0.93070069       0.88002262       0.92844791
H       -0.47518657       2.30031019      -0.21945591
H        1.74740817       1.12411547      -0.65417469
11
Frame=4 idx=006342 GeodesicLength=0.38627107834707075 rxn_smarts="[O:1]=[c:2]1[o:3][c:4]([H:8])[c:5]([H:9])[c:6]([H:10])[c:7]1[H:11]>>[O:1]=[C:2]1[O:3][C:4]([H:8])=[C:5]2[C:6]([H:9])([H:10])[C@@:7]12[H:11]"
O        2.22048359      -1.18296767       0.60700547
C        1.15426667      -0.72357789       0.32059029
O        0.03750520      -1.53999145       0.34647308
C       -1.10810858      -1.08134730      -0.23917255
C       -1.34236333       0.21201132      -0.46840538
C       -0.31985555       1.26078884       0.01240759
C        0.89508066       0.62062078      -0.20042198
H       -1.82370054      -1.87024393      -0.42747501
H       -0.98434693       0.87996666       0.92670393
H       -0.46552859       2.30749613      -0.21199860
H        1.73656741       1.11724452      -0.66570685
11
Frame=5 idx=006342 GeodesicLength=0.4828597049454894 rxn_smarts="[O:1]=[c:2]1[o:3][c:4]([H:8])[c:5]([H:9])[c:6]([H:10])[c:7]1[H:11]>>[O:1]=[C:2]1[O:3][C:4]([H:8])=[C:5]2[C:6]([H:9])([H:10])[C@@:7]12[H:11]"
O        2.22760059      -1.18414318       0.60293552
C        1.15932110      -0.72612304       0.32412177
O        0.04590741      -1.55018999       0.33639331
C       -1.09552919      -1.08239544      -0.24673209
C       -1.30520931       0.21423136      -0.48142405
C       -0.31838992       1.26781059       0.02997954
C        0.88845371       0.61348621      -0.20467242
H       -1.83298748      -1.85827389      -0.40142276
H       -1.03967112       0.88121809       0.92161992
H       -0.45559882       2.31341281      -0.20479560
H        1.72610304       1.11096648      -0.67600314
11
Frame=6 idx=006342 GeodesicLength=0.5794768596701527 rxn_smarts="[O:1]=[c:2]1[o:3][c:4]([H:8])[c:5]([H:9])[c:6]([H:10])[c:7]1[H:11]>>[O:1]=[C:2]1[O:3][C:4]([H:8])=[C:5]2[C:6]([H:9])([H:10])[C@@:7]12[H:11]"
O        2.23491559      -1.18582138       0.59812542
C        1.16472262      -0.72925173       0.32638051
O        0.05439894      -1.56036124       0.32660238
C       -1.08360981      -1.08326150      -0.25228599
C       -1.26917795       0.21638656      -0.49112473
C       -0.31685740       1.27390173       0.04746316
C        0.88220712       0.60640565      -0.20835663
H       -1.84056216      -1.84562178      -0.37681985
H       -1.09655874       0.88415599       0.91311160
H       -0.44535446       2.31835860      -0.19761682
H        1.71587625       1.10510909      -0.68547906
11
Frame=7 idx=006342 GeodesicLength=0.676098456719788 rxn_smarts="[O:1]=[c:2]1[o:3][c:4]([H:8])[c:5]([H:9])[c:6]([H:10])[c:7]1[H:11]>>[O:1]=[C:2]1[O:3][C:4]([H:8])=[C:5]2[C:6]([H:9])([H:10])[C@@:7]12[H:11]"
O        2.24247690      -1.18801686       0.59246258
C        1.17049512      -0.73292831       0.32743167
O        0.06295691      -1.57047918       0.31715943
C       -1.07234398      -1.08390223      -0.25573865
C       -1.23430226       0.21847675      -0.49767265
C       -0.31523305       1.27915206       0.06501858
C        0.87633950       0.59939275      -0.21143703
H       -1.84651946      -1.83268861      -0.35365349
H       -1.15495516       0.88893197       0.90086088
H       -0.43474475       2.32243717      -0.19017359
H        1.70583025       1.09962449      -0.69425773
11
Frame=8 idx=006342 GeodesicLength=0.7727387401223919 rxn_smarts="[O:1]=[c:2]1[o:3][c:4]([H:8])[c:5]([H:9])[c:6]([H:10])[c:7]1[H:11]>>[O:1]=[C:2]1[O:3][C:4]([H:8])=[C:5]2[C:6]([H:9])([H:10])[C@@:7]12[H:11]"
O        2.25034657      -1.19079375       0.58584757
C        1.17667146      -0.73715167       0.32733253
O        0.07159647      -1.58059402       0.30805087
C       -1.06170315      -1.08432699      -0.25702285
C       -1.20057571       0.22050041      -0.50126006
C       -0.31351118       1.28366313       0.08282378
C        0.87084565       0.59247225      -0.21387686
H       -1.85101072      -1.81983431      -0.33177541
H       -1.21481545       0.89571208       0.88448772
H       -0.42375731       2.32582416      -0.18218879
H        1.69591336       1.09452872      -0.70241851
11
Frame=9 idx=006342 GeodesicLength=0.8693040918113543 rxn_smarts="[O:1]=[c:2]1[o:3][c:4]([H:8])[c:5]([H:9])[c:6]([H:10])[c:7]1[H:11]>>[O:1]=[C:2]1[O:3][C:4]([H:8])=[C:5]2[C:6]([H:9])([H:10])[C@@:7]12[H:11]"
O        2.25857277      -1.19399990       0.57827597
C        1.18331562      -0.74187630       0.32597928
O        0.08041971      -1.59070801       0.29882418
C       -1.05155853      -1.08448718      -0.25653294
C       -1.16789005       0.22242414      -0.50229333
C       -0.31172116       1.28734426       0.10103085
C        0.86574544       0.58568231      -0.21555589
H       -1.85453000      -1.80690138      -0.31001614
H       -1.27608989       0.90430151       0.86322867
H       -0.41240138       2.32829120      -0.17326980
H        1.68613746       1.08992935      -0.70967085
11
Frame=10 idx=006342 GeodesicLength=0.9658612838475905 rxn_smarts="[O:1]=[c:2]1[o:3][c:4]([H:8])[c:5]([H:9])[c:6]([H:10])[c:7]1[H:11]>>[O:1]=[C:2]1[O:3][C:4]([H:8])=[C:5]2[C:6]([H:9])([H:10])[C@@:7]12[H:11]"
O        2.26720655      -1.19778682       0.56961023
C        1.19043120      -0.74714925       0.32344169
O        0.08943689      -1.60095494       0.28953423
C       -1.04195242      -1.08446030      -0.25393495
C       -1.13627149       0.22423882      -0.50079833
C       -0.30989149       1.29031955       0.11984356
C        0.86099187       0.57902932      -0.21647914
H       -1.85704251      -1.79430429      -0.28852935
H       -1.33861670       0.91503070       0.83664018
H       -0.40070723       2.33016450      -0.16318588
H        1.67641532       1.08587270      -0.71614225
11
Frame=11 idx=006342 GeodesicLength=1.0623665757885894 rxn_smarts="[O:1]=[c:2]1[o:3][c:4]([H:8])[c:5]([H:9])[c:6]([H:10])[c:7]1[H:11]>>[O:1]=[C:2]1[O:3][C:4]([H:8])=[C:5]2[C:6]([H:9])([H:10])[C@@:7]12[H:11]"
O        2.27626726      -1.20208467       0.55973377
C        1.19802286      -0.75293531       0.31967972
O        0.09870385      -1.61136851       0.27986372
C       -1.03286249      -1.08424895      -0.24920965
C       -1.10566658       0.22588727      -0.49694313
C       -0.30806896       1.29252353       0.13945479
C        0.85655428       0.57252711      -0.21654953
H       -1.85878232      -1.78205217      -0.26667451
H       -1.40216072       0.92792178       0.80389986
H       -0.38870004       2.33138155      -0.15160265
H        1.66669285       1.08244838      -0.72165240
11
Frame=12 idx=006342 GeodesicLength=1.1588328285145961 rxn_smarts="[O:1]=[c:2]1[o:3][c:4]([H:8])[c:5]([H:9])[c:6]([H:10])[c:7]1[H:11]>>[O:1]=[C:2]1[O:3][C:4]([H:8])=[C:5]2[C:6]([H:9])([H:10])[C@@:7]12[H:11]"
O        2.28576587      -1.20693210       0.54857464
C        1.20608113      -0.75927256       0.31466583
O        0.10827899      -1.62214552       0.26944596
C       -1.02430002      -1.08396192      -0.24224040
C       -1.07604078       0.22732385      -0.49086409
C       -0.30634501       1.29400014       0.16008977
C        0.85239834       0.56623880      -0.21568343
H       -1.85993591      -1.77031461      -0.24385900
H       -1.46641283       0.94311560       0.76416689
H       -0.37642533       2.33210823      -0.13818862
H        1.65693557       1.07984010      -0.72610754
11
Frame=13 idx=006342 GeodesicLength=1.2551971091808458 rxn_smarts="[O:1]=[c:2]1[o:3][c:4]([H:8])[c:5]([H:9])[c:6]([H:10])[c:7]1[H:11]>>[O:1]=[C:2]1[O:3][C:4]([H:8])=[C:5]2[C:6]([H:9])([H:10])[C@@:7]12[H:11]"
O        2.29569546      -1.21208431       0.53622485
C        1.21460415      -0.76608725       0.30823986
O        0.11834408      -1.63321214       0.25745006
C       -1.01616158      -1.08340405      -0.23334150
C       -1.04737786       0.22855065      -0.48280743
C       -0.30488676       1.29444372       0.18187550
C        0.84840428       0.56009256      -0.21371671
H       -1.86077071      -1.75840850      -0.21862897
H       -1.53069468       0.96025922       0.71625680
H       -0.36410331       2.33183236      -0.12252050
H        1.64694694       1.07801773      -0.72903196
11
Frame=14 idx=006342 GeodesicLength=1.351489446689712 rxn_smarts="[O:1]=[c:2]1[o:3][c:4]([H:8])[c:5]([H:9])[c:6]([H:10])[c:7]1[H:11]>>[O:1]=[C:2]1[O:3][C:4]([H:8])=[C:5]2[C:6]([H:9])([H:10])[C@@:7]12[H:11]"
O        2.30597467      -1.21770023       0.52260752
C        1.22348688      -0.77345976       0.30041311
O        0.12883922      -1.64489315       0.24352256
C       -1.00856084      -1.08286353      -0.22207853
C       -1.01973504       0.22948736      -0.47274342
C       -0.30383661       1.29405381       0.20505351
C        0.84450787       0.55421155      -0.21062991
H       -1.86128923      -1.74693299      -0.19073373
H       -1.59432375       0.97969461       0.65935285
H       -0.35179940       2.33110259      -0.10428864
H        1.63673624       1.07729973      -0.73047532
11
Frame=15 idx=006342 GeodesicLength=1.4476432205238008 rxn_smarts="[O:1]=[c:2]1[o:3][c:4]([H:8])[c:5]([H:9])[c:6]([H:10])[c:7]1[H:11]>>[O:1]=[C:2]1[O:3][C:4]([H:8])=[C:5]2[C:6]([H:9])([H:10])[C@@:7]12[H:11]"
O        2.31644659      -1.22355439       0.50765374
C        1.23258332      -0.78125687       0.29110401
O        0.13975273      -1.65709729       0.22681137
C       -1.00151735      -1.08228858      -0.20840667
C       -0.99316321       0.23004593      -0.46075256
C       -0.30337904       1.29261857       0.22976777
C        0.84055943       0.54859588      -0.20623037
H       -1.86159230      -1.73562308      -0.15902519
H       -1.65612839       1.00116210       0.59222331
H       -0.33968528       2.32963899      -0.08311871
H        1.62612348       1.07775874      -0.73002671
11
Frame=16 idx=006342 GeodesicLength=1.5436486023645077 rxn_smarts="[O:1]=[c:2]1[o:3][c:4]([H:8])[c:5]([H:9])[c:6]([H:10])[c:7]1[H:11]>>[O:1]=[C:2]1[O:3][C:4]([H:8])=[C:5]2[C:6]([H:9])([H:10])[C@@:7]12[H:11]"
O        2.32694971      -1.22964549       0.49129943
C        1.24172469      -0.78943756       0.28028900
O        0.15100359      -1.66979863       0.20656353
C       -0.99502177      -1.08171043      -0.19232880
C       -0.96777665       0.23020984      -0.44693617
C       -0.30380603       1.29009390       0.25614347
C        0.83638744       0.54328914      -0.20032605
H       -1.86162251      -1.72436020      -0.12244458
H       -1.71467256       1.02441806       0.51384722
H       -0.32809036       2.32742948      -0.05872089
H        1.61492446       1.07951191      -0.72738615
