11
Frame=0 idx=000417 GeodesicLength=0.0 rxn_smarts="[O:1]([N:2]=[C:3]1[C:4]([H:8])([H:9])[O:5][C:6]1([H:10])[H:11])[H:7]>>[O:1](/[N:2]=[C:3](/[C:4]([O+:5]=[C-:6][H:10])([H:8])[H:9])[H:11])[H:7]"
O        2.25422450      -0.58533318      -0.51016164
N        1.46123948       0.32343137       0.23169679
C        0.21446844       0.10790953      -0.10122839
C       -0.93324937       0.92567571       0.45979339
O       -1.85890709      -0.20964598       0.35884271
C       -0.91475783      -1.09922623       0.13253442
H        3.14635506      -0.32569398      -0.27612927
H       -1.30661170       1.72604540      -0.17698424
H       -0.81461424       1.24891285       1.49078616
H       -1.26353470      -1.98689497      -0.41583661
H        0.01538746      -0.12518055      -1.19331334
11
Frame=1 idx=000417 GeodesicLength=0.07646414796914641 rxn_smarts="[O:1]([N:2]=[C:3]1[C:4]([H:8])([H:9])[O:5][C:6]1([H:10])[H:11])[H:7]>>[O:1](/[N:2]=[C:3](/[C:4]([O+:5]=[C-:6][H:10])([H:8])[H:9])[H:11])[H:7]"
O        2.26301188      -0.57234913      -0.50929812
N        1.46378478       0.33153896       0.22761005
C        0.22037028       0.11741172      -0.10579491
C       -0.92880584       0.92607485       0.46237758
O       -1.85641865      -0.20593288       0.35821479
C       -0.91998160      -1.10034132       0.10524610
H        3.15295854      -0.31731370      -0.26192302
H       -1.30130913       1.73229400      -0.16773926
H       -0.80763727       1.24177894       1.49561763
H       -1.29257486      -2.00244235      -0.40057535
H        0.00660186      -0.15071909      -1.20373549
11
Frame=2 idx=000417 GeodesicLength=0.15282807814938015 rxn_smarts="[O:1]([N:2]=[C:3]1[C:4]([H:8])([H:9])[O:5][C:6]1([H:10])[H:11])[H:7]>>[O:1](/[N:2]=[C:3](/[C:4]([O+:5]=[C-:6][H:10])([H:8])[H:9])[H:11])[H:7]"
O        2.27146501      -0.55923246      -0.50901917
N        1.46606777       0.33919829       0.22364949
C        0.22607959       0.12732118      -0.11128100
C       -0.92444529       0.92632835       0.46488277
O       -1.85411261      -0.20212864       0.35597691
C       -0.92576176      -1.10085443       0.07616431
H        3.15899765      -0.30997946      -0.24718378
H       -1.29590544       1.73911847      -0.15761761
H       -0.80087786       1.23332588       1.50066719
H       -1.31975811      -2.01859275      -0.38127365
H       -0.00174894      -0.17450444      -1.21496547
11
Frame=3 idx=000417 GeodesicLength=0.2291155099902938 rxn_smarts="[O:1]([N:2]=[C:3]1[C:4]([H:8])([H:9])[O:5][C:6]1([H:10])[H:11])[H:7]>>[O:1](/[N:2]=[C:3](/[C:4]([O+:5]=[C-:6][H:10])([H:8])[H:9])[H:11])[H:7]"
O        2.27965806      -0.54602805      -0.50917887
N        1.46808011       0.34621061       0.22005084
C        0.23162469       0.13747032      -0.11755004
C       -0.92013775       0.92634916       0.46727077
O       -1.85197583      -0.19828585       0.35232593
C       -0.93225347      -1.10079139       0.04490963
H        3.16449930      -0.30344618      -0.23210374
H       -1.29038322       1.74631679      -0.14674710
H       -0.79435312       1.22354972       1.50584725
H       -1.34514798      -2.03491149      -0.35767937
H       -0.00961079      -0.19643364      -1.22714529
11
Frame=4 idx=000417 GeodesicLength=0.3052188010116426 rxn_smarts="[O:1]([N:2]=[C:3]1[C:4]([H:8])([H:9])[O:5][C:6]1([H:10])[H:11])[H:7]>>[O:1](/[N:2]=[C:3](/[C:4]([O+:5]=[C-:6][H:10])([H:8])[H:9])[H:11])[H:7]"
O        2.28728794      -0.53388825      -0.50875337
N        1.46971758       0.35198663       0.21737422
C        0.23691974       0.14776768      -0.12431950
C       -0.91598335       0.92617723       0.46955331
O       -1.85045570      -0.19396643       0.34635167
C       -0.93995888      -1.09988837       0.01116894
H        3.16941004      -0.29675837      -0.21832333
H       -1.28423955       1.75426164      -0.13496203
H       -0.78848458       1.21208187       1.51128815
H       -1.36734739      -2.05134550      -0.32907737
H       -0.01686584      -0.21642813      -1.24030069
11
Frame=5 idx=000417 GeodesicLength=0.3812001057272266 rxn_smarts="[O:1]([N:2]=[C:3]1[C:4]([H:8])([H:9])[O:5][C:6]1([H:10])[H:11])[H:7]>>[O:1](/[N:2]=[C:3](/[C:4]([O+:5]=[C-:6][H:10])([H:8])[H:9])[H:11])[H:7]"
O        2.29443012      -0.52265372      -0.50791986
N        1.47092284       0.35631630       0.21573775
C        0.24195644       0.15797564      -0.13151579
C       -0.91196928       0.92566875       0.47168656
O       -1.84957635      -0.18921329       0.33812766
C       -0.94910198      -1.09815106      -0.02559729
H        3.17382587      -0.28987676      -0.20564487
H       -1.27744692       1.76276066      -0.12229662
H       -0.78332453       1.19872684       1.51692031
H       -1.38617388      -2.06717096      -0.29480981
H       -0.02354233      -0.23438243      -1.25468806
11
Frame=6 idx=000417 GeodesicLength=0.4570482378294139 rxn_smarts="[O:1]([N:2]=[C:3]1[C:4]([H:8])([H:9])[O:5][C:6]1([H:10])[H:11])[H:7]>>[O:1](/[N:2]=[C:3](/[C:4]([O+:5]=[C-:6][H:10])([H:8])[H:9])[H:11])[H:7]"
O        2.30082272      -0.51312544      -0.50612258
N        1.47155949       0.35882770       0.21532231
C        0.24661468       0.16795469      -0.13901442
C       -0.90821998       0.92475839       0.47367369
O       -1.84968700      -0.18375606       0.32703865
C       -0.96013682      -1.09536621      -0.06595002
H        3.17770916      -0.28249115      -0.19478612
H       -1.26977331       1.77197553      -0.10853384
H       -0.77920115       1.18302863       1.52280712
H       -1.39997916      -2.08171330      -0.25388873
H       -0.02970862      -0.25009277      -1.27054606
11
Frame=7 idx=000417 GeodesicLength=0.5326583357030612 rxn_smarts="[O:1]([N:2]=[C:3]1[C:4]([H:8])([H:9])[O:5][C:6]1([H:10])[H:11])[H:7]>>[O:1](/[N:2]=[C:3](/[C:4]([O+:5]=[C-:6][H:10])([H:8])[H:9])[H:11])[H:7]"
O        2.30594173      -0.50483547      -0.50455930
N        1.47150761       0.36083114       0.21440032
C        0.25058255       0.17826809      -0.14727493
C       -0.90503858       0.92349680       0.47562846
O       -1.85056081      -0.17802592       0.31419862
C       -0.97267360      -1.09149488      -0.10918209
H        3.18024079      -0.27807335      -0.18300119
H       -1.26241975       1.78152306      -0.09348327
H       -0.77577869       1.16536678       1.52882385
H       -1.40540710      -2.09365895      -0.20733519
H       -0.03639416      -0.26339731      -1.28821527
11
Frame=8 idx=000417 GeodesicLength=0.6082643635301925 rxn_smarts="[O:1]([N:2]=[C:3]1[C:4]([H:8])([H:9])[O:5][C:6]1([H:10])[H:11])[H:7]>>[O:1](/[N:2]=[C:3](/[C:4]([O+:5]=[C-:6][H:10])([H:8])[H:9])[H:11])[H:7]"
O        2.31035620      -0.50002643      -0.49987245
N        1.47084743       0.35999412       0.21588955
C        0.25421834       0.18676949      -0.15424491
C       -0.90200459       0.92167913       0.47740110
O       -1.85262165      -0.17139512       0.29967143
C       -0.98743593      -1.08753612      -0.15251642
H        3.18305829      -0.26889173      -0.17672720
H       -1.25346533       1.79082244      -0.07868504
H       -0.77365285       1.14661008       1.53464586
H       -1.40664309      -2.10027745      -0.16013273
H       -0.04265681      -0.27774842      -1.30542918
11
Frame=9 idx=000417 GeodesicLength=0.6837661448215436 rxn_smarts="[O:1]([N:2]=[C:3]1[C:4]([H:8])([H:9])[O:5][C:6]1([H:10])[H:11])[H:7]>>[O:1](/[N:2]=[C:3](/[C:4]([O+:5]=[C-:6][H:10])([H:8])[H:9])[H:11])[H:7]"
O        2.31356740      -0.49422205      -0.49752890
N        1.46988187       0.36186993       0.21391556
C        0.25708706       0.19622132      -0.16209689
C       -0.89956554       0.91985044       0.47932030
O       -1.85416950      -0.16584927       0.28779235
C       -1.00171821      -1.08375894      -0.19296591
H        3.18385179      -0.26697935      -0.16505449
H       -1.24711169       1.79892915      -0.06375847
H       -0.77067916       1.12883721       1.53994606
H       -1.39992954      -2.10237899      -0.11663839
H       -0.05121447      -0.29251945      -1.32293122
11
Frame=10 idx=000417 GeodesicLength=0.7594185267500377 rxn_smarts="[O:1]([N:2]=[C:3]1[C:4]([H:8])([H:9])[O:5][C:6]1([H:10])[H:11])[H:7]>>[O:1](/[N:2]=[C:3](/[C:4]([O+:5]=[C-:6][H:10])([H:8])[H:9])[H:11])[H:7]"
O        2.31672537      -0.49220807      -0.49063096
N        1.46888039       0.36127394       0.21489966
C        0.26016268       0.20346212      -0.16764581
C       -0.89685101       0.91781882       0.48114635
O       -1.85626609      -0.15955590       0.27611058
C       -1.01694536      -1.08104701      -0.22899579
H        3.18608722      -0.25679148      -0.16120367
H       -1.23899662       1.80619925      -0.05040075
H       -0.76848241       1.11216127       1.54479981
H       -1.39508782      -2.09980175      -0.08033312
H       -0.05922636      -0.31151118      -1.33774630
11
Frame=11 idx=000417 GeodesicLength=0.835130803517045 rxn_smarts="[O:1]([N:2]=[C:3]1[C:4]([H:8])([H:9])[O:5][C:6]1([H:10])[H:11])[H:7]>>[O:1](/[N:2]=[C:3](/[C:4]([O+:5]=[C-:6][H:10])([H:8])[H:9])[H:11])[H:7]"
O        2.31954371      -0.48900244      -0.48526915
N        1.46796113       0.36270756       0.21378582
C        0.26299446       0.21124781      -0.17351325
C       -0.89428937       0.91590969       0.48307456
O       -1.85773372      -0.15407590       0.26687198
C       -1.03144291      -1.07897842      -0.26137008
H        3.18744056      -0.25032088      -0.15407910
H       -1.23248068       1.81249508      -0.03742984
H       -0.76539487       1.09693576       1.54919300
H       -1.38791299      -2.09487354      -0.04929233
H       -0.06868532      -0.33204471      -1.35197161
11
Frame=12 idx=000417 GeodesicLength=0.9109098199116914 rxn_smarts="[O:1]([N:2]=[C:3]1[C:4]([H:8])([H:9])[O:5][C:6]1([H:10])[H:11])[H:7]>>[O:1](/[N:2]=[C:3](/[C:4]([O+:5]=[C-:6][H:10])([H:8])[H:9])[H:11])[H:7]"
O        2.32229435      -0.48585468      -0.47968868
N        1.46716077       0.36460054       0.21243032
C        0.26585209       0.21887678      -0.17898950
C       -0.89166510       0.91404897       0.48502858
O       -1.85896728      -0.14874871       0.25873937
C       -1.04571249      -1.07755370      -0.29065005
H        3.18879566      -0.24354441      -0.14721491
H       -1.22622679       1.81818311      -0.02498830
H       -0.76202394       1.08267481       1.55327030
H       -1.38082200      -2.08816204      -0.02278533
H       -0.07868527      -0.35452068      -1.36515181
11
Frame=13 idx=000417 GeodesicLength=0.9867507281605566 rxn_smarts="[O:1]([N:2]=[C:3]1[C:4]([H:8])([H:9])[O:5][C:6]1([H:10])[H:11])[H:7]>>[O:1](/[N:2]=[C:3](/[C:4]([O+:5]=[C-:6][H:10])([H:8])[H:9])[H:11])[H:7]"
O        2.32504393      -0.48158747      -0.47523494
N        1.46648737       0.36757056       0.21009440
C        0.26867619       0.22680988      -0.18459500
C       -0.88901449       0.91223530       0.48701207
O       -1.85986474      -0.14370229       0.25155544
C       -1.05957405      -1.07668856      -0.31742105
H        3.18979829      -0.23843687      -0.13858774
H       -1.22056895       1.82339843      -0.01269292
H       -0.75818146       1.06903021       1.55709159
H       -1.37337158      -2.08027707       0.00055421
H       -0.08943052      -0.37835214      -1.37777605
11
Frame=14 idx=000417 GeodesicLength=1.0626421810908353 rxn_smarts="[O:1]([N:2]=[C:3]1[C:4]([H:8])([H:9])[O:5][C:6]1([H:10])[H:11])[H:7]>>[O:1](/[N:2]=[C:3](/[C:4]([O+:5]=[C-:6][H:10])([H:8])[H:9])[H:11])[H:7]"
O        2.32784973      -0.47620649      -0.47186627
N        1.46594360       0.37143146       0.20698067
C        0.27149913       0.23505277      -0.19033143
C       -0.88631354       0.91045979       0.48900773
O       -1.86049451      -0.13882448       0.24500008
C       -1.07312584      -1.07632451      -0.34209840
H        3.19049298      -0.23471942      -0.12841097
H       -1.21532631       1.82827249      -0.00044917
H       -0.75394823       1.05578914       1.56069931
H       -1.36579981      -2.07153945       0.02138017
H       -0.10077720      -0.40339130      -1.38991173
11
Frame=15 idx=000417 GeodesicLength=1.1385836586855531 rxn_smarts="[O:1]([N:2]=[C:3]1[C:4]([H:8])([H:9])[O:5][C:6]1([H:10])[H:11])[H:7]>>[O:1](/[N:2]=[C:3](/[C:4]([O+:5]=[C-:6][H:10])([H:8])[H:9])[H:11])[H:7]"
O        2.33068365      -0.46990590      -0.46938244
N        1.46551137       0.37606412       0.20321332
C        0.27432247       0.24364528      -0.19621802
C       -0.88356443       0.90872780       0.49100328
O       -1.86090327      -0.13405478       0.23891511
C       -1.08648770      -1.07636284      -0.36509578
H        3.19084604      -0.23223314      -0.11690420
H       -1.21042214       1.83289755       0.01181775
H       -0.74936955       1.04282319       1.56411460
H       -1.35797120      -2.06215013       0.04019151
H       -0.11264523      -0.42945115      -1.40165514
11
Frame=16 idx=000417 GeodesicLength=1.2145525075976882 rxn_smarts="[O:1]([N:2]=[C:3]1[C:4]([H:8])([H:9])[O:5][C:6]1([H:10])[H:11])[H:7]>>[O:1](/[N:2]=[C:3](/[C:4]([O+:5]=[C-:6][H:10])([H:8])[H:9])[H:11])[H:7]"
O        2.33358859      -0.46300518      -0.46738015
N        1.46520685       0.38105117       0.19929472
C        0.27722244       0.25244644      -0.20203633
C       -0.88074210       0.90703037       0.49298343
O       -1.86115944      -0.12926851       0.23304123
C       -1.09975359      -1.07677548      -0.38664902
H        3.19102933      -0.23013349      -0.10495207
H       -1.20560453       1.83732732       0.02404224
H       -0.74463162       1.03007414       1.56736075
H       -1.35032903      -2.05222100       0.05720259
H       -0.12482691      -0.45652577      -1.41290738
