15
Frame=0 idx=010961 GeodesicLength=0.0 rxn_smarts="[C:1]([C:2]1=[C:3]([H:11])[C:4]([H:12])([H:13])[C@@:5]2([H:14])[O:6][C@@:7]12[H:15])([H:8])([H:9])[H:10]>>[C:1]([C:2]1=[C:3]([H:11])[C:4]([H:12])([H:13])[O:6][C@@:7]1([C:5][H:14])[H:15])([H:8])([H:9])[H:10]"
C        2.07431268      -0.04571481      -0.53862604
C        0.66321349      -0.08948434      -0.06604590
C       -0.00100210      -1.10642738       0.46385929
C       -1.42280864      -0.82793242       0.78254511
C       -1.62144946       0.71541731      -0.67926612
O       -1.23066650       0.99998139       0.85904678
C       -0.27899944       1.07235617      -0.19721775
H        2.11650889       0.20143103      -1.60282545
H        2.57376446      -1.00278579      -0.39097937
H        2.63854195       0.72462954      -0.00678425
H        0.40003753      -2.10020624       0.62367774
H       -2.14971337      -1.40041904       0.21874536
H       -1.67362585      -0.80981974       1.84278127
H       -2.20012916       1.58987478      -0.99750983
H        0.11201551       2.07909954      -0.31140085
15
Frame=1 idx=010961 GeodesicLength=0.02634622602109948 rxn_smarts="[C:1]([C:2]1=[C:3]([H:11])[C:4]([H:12])([H:13])[C@@:5]2([H:14])[O:6][C@@:7]12[H:15])([H:8])([H:9])[H:10]>>[C:1]([C:2]1=[C:3]([H:11])[C:4]([H:12])([H:13])[O:6][C@@:7]1([C:5][H:14])[H:15])([H:8])([H:9])[H:10]"
C        2.07477140      -0.04641990      -0.53891190
C        0.66335204      -0.08905829      -0.06711865
C       -0.00132516      -1.10574511       0.46318829
C       -1.42453088      -0.82169856       0.77675600
C       -1.62073517       0.71472705      -0.67178778
O       -1.22818889       1.00510605       0.86025449
C       -0.27618622       1.07432188      -0.19806279
H        2.11792384       0.20065899      -1.60308231
H        2.57346272      -1.00389243      -0.39118642
H        2.63961895       0.72308772      -0.00648995
H        0.40113665      -2.09762534       0.63064298
H       -2.14820663      -1.40162611       0.21525456
H       -1.67868263      -0.81550316       1.83663654
H       -2.20775530       1.58321854      -0.98942089
H        0.11534529       2.08044867      -0.31667216
15
Frame=2 idx=010961 GeodesicLength=0.05267870213999477 rxn_smarts="[C:1]([C:2]1=[C:3]([H:11])[C:4]([H:12])([H:13])[C@@:5]2([H:14])[O:6][C@@:7]12[H:15])([H:8])([H:9])[H:10]>>[C:1]([C:2]1=[C:3]([H:11])[C:4]([H:12])([H:13])[O:6][C@@:7]1([C:5][H:14])[H:15])([H:8])([H:9])[H:10]"
C        2.07520785      -0.04710680      -0.53914450
C        0.66346519      -0.08864187      -0.06819293
C       -0.00165981      -1.10507537       0.46250511
C       -1.42618854      -0.81548202       0.77111883
C       -1.61999121       0.71404516      -0.66438117
O       -1.22574806       1.01020033       0.86140319
C       -0.27341102       1.07624280      -0.19894637
H        2.11934380       0.19990926      -1.60328138
H        2.57314880      -1.00496475      -0.39132762
H        2.64063515       0.72156469      -0.00611957
H        0.40211190      -2.09509148       0.63726455
H       -2.14667825      -1.40268758       0.21192530
H       -1.68357272      -0.82114002       1.83052634
H       -2.21528380       1.57649402      -0.98138842
H        0.11862072       2.08173364      -0.32196136
15
Frame=3 idx=010961 GeodesicLength=0.07900227173536993 rxn_smarts="[C:1]([C:2]1=[C:3]([H:11])[C:4]([H:12])([H:13])[C@@:5]2([H:14])[O:6][C@@:7]12[H:15])([H:8])([H:9])[H:10]>>[C:1]([C:2]1=[C:3]([H:11])[C:4]([H:12])([H:13])[O:6][C@@:7]1([C:5][H:14])[H:15])([H:8])([H:9])[H:10]"
C        2.07563879      -0.04778388      -0.53935815
C        0.66356139      -0.08823587      -0.06926715
C       -0.00200800      -1.10443068       0.46180938
C       -1.42781092      -0.80930448       0.76560324
C       -1.61922627       0.71339233      -0.65704246
O       -1.22336566       1.01526397       0.86250621
C       -0.27066911       1.07813550      -0.19984920
H        2.12077155       0.19917907      -1.60345864
H        2.57283868      -1.00602649      -0.39145497
H        2.64162785       0.72005884      -0.00571727
H        0.40303284      -2.09257075       0.64374380
H       -2.14514596      -1.40363597       0.20869297
H       -1.68837406      -0.82676572       1.82441629
H       -2.22272796       1.56974017      -0.97338865
H        0.12185683       2.08298396      -0.32723541
15
Frame=4 idx=010961 GeodesicLength=0.10531896285081295 rxn_smarts="[C:1]([C:2]1=[C:3]([H:11])[C:4]([H:12])([H:13])[C@@:5]2([H:14])[O:6][C@@:7]12[H:15])([H:8])([H:9])[H:10]>>[C:1]([C:2]1=[C:3]([H:11])[C:4]([H:12])([H:13])[O:6][C@@:7]1([C:5][H:14])[H:15])([H:8])([H:9])[H:10]"
C        2.07605856      -0.04845633      -0.53956384
C        0.66363788      -0.08784258      -0.07035116
C       -0.00237309      -1.10381476       0.46108490
C       -1.42940309      -0.80317127       0.76018641
C       -1.61844084       0.71278297      -0.64976730
O       -1.22103385       1.02028960       0.86357032
C       -0.26795882       1.08000224      -0.20076666
H        2.12219880       0.19845884      -1.60362593
H        2.57252693      -1.00708086      -0.39157233
H        2.64259392       0.71856259      -0.00529700
H        0.40393277      -2.09002846       0.65018372
H       -2.14360421      -1.40447283       0.20551654
H       -1.69309847      -0.83240008       1.81828177
H       -2.23009647       1.56297181      -0.96539480
H        0.12505997       2.08419913      -0.33248463
15
Frame=5 idx=010961 GeodesicLength=0.13163679829784572 rxn_smarts="[C:1]([C:2]1=[C:3]([H:11])[C:4]([H:12])([H:13])[C@@:5]2([H:14])[O:6][C@@:7]12[H:15])([H:8])([H:9])[H:10]>>[C:1]([C:2]1=[C:3]([H:11])[C:4]([H:12])([H:13])[O:6][C@@:7]1([C:5][H:14])[H:15])([H:8])([H:9])[H:10]"
C        2.07645068      -0.04912773      -0.53977374
C        0.66369533      -0.08745615      -0.07143144
C       -0.00275296      -1.10321872       0.46033303
C       -1.43096063      -0.79708420       0.75484456
C       -1.61761878       0.71222147      -0.64255585
O       -1.21874880       1.02526344       0.86460324
C       -0.26527402       1.08184137      -0.20168244
H        2.12359116       0.19773189      -1.60379789
H        2.57219358      -1.00812612      -0.39169407
H        2.64352679       0.71706935      -0.00488527
H        0.40484244      -2.08742666       0.65667506
H       -2.14203629      -1.40519605       0.20234696
H       -1.69776787      -0.83805680       1.81209412
H       -2.23737646       1.55619226      -0.95739654
H        0.12823583       2.08537264      -0.33767973
15
Frame=6 idx=010961 GeodesicLength=0.15794473779946455 rxn_smarts="[C:1]([C:2]1=[C:3]([H:11])[C:4]([H:12])([H:13])[C@@:5]2([H:14])[O:6][C@@:7]12[H:15])([H:8])([H:9])[H:10]>>[C:1]([C:2]1=[C:3]([H:11])[C:4]([H:12])([H:13])[O:6][C@@:7]1([C:5][H:14])[H:15])([H:8])([H:9])[H:10]"
C        2.07683352      -0.04978534      -0.53995171
C        0.66374243      -0.08706843      -0.07248101
C       -0.00313988      -1.10263718       0.45959030
C       -1.43248017      -0.79102541       0.74963978
C       -1.61676785       0.71167420      -0.63541040
O       -1.21652412       1.03022033       0.86559106
C       -0.26262091       1.08365473      -0.20260980
H        2.12497067       0.19699065      -1.60394386
H        2.57186814      -1.00914488      -0.39175500
H        2.64443359       0.71561598      -0.00446166
H        0.40565750      -2.08487310       0.66289187
H       -2.14045739      -1.40580337       0.19928649
H       -1.70232632      -0.84368434       1.80592756
H       -2.24455972       1.54935385      -0.94945515
H        0.13137051       2.08651232      -0.34285849
15
Frame=7 idx=010961 GeodesicLength=0.18424164994471767 rxn_smarts="[C:1]([C:2]1=[C:3]([H:11])[C:4]([H:12])([H:13])[C@@:5]2([H:14])[O:6][C@@:7]12[H:15])([H:8])([H:9])[H:10]>>[C:1]([C:2]1=[C:3]([H:11])[C:4]([H:12])([H:13])[O:6][C@@:7]1([C:5][H:14])[H:15])([H:8])([H:9])[H:10]"
C        2.07719964      -0.05043468      -0.54011552
C        0.66377027      -0.08669129      -0.07352891
C       -0.00354065      -1.10207926       0.45883089
C       -1.43396288      -0.78500626       0.74454246
C       -1.61589460       0.71115941      -0.62832356
O       -1.21434672       1.03514216       0.86654248
C       -0.25999760       1.08543796      -0.20354948
H        2.12634089       0.19625367      -1.60407660
H        2.57153817      -1.01014680      -0.39179378
H        2.64530401       0.71418138      -0.00402064
H        0.40644483      -2.08231785       0.66900555
H       -2.13887405      -1.40630151       0.19628963
H       -1.70680371      -0.84930427       1.79975470
H       -2.25164869       1.54249642      -0.94154255
H        0.13447108       2.08761091      -0.34801467
15
Frame=8 idx=010961 GeodesicLength=0.2105148526430467 rxn_smarts="[C:1]([C:2]1=[C:3]([H:11])[C:4]([H:12])([H:13])[C@@:5]2([H:14])[O:6][C@@:7]12[H:15])([H:8])([H:9])[H:10]>>[C:1]([C:2]1=[C:3]([H:11])[C:4]([H:12])([H:13])[O:6][C@@:7]1([C:5][H:14])[H:15])([H:8])([H:9])[H:10]"
C        2.07755426      -0.05106774      -0.54024186
C        0.66378820      -0.08631280      -0.07453958
C       -0.00394481      -1.10153266       0.45809236
C       -1.43540647      -0.77901005       0.73959347
C       -1.61499687       0.71064724      -0.62130686
O       -1.21223106       1.04005663       0.86744172
C       -0.25740851       1.08719464      -0.20450084
H        2.12769007       0.19552938      -1.60417096
H        2.57121015      -1.01112689      -0.39179179
H        2.64615433       0.71277502      -0.00354709
H        0.40712537      -2.07983420       0.67480661
H       -2.13728151      -1.40668549       0.19341812
H       -1.71114831      -0.85487902       1.79361997
H       -2.25863266       1.53557001      -0.93372194
H        0.13752781       2.08867591      -0.35315132
15
Frame=9 idx=010961 GeodesicLength=0.23679040955850456 rxn_smarts="[C:1]([C:2]1=[C:3]([H:11])[C:4]([H:12])([H:13])[C@@:5]2([H:14])[O:6][C@@:7]12[H:15])([H:8])([H:9])[H:10]>>[C:1]([C:2]1=[C:3]([H:11])[C:4]([H:12])([H:13])[O:6][C@@:7]1([C:5][H:14])[H:15])([H:8])([H:9])[H:10]"
C        2.07789570      -0.05168179      -0.54034031
C        0.66379433      -0.08593402      -0.07552034
C       -0.00435503      -1.10099521       0.45736800
C       -1.43680889      -0.77303529       0.73478545
C       -1.61407297       0.71014314      -0.61434658
O       -1.21017658       1.04494766       0.86830129
C       -0.25484826       1.08891862      -0.20546071
H        2.12902778       0.19479118      -1.60424362
H        2.57089069      -1.01206673      -0.39173247
H        2.64696453       0.71141683      -0.00306967
H        0.40773434      -2.07743174       0.68033441
H       -2.13569493      -1.40696018       0.19064952
H       -1.71540311      -0.86040762       1.78751286
H       -2.26549395       1.52859701      -0.92596914
H        0.14054635       2.08969814      -0.35826868
15
Frame=10 idx=010961 GeodesicLength=0.26303643562283785 rxn_smarts="[C:1]([C:2]1=[C:3]([H:11])[C:4]([H:12])([H:13])[C@@:5]2([H:14])[O:6][C@@:7]12[H:15])([H:8])([H:9])[H:10]>>[C:1]([C:2]1=[C:3]([H:11])[C:4]([H:12])([H:13])[O:6][C@@:7]1([C:5][H:14])[H:15])([H:8])([H:9])[H:10]"
C        2.07822360      -0.05227110      -0.54037984
C        0.66379936      -0.08553738      -0.07641496
C       -0.00476431      -1.10044941       0.45670717
C       -1.43816474      -0.76707679       0.73015710
C       -1.61310219       0.70961488      -0.60745910
O       -1.20820223       1.04984834       0.86910227
C       -0.25232071       1.09061491      -0.20642479
H        2.13033161       0.19403108      -1.60426819
H        2.57058339      -1.01296318      -0.39159038
H        2.64774677       0.71011973      -0.00257523
H        0.40816856      -2.07515886       0.68531676
H       -2.13408643      -1.40711884       0.18806519
H       -1.71950823      -0.86585967       1.78149910
H       -2.27221602       1.52152114      -0.91836883
H        0.14351156       2.09068516      -0.36336627
15
Frame=11 idx=010961 GeodesicLength=0.2892581461491153 rxn_smarts="[C:1]([C:2]1=[C:3]([H:11])[C:4]([H:12])([H:13])[C@@:5]2([H:14])[O:6][C@@:7]12[H:15])([H:8])([H:9])[H:10]>>[C:1]([C:2]1=[C:3]([H:11])[C:4]([H:12])([H:13])[O:6][C@@:7]1([C:5][H:14])[H:15])([H:8])([H:9])[H:10]"
C        2.07854553      -0.05283805      -0.54037681
C        0.66380288      -0.08513125      -0.07724669
C       -0.00517104      -1.09990801       0.45609422
C       -1.43948094      -0.76113665       0.72569228
C       -1.61210891       0.70907929      -0.60063596
O       -1.20630258       1.05475026       0.86985454
C       -0.24982469       1.09228798      -0.20739280
H        2.13161046       0.19325866      -1.60425911
H        2.57029751      -1.01382239      -0.39138684
H        2.64851037       0.70888127      -0.00207172
H        0.40848936      -2.07302374       0.68989524
H       -2.13249008      -1.40717510       0.18562330
H       -1.72349716      -0.87124806       1.77554937
H       -2.27881284       1.51438031      -0.91089414
H        0.14643213       2.09164548      -0.36844487
15
Frame=12 idx=010961 GeodesicLength=0.3154653284618376 rxn_smarts="[C:1]([C:2]1=[C:3]([H:11])[C:4]([H:12])([H:13])[C@@:5]2([H:14])[O:6][C@@:7]12[H:15])([H:8])([H:9])[H:10]>>[C:1]([C:2]1=[C:3]([H:11])[C:4]([H:12])([H:13])[O:6][C@@:7]1([C:5][H:14])[H:15])([H:8])([H:9])[H:10]"
C        2.07885576      -0.05338518      -0.54033507
C        0.66380222      -0.08471558      -0.07801867
C       -0.00557868      -1.09936720       0.45552410
C       -1.44076041      -0.75521499       0.72137971
C       -1.61108629       0.70854156      -0.59387291
O       -1.20447120       1.05965231       0.87056128
C       -0.24735789       1.09393687      -0.20836248
H        2.13286101       0.19246242      -1.60422142
H        2.57002726      -1.01464223      -0.39111385
H        2.64924728       0.70770172      -0.00157068
H        0.40870786      -2.07100912       0.69410127
H       -2.13089358      -1.40712560       0.18330287
H       -1.72737778      -0.87658204       1.76965342
H       -2.28528771       1.50717308      -0.90352551
H        0.14931214       2.09257399      -0.37350204
15
Frame=13 idx=010961 GeodesicLength=0.341658626859289 rxn_smarts="[C:1]([C:2]1=[C:3]([H:11])[C:4]([H:12])([H:13])[C@@:5]2([H:14])[O:6][C@@:7]12[H:15])([H:8])([H:9])[H:10]>>[C:1]([C:2]1=[C:3]([H:11])[C:4]([H:12])([H:13])[O:6][C@@:7]1([C:5][H:14])[H:15])([H:8])([H:9])[H:10]"
C        2.07915581      -0.05391431      -0.54025471
C        0.66379339      -0.08429416      -0.07874808
C       -0.00598771      -1.09882755       0.45499016
C       -1.44200317      -0.74931119       0.71721568
C       -1.61004105       0.70800489      -0.58716691
O       -1.20270065       1.06455673       0.87122210
C       -0.24492171       1.09556110      -0.20934277
H        2.13409637       0.19165983      -1.60415017
H        2.56976726      -1.01543042      -0.39078527
H        2.64995777       0.70656492      -0.00105011
H        0.40883287      -2.06910552       0.69795923
H       -2.12929624      -1.40697246       0.18110050
H       -1.73114927      -0.88186129       1.76381091
H       -2.29165519       1.49989989      -0.89625027
H        0.15215152       2.09346954      -0.37855028
15
Frame=14 idx=010961 GeodesicLength=0.3678432665603711 rxn_smarts="[C:1]([C:2]1=[C:3]([H:11])[C:4]([H:12])([H:13])[C@@:5]2([H:14])[O:6][C@@:7]12[H:15])([H:8])([H:9])[H:10]>>[C:1]([C:2]1=[C:3]([H:11])[C:4]([H:12])([H:13])[O:6][C@@:7]1([C:5][H:14])[H:15])([H:8])([H:9])[H:10]"
C        2.07944470      -0.05442851      -0.54014403
C        0.66377396      -0.08387065      -0.07944769
C       -0.00640154      -1.09829332       0.45447676
C       -1.44321340      -0.74342893       0.71318351
C       -1.60897609       0.70747811      -0.58051380
O       -1.20098372       1.06945787       0.87184173
C       -0.24251461       1.09716133      -0.21033402
H        2.13531675       0.19085109      -1.60405280
H        2.56951435      -1.01619090      -0.39040903
H        2.65064175       0.70546515      -0.00051579
H        0.40888944      -2.06728875       0.70155417
H       -2.12769869      -1.40671867       0.17898749
H       -1.73482414      -0.88709998       1.75800335
H       -2.29792449       1.49257437      -0.88904349
H        0.15495575       2.09433179      -0.38358636
15
Frame=15 idx=010961 GeodesicLength=0.39402216657023637 rxn_smarts="[C:1]([C:2]1=[C:3]([H:11])[C:4]([H:12])([H:13])[C@@:5]2([H:14])[O:6][C@@:7]12[H:15])([H:8])([H:9])[H:10]>>[C:1]([C:2]1=[C:3]([H:11])[C:4]([H:12])([H:13])[O:6][C@@:7]1([C:5][H:14])[H:15])([H:8])([H:9])[H:10]"
C        2.07972505      -0.05492999      -0.54000368
C        0.66373647      -0.08345428      -0.08014989
C       -0.00682422      -1.09777068       0.45396211
C       -1.44439221      -0.73756882       0.70927542
C       -1.60790265       0.70696745      -0.57390765
O       -1.19930492       1.07435553       0.87242060
C       -0.24013878       1.09873458      -0.21135151
H        2.13654896       0.19006842      -1.60392072
H        2.56925963      -1.01693577      -0.39000939
H        2.65129546       0.70437727       0.00007109
H        0.40889503      -2.06553678       0.70494415
H       -2.12610519      -1.40636453       0.17695606
H       -1.73839811      -0.89229993       1.75222623
H       -2.30411840       1.48520192      -0.88187566
H        0.15772388       2.09515562      -0.38863717
15
Frame=16 idx=010961 GeodesicLength=0.42019866741006767 rxn_smarts="[C:1]([C:2]1=[C:3]([H:11])[C:4]([H:12])([H:13])[C@@:5]2([H:14])[O:6][C@@:7]12[H:15])([H:8])([H:9])[H:10]>>[C:1]([C:2]1=[C:3]([H:11])[C:4]([H:12])([H:13])[O:6][C@@:7]1([C:5][H:14])[H:15])([H:8])([H:9])[H:10]"
C        2.07999750      -0.05542068      -0.53983762
C        0.66367809      -0.08304965      -0.08086943
C       -0.00725871      -1.09726377       0.45343213
C       -1.44554228      -0.73173303       0.70548065
C       -1.60682492       0.70648021      -0.56734339
O       -1.19765481       1.07924648       0.87296271
C       -0.23779349       1.10028021      -0.21239887
H        2.13780178       0.18931316      -1.60375665
H        2.56900275      -1.01766756      -0.38959082
H        2.65191677       0.70329551       0.00071486
H        0.40886659      -2.06383043       0.70818294
H       -2.12451813      -1.40591061       0.17498803
H       -1.74187954      -0.89746985       1.74646790
H       -2.31024947       1.47779105      -0.87472112
H        0.16045786       2.09593898      -0.39371132
