12
Frame=0 idx=005338 GeodesicLength=0.0 rxn_smarts="[C:1]([C@@:2]1([H:10])[C:3]([H:11])([H:12])[C:4](=[O:5])[O:6]1)([H:7])([H:8])[H:9]>>[C:1]([C@@:2]([C:3](=[C:4]=[O:5])[H:11])([O:6][H:12])[H:10])([H:7])([H:8])[H:9]"
C       -1.60769455       0.03838739       0.20280235
C       -0.24173805      -0.24923807      -0.35806309
C        0.86900955       0.76749337      -0.12710928
C        1.89503433      -0.19553854      -0.14061599
O        2.97355867      -0.60124688      -0.21485782
O        0.51431045      -1.20552117       0.43141232
H       -1.53530728       0.38377455       1.23608897
H       -2.21741176      -0.86600479       0.17794005
H       -2.11111446       0.80778657      -0.38603693
H       -0.30322761      -0.61207201      -1.38798961
H        1.00264317       1.79242104      -0.45341252
H        0.76193749      -0.06024151       1.01984150
12
Frame=1 idx=005338 GeodesicLength=0.055640917865220706 rxn_smarts="[C:1]([C@@:2]1([H:10])[C:3]([H:11])([H:12])[C:4](=[O:5])[O:6]1)([H:7])([H:8])[H:9]>>[C:1]([C@@:2]([C:3](=[C:4]=[O:5])[H:11])([O:6][H:12])[H:10])([H:7])([H:8])[H:9]"
C       -1.60716007       0.03883448       0.20194037
C       -0.24097402      -0.25012240      -0.35819697
C        0.86982161       0.76605144      -0.11935020
C        1.89808863      -0.19561344      -0.14508278
O        2.97961631      -0.59547665      -0.22122983
O        0.51363552      -1.20664908       0.43220278
H       -1.53873428       0.37727773       1.23779925
H       -2.21933711      -0.86366483       0.17063784
H       -2.10543107       0.81475939      -0.38268590
H       -0.30481564      -0.61060106      -1.38854687
H        0.99909503       1.78388763      -0.46819297
H        0.75619506      -0.05868320       1.04070528
12
Frame=2 idx=005338 GeodesicLength=0.11127222217167933 rxn_smarts="[C:1]([C@@:2]1([H:10])[C:3]([H:11])([H:12])[C:4](=[O:5])[O:6]1)([H:7])([H:8])[H:9]>>[C:1]([C@@:2]([C:3](=[C:4]=[O:5])[H:11])([O:6][H:12])[H:10])([H:7])([H:8])[H:9]"
C       -1.60658199       0.03932530       0.20100395
C       -0.24019461      -0.25109424      -0.35841191
C        0.87072571       0.76447638      -0.11188956
C        1.90115420      -0.19578022      -0.15015278
O        2.98573325      -0.58965473      -0.22773124
O        0.51303299      -1.20761366       0.43318458
H       -1.54212063       0.37111369       1.23927594
H       -2.22119075      -0.86125519       0.16352944
H       -2.09970955       0.82157592      -0.37952646
H       -0.30647406      -0.60946658      -1.38908392
H        0.99541252       1.77524304      -0.48181266
H        0.75021291      -0.05686972       1.06161460
12
Frame=3 idx=005338 GeodesicLength=0.16689613355541502 rxn_smarts="[C:1]([C@@:2]1([H:10])[C:3]([H:11])([H:12])[C:4](=[O:5])[O:6]1)([H:7])([H:8])[H:9]>>[C:1]([C@@:2]([C:3](=[C:4]=[O:5])[H:11])([O:6][H:12])[H:10])([H:7])([H:8])[H:9]"
C       -1.60596059       0.03985386       0.19999660
C       -0.23939810      -0.25215408      -0.35870046
C        0.87172750       0.76276086      -0.10469498
C        1.90422688      -0.19604345      -0.15583332
O        2.99190623      -0.58378228      -0.23436128
O        0.51250608      -1.20842344       0.43435382
H       -1.54547294       0.36525797       1.24053405
H       -2.22297605      -0.85878353       0.15659779
H       -2.09394327       0.82824526      -0.37654863
H       -0.30819952      -0.60865235      -1.38959903
H        0.99161828       1.76652128      -0.49433650
H        0.74396551      -0.05480010       1.08259194
12
Frame=4 idx=005338 GeodesicLength=0.22251728602725834 rxn_smarts="[C:1]([C@@:2]1([H:10])[C:3]([H:11])([H:12])[C:4](=[O:5])[O:6]1)([H:7])([H:8])[H:9]>>[C:1]([C@@:2]([C:3](=[C:4]=[O:5])[H:11])([O:6][H:12])[H:10])([H:7])([H:8])[H:9]"
C       -1.60529558       0.04041516       0.19892064
C       -0.23858201      -0.25330277      -0.35905594
C        0.87283327       0.76089750      -0.09773710
C        1.90730314      -0.19640522      -0.16213209
O        2.99812927      -0.57786051      -0.24112632
O        0.51205845      -1.20908560       0.43570872
H       -1.54879737       0.35969223       1.24158552
H       -2.22469465      -0.85625710       0.14982868
H       -2.08812637       0.83477402      -0.37374628
H       -0.30998767      -0.60814549      -1.39009105
H        0.98773223       1.75774820      -0.50581461
H        0.73742727      -0.05247040       1.10365982
12
Frame=5 idx=005338 GeodesicLength=0.2781415199295498 rxn_smarts="[C:1]([C@@:2]1([H:10])[C:3]([H:11])([H:12])[C:4](=[O:5])[O:6]1)([H:7])([H:8])[H:9]>>[C:1]([C@@:2]([C:3](=[C:4]=[O:5])[H:11])([O:6][H:12])[H:10])([H:7])([H:8])[H:9]"
C       -1.60458601       0.04100441       0.19777806
C       -0.23774287      -0.25454066      -0.35946980
C        0.87405125       0.75887821      -0.09098460
C        1.91037899      -0.19686894      -0.16905977
O        3.00439765      -0.57189199      -0.24803458
O        0.51169541      -1.20960593       0.43724894
H       -1.55210056       0.35439822       1.24244248
H       -2.22634765      -0.85368332       0.14320677
H       -2.08225087       0.84116943      -0.37111395
H       -0.31183339      -0.60793239      -1.39055623
H        0.98377045       1.74895169      -0.51629956
H        0.73056759      -0.04987871       1.12484224
12
Frame=6 idx=005338 GeodesicLength=0.3337694656077739 rxn_smarts="[C:1]([C@@:2]1([H:10])[C:3]([H:11])([H:12])[C:4](=[O:5])[O:6]1)([H:7])([H:8])[H:9]>>[C:1]([C@@:2]([C:3](=[C:4]=[O:5])[H:11])([O:6][H:12])[H:10])([H:7])([H:8])[H:9]"
C       -1.60383084       0.04161780       0.19656970
C       -0.23687641      -0.25586834      -0.35993446
C        0.87538915       0.75669660      -0.08441152
C        1.91345188      -0.19743353      -0.17662265
O        3.01070184      -0.56588040      -0.25510488
O        0.51142245      -1.20998869       0.43897630
H       -1.55538955       0.34936404       1.24311207
H       -2.22793434      -0.85106838       0.13672084
H       -2.07631082       0.84743518      -0.36865070
H       -0.31372949      -0.60800393      -1.39099099
H        0.97974760       1.74014861      -0.52582368
H        0.72335854      -0.04701896       1.14615998
12
Frame=7 idx=005338 GeodesicLength=0.3894014362505706 rxn_smarts="[C:1]([C@@:2]1([H:10])[C:3]([H:11])([H:12])[C:4](=[O:5])[O:6]1)([H:7])([H:8])[H:9]>>[C:1]([C@@:2]([C:3](=[C:4]=[O:5])[H:11])([O:6][H:12])[H:10])([H:7])([H:8])[H:9]"
C       -1.60302829       0.04225135       0.19529582
C       -0.23597737      -0.25728624      -0.36044025
C        0.87685713       0.75434424      -0.07798660
C        1.91651697      -0.19809916      -0.18482940
O        3.01703285      -0.55983026      -0.26235946
O        0.51124715      -1.21023620       0.44089441
H       -1.55867170       0.34457699       1.24360189
H       -2.22945351      -0.84841913       0.13035739
H       -2.07029674       0.85357634      -0.36635578
H       -0.31566795      -0.60835054      -1.39138930
H        0.97567576       1.73136048      -0.53442551
H        0.71576571      -0.04388787       1.16763678
12
Frame=8 idx=005338 GeodesicLength=0.44503915713106634 rxn_smarts="[C:1]([C@@:2]1([H:10])[C:3]([H:11])([H:12])[C:4](=[O:5])[O:6]1)([H:7])([H:8])[H:9]>>[C:1]([C@@:2]([C:3](=[C:4]=[O:5])[H:11])([O:6][H:12])[H:10])([H:7])([H:8])[H:9]"
C       -1.60217640       0.04290121       0.19395648
C       -0.23504013      -0.25879510      -0.36097854
C        0.87846437       0.75181414      -0.07168410
C        1.91957115      -0.19886274      -0.19368576
O        3.02337958      -0.55374851      -0.26982529
O        0.51117656      -1.21035180       0.44300683
H       -1.56195427       0.34002827       1.24391750
H       -2.23090286      -0.84574175       0.12410583
H       -2.06420153       0.85959474      -0.36423077
H       -0.31763985      -0.60896384      -1.39174668
H        0.97156644       1.72259937      -0.54212787
H        0.70775691      -0.04047398       1.18929238
12
Frame=9 idx=005338 GeodesicLength=0.5006809151654107 rxn_smarts="[C:1]([C@@:2]1([H:10])[C:3]([H:11])([H:12])[C:4](=[O:5])[O:6]1)([H:7])([H:8])[H:9]>>[C:1]([C@@:2]([C:3](=[C:4]=[O:5])[H:11])([O:6][H:12])[H:10])([H:7])([H:8])[H:9]"
C       -1.60127225       0.04356385       0.19255039
C       -0.23405695      -0.26039523      -0.36153787
C        0.88022361       0.74909704      -0.06547003
C        1.92260905      -0.19972054      -0.20319550
O        3.02972689      -0.54764248      -0.27754135
O        0.51122046      -1.21033598       0.44532080
H       -1.56524661       0.33570759       1.24406397
H       -2.23227870      -0.84304336       0.11795183
H       -2.05801380       0.86549478      -0.36227865
H       -0.31963313      -0.60983729      -1.39205227
H        0.96743059       1.71388578      -0.54896393
H        0.69929084      -0.03677417       1.21115261
12
Frame=10 idx=005338 GeodesicLength=0.556330070969905 rxn_smarts="[C:1]([C@@:2]1([H:10])[C:3]([H:11])([H:12])[C:4](=[O:5])[O:6]1)([H:7])([H:8])[H:9]>>[C:1]([C@@:2]([C:3](=[C:4]=[O:5])[H:11])([O:6][H:12])[H:10])([H:7])([H:8])[H:9]"
C       -1.60031310       0.04423599       0.19107575
C       -0.23302105      -0.26208829      -0.36210815
C        0.88214520       0.74618597      -0.05932170
C        1.92562692      -0.20066943      -0.21336732
O        3.03606336      -0.54152263      -0.28554630
O        0.51138779      -1.21018828       0.44784529
H       -1.56855608       0.33161160       1.24404237
H       -2.23357686      -0.84033000       0.11188623
H       -2.05172521       0.87127577      -0.36050584
H       -0.32163729      -0.61096773      -1.39229988
H        0.96327540       1.70522935      -0.55493555
H        0.69033091      -0.03277232       1.23323512
12
Frame=11 idx=005338 GeodesicLength=0.6119818540965635 rxn_smarts="[C:1]([C@@:2]1([H:10])[C:3]([H:11])([H:12])[C:4](=[O:5])[O:6]1)([H:7])([H:8])[H:9]>>[C:1]([C@@:2]([C:3](=[C:4]=[O:5])[H:11])([O:6][H:12])[H:10])([H:7])([H:8])[H:9]"
C       -1.59929595       0.04491445       0.18952992
C       -0.23192402      -0.26387538      -0.36267768
C        0.88424036       0.74307412      -0.05321190
C        1.92862065      -0.20170294      -0.22420111
O        3.04237337      -0.53540078      -0.29389001
O        0.51168849      -1.20990799       0.45059090
H       -1.57189235       0.32773573       1.24385306
H       -2.23479250      -0.83760804       0.10589772
H       -2.04532633       0.87693761      -0.35891889
H       -0.32363871      -0.61235184      -1.39247929
H        0.95910987       1.69664109      -0.56005086
H        0.68083711      -0.02845603       1.25555815
12
Frame=12 idx=005338 GeodesicLength=0.667636628153377 rxn_smarts="[C:1]([C@@:2]1([H:10])[C:3]([H:11])([H:12])[C:4](=[O:5])[O:6]1)([H:7])([H:8])[H:9]>>[C:1]([C@@:2]([C:3](=[C:4]=[O:5])[H:11])([O:6][H:12])[H:10])([H:7])([H:8])[H:9]"
C       -1.59821734       0.04559565       0.18791009
C       -0.23075667      -0.26575787      -0.36323390
C        0.88652126       0.73975408      -0.04711190
C        1.93158488      -0.20281238      -0.23569647
O        3.04863907      -0.52929016      -0.30262926
O        0.51213352      -1.20949337       0.45356967
H       -1.57526577       0.32407499       1.24349622
H       -2.23591999      -0.83488382       0.09997348
H       -2.03880624       0.88248045      -0.35752539
H       -0.32562213      -0.61398767      -1.39257962
H        0.95494366       1.68812915      -0.56431402
H        0.67076575      -0.02380905       1.27814109
12
Frame=13 idx=005338 GeodesicLength=0.7232909667325662 rxn_smarts="[C:1]([C@@:2]1([H:10])[C:3]([H:11])([H:12])[C:4](=[O:5])[O:6]1)([H:7])([H:8])[H:9]>>[C:1]([C@@:2]([C:3](=[C:4]=[O:5])[H:11])([O:6][H:12])[H:10])([H:7])([H:8])[H:9]"
C       -1.59707419       0.04627629       0.18621269
C       -0.22950894      -0.26773686      -0.36376250
C        0.88899902       0.73622135      -0.04099436
C        1.93451587      -0.20398771      -0.24784620
O        3.05484013      -0.52320760      -0.31183189
O        0.51273345      -1.20894144       0.45679719
H       -1.57868817       0.32062703       1.24296926
H       -2.23695312      -0.83216396       0.09410114
H       -2.03215486       0.88790208      -0.35633618
H       -0.32756911      -0.61587419      -1.39258872
H        0.95078544       1.67970213      -0.56772238
H        0.66007447      -0.01881712       1.30100193
12
Frame=14 idx=005338 GeodesicLength=0.7789406293966034 rxn_smarts="[C:1]([C@@:2]1([H:10])[C:3]([H:11])([H:12])[C:4](=[O:5])[O:6]1)([H:7])([H:8])[H:9]>>[C:1]([C@@:2]([C:3](=[C:4]=[O:5])[H:11])([O:6][H:12])[H:10])([H:7])([H:8])[H:9]"
C       -1.59586200       0.04695317       0.18443440
C       -0.22817083      -0.26981419      -0.36425021
C        0.89168676       0.73246759      -0.03483139
C        1.93740575      -0.20521769      -0.26064301
O        3.06095863      -0.51716829      -0.32156065
O        0.51349948      -1.20825106       0.46028597
H       -1.58216900       0.31738834       1.24227089
H       -2.23788504      -0.82945499       0.08826808
H       -2.02535982       0.89320290      -0.35535908
H       -0.32946381      -0.61801138      -1.39249448
H        0.94664257       1.67136970      -0.57027546
H        0.64871732      -0.01346410       1.32415493
12
Frame=15 idx=005338 GeodesicLength=0.8345805181617617 rxn_smarts="[C:1]([C@@:2]1([H:10])[C:3]([H:11])([H:12])[C:4](=[O:5])[O:6]1)([H:7])([H:8])[H:9]>>[C:1]([C@@:2]([C:3](=[C:4]=[O:5])[H:11])([O:6][H:12])[H:10])([H:7])([H:8])[H:9]"
C       -1.59457706       0.04762314       0.18257162
C       -0.22673177      -0.27199123      -0.36468205
C        0.89459565       0.72848810      -0.02859564
C        1.94024872      -0.20648903      -0.27407337
O        3.06697458      -0.51118963      -0.33188826
O        0.51444203      -1.20742015       0.46405123
H       -1.58571986       0.31435705       1.24139772
H       -2.23870890      -0.82676310       0.08246185
H       -2.01841023       0.89838091      -0.35460442
H       -0.33128733      -0.62039924      -1.39228376
H        0.94252395       1.66313818      -0.57196715
H        0.63665023      -0.00773501       1.34761223
12
Frame=16 idx=005338 GeodesicLength=0.8902093401184564 rxn_smarts="[C:1]([C@@:2]1([H:10])[C:3]([H:11])([H:12])[C:4](=[O:5])[O:6]1)([H:7])([H:8])[H:9]>>[C:1]([C@@:2]([C:3](=[C:4]=[O:5])[H:11])([O:6][H:12])[H:10])([H:7])([H:8])[H:9]"
C       -1.59321511       0.04828307       0.18062060
C       -0.22518105      -0.27426982      -0.36504300
C        0.89773738       0.72427693      -0.02226004
C        1.94303721      -0.20778667      -0.28812211
O        3.07286805      -0.50528909      -0.34288820
O        0.51557138      -1.20644799       0.46810753
H       -1.58935182       0.31153080       1.24034688
H       -2.23941743      -0.82409444       0.07666933
H       -2.01129434       0.90343476      -0.35408159
H       -0.33302104      -0.62303836      -1.39194343
H        0.93843875       1.65501322      -0.57278975
H        0.62382801      -0.00161240       1.37138379
