14
Frame=0 idx=004592 GeodesicLength=0.0 rxn_smarts="[C:1]([C@@:2]1([H:9])[C:3]([H:10])([H:11])[N:4]1[C:5]([H:12])([H:13])[H:14])([H:6])([H:7])[H:8]>>[C:1]([N+:4]1([C:5]([H:12])([H:13])[H:14])[C-:2]([H:9])[C:3]1([H:10])[H:11])([H:6])([H:7])[H:8]"
C       -1.30444169       0.46400087      -0.76126657
C       -0.80247347       0.11766411       1.08637980
C       -0.05854947      -1.14218698       0.97856204
N        0.12602627      -0.40790810      -0.24427595
C        1.39531370       0.25960678      -0.43412912
H       -1.73782660       1.40454942      -0.41910792
H       -0.82709559       0.67250695      -1.73177657
H       -2.08409939      -0.27510220      -0.89584385
H       -0.17548860       0.91208069       1.50766301
H       -0.58685939      -2.08914085       0.88722832
H        0.87237438      -1.21560845       1.53358855
H        1.80475937       0.66839909       0.49707384
H        2.11113415      -0.44817327      -0.85919902
H        1.26722633       1.07931192      -1.14489661
14
Frame=1 idx=004592 GeodesicLength=0.05005839992592036 rxn_smarts="[C:1]([C@@:2]1([H:9])[C:3]([H:10])([H:11])[N:4]1[C:5]([H:12])([H:13])[H:14])([H:6])([H:7])[H:8]>>[C:1]([N+:4]1([C:5]([H:12])([H:13])[H:14])[C-:2]([H:9])[C:3]1([H:10])[H:11])([H:6])([H:7])[H:8]"
C       -1.31236313       0.45856446      -0.76240544
C       -0.79048013       0.12924583       1.07859184
C       -0.06035899      -1.14008162       0.97807671
N        0.13106603      -0.39527987      -0.23777210
C        1.40451314       0.26273300      -0.42930820
H       -1.75630206       1.39904640      -0.43335734
H       -0.84701362       0.66365597      -1.73901029
H       -2.08411019      -0.29131965      -0.88446890
H       -0.16551746       0.91932139       1.50964211
H       -0.60032259      -2.07913455       0.87544663
H        0.86846654      -1.22602143       1.53503299
H        1.82300598       0.65218393       0.50600157
H        2.10910304      -0.44702632      -0.86952643
H        1.28031343       1.09411245      -1.12694314
14
Frame=2 idx=004592 GeodesicLength=0.10008571105611465 rxn_smarts="[C:1]([C@@:2]1([H:9])[C:3]([H:10])([H:11])[N:4]1[C:5]([H:12])([H:13])[H:14])([H:6])([H:7])[H:8]>>[C:1]([N+:4]1([C:5]([H:12])([H:13])[H:14])[C-:2]([H:9])[C:3]1([H:10])[H:11])([H:6])([H:7])[H:8]"
C       -1.32020415       0.45311654      -0.76340825
C       -0.77854351       0.14083576       1.07071021
C       -0.06226436      -1.13776658       0.97731803
N        0.13615472      -0.38259185      -0.23151497
C        1.41382069       0.26581647      -0.42442928
H       -1.77464458       1.39326954      -0.44750104
H       -0.86737779       0.65412797      -1.74629145
H       -2.08410531      -0.30708362      -0.87272731
H       -0.15570516       0.92646662       1.51162315
H       -0.61343046      -2.06886100       0.86357573
H        0.86423743      -1.23621674       1.53628870
H        1.84102211       0.63561137       0.51476446
H        2.10705546      -0.44553779      -0.87979428
H        1.29398491       1.10881330      -1.10861368
14
Frame=3 idx=004592 GeodesicLength=0.15006286696765583 rxn_smarts="[C:1]([C@@:2]1([H:9])[C:3]([H:10])([H:11])[N:4]1[C:5]([H:12])([H:13])[H:14])([H:6])([H:7])[H:8]>>[C:1]([N+:4]1([C:5]([H:12])([H:13])[H:14])[C-:2]([H:9])[C:3]1([H:10])[H:11])([H:6])([H:7])[H:8]"
C       -1.32796334       0.44768162      -0.76427240
C       -0.76667662       0.15240839       1.06272941
C       -0.06424631      -1.13525349       0.97628192
N        0.14128372      -0.36985869      -0.22551485
C        1.42322517       0.26884829      -0.41949599
H       -1.79282318       1.38725313      -0.46152167
H       -0.88818884       0.64393134      -1.75359160
H       -2.08410949      -0.32235167      -0.86062848
H       -0.14607984       0.93349842       1.51359785
H       -0.62614812      -2.05836380       0.85162003
H        0.85970472      -1.24617692       1.53735709
H        1.85875084       0.61873975       0.52334639
H        2.10502073      -0.44371009      -0.88995141
H        1.30825056       1.12335374      -1.08995629
14
Frame=4 idx=004592 GeodesicLength=0.19997000082477037 rxn_smarts="[C:1]([C@@:2]1([H:9])[C:3]([H:10])([H:11])[N:4]1[C:5]([H:12])([H:13])[H:14])([H:6])([H:7])[H:8]>>[C:1]([N+:4]1([C:5]([H:12])([H:13])[H:14])[C-:2]([H:9])[C:3]1([H:10])[H:11])([H:6])([H:7])[H:8]"
C       -1.33563962       0.44228372      -0.76499671
C       -0.75489158       0.16393993       1.05464629
C       -0.06628628      -1.13255489       0.97496619
N        0.14644416      -0.35709563      -0.21978021
C        1.43271608       0.27181972      -0.41451245
H       -1.81081409       1.38102899      -0.47540192
H       -0.90944596       0.63308202      -1.76087841
H       -2.08414375      -0.33708674      -0.84818603
H       -0.13666819       0.94040173       1.51555837
H       -0.63844563      -2.04768648       0.83958185
H        0.85488786      -1.25588639       1.53824168
H        1.87613915       0.60163005       0.53173587
H        2.10302990      -0.44154998      -0.89995017
H        1.32311795       1.13767394      -1.07102434
14
Frame=5 idx=004592 GeodesicLength=0.24979343248442615 rxn_smarts="[C:1]([C@@:2]1([H:9])[C:3]([H:10])([H:11])[N:4]1[C:5]([H:12])([H:13])[H:14])([H:6])([H:7])[H:8]>>[C:1]([N+:4]1([C:5]([H:12])([H:13])[H:14])[C-:2]([H:9])[C:3]1([H:10])[H:11])([H:6])([H:7])[H:8]"
C       -1.34323586       0.43693559      -0.76558456
C       -0.74319530       0.17541112       1.04645266
C       -0.06836597      -1.12968332       0.97336653
N        0.15163456      -0.34431237      -0.21432117
C        1.44228299       0.27472488      -0.40948707
H       -1.82860119       1.37462371      -0.48912246
H       -0.93115102       0.62163592      -1.76810142
H       -2.08420464      -0.35128335      -0.83542494
H       -0.12748740       0.94716392       1.51748764
H       -0.65031076      -2.03685396       0.82747066
H        0.84980627      -1.26533803       1.53893552
H        1.89315062       0.58434895       0.53991992
H        2.10111460      -0.43908638      -0.90972386
H        1.33856310       1.15171332      -1.05186745
14
Frame=6 idx=004592 GeodesicLength=0.2995503231261972 rxn_smarts="[C:1]([C@@:2]1([H:9])[C:3]([H:10])([H:11])[N:4]1[C:5]([H:12])([H:13])[H:14])([H:6])([H:7])[H:8]>>[C:1]([N+:4]1([C:5]([H:12])([H:13])[H:14])[C-:2]([H:9])[C:3]1([H:10])[H:11])([H:6])([H:7])[H:8]"
C       -1.35075329       0.43165145      -0.76603985
C       -0.73158712       0.18682337       1.03814094
C       -0.07047721      -1.12663661       0.97149032
N        0.15686053      -0.33151759      -0.20914074
C        1.45192924       0.27756167      -0.40441241
H       -1.84618649       1.36805168      -0.50270202
H       -0.95330139       0.60951169      -1.77527408
H       -2.08434863      -0.36491101      -0.82232893
H       -0.11854677       0.95379594       1.51936826
H       -0.66174203      -2.02589730       0.81529204
H        0.84446324      -1.27452574       1.53945495
H        1.90979355       0.56685648       0.54791019
H        2.09927748      -0.43627452      -0.91933595
H        1.35461888       1.16551050      -1.03242273
14
Frame=7 idx=004592 GeodesicLength=0.34921899653997895 rxn_smarts="[C:1]([C@@:2]1([H:9])[C:3]([H:10])([H:11])[N:4]1[C:5]([H:12])([H:13])[H:14])([H:6])([H:7])[H:8]>>[C:1]([N+:4]1([C:5]([H:12])([H:13])[H:14])[C-:2]([H:9])[C:3]1([H:10])[H:11])([H:6])([H:7])[H:8]"
C       -1.35818427       0.42644834      -0.76637707
C       -0.72007626       0.19816621       1.02971826
C       -0.07260236      -1.12342707       0.96933740
N        0.16209966      -0.31873031      -0.20423300
C        1.46163780       0.28031727      -0.39929205
H       -1.86356821       1.36132110      -0.51612864
H       -0.97589725       0.59677303      -1.78231839
H       -2.08454565      -0.37795135      -0.80893736
H       -0.10986654       0.96029312       1.52119158
H       -0.67271028      -2.01484103       0.80303692
H        0.83888670      -1.28343003       1.53980113
H        1.92601325       0.54921127       0.55570771
H        2.09753829      -0.43314872      -0.92874844
H        1.37127511       1.17899817      -1.01275805
14
Frame=8 idx=004592 GeodesicLength=0.3987816270983753 rxn_smarts="[C:1]([C@@:2]1([H:9])[C:3]([H:10])([H:11])[N:4]1[C:5]([H:12])([H:13])[H:14])([H:6])([H:7])[H:8]>>[C:1]([N+:4]1([C:5]([H:12])([H:13])[H:14])[C-:2]([H:9])[C:3]1([H:10])[H:11])([H:6])([H:7])[H:8]"
C       -1.36554192       0.42132397      -0.76658757
C       -0.70866890       0.20942119       1.02116495
C       -0.07472767      -1.12006695       0.96690517
N        0.16736759      -0.30594884      -0.19961953
C        1.47140091       0.28299539      -0.39414336
H       -1.88072795       1.35446726      -0.52937927
H       -0.99892651       0.58351587      -1.78920784
H       -2.08479185      -0.39043202      -0.79526338
H       -0.10145633       0.96665205       1.52292776
H       -0.68322585      -2.00372022       0.79072428
H        0.83309061      -1.29206125       1.53996724
H        1.94181119       0.53148056       0.56330165
H        2.09594045      -0.42974415      -0.93786537
H        1.38845623       1.19211713      -0.99292472
14
Frame=9 idx=004592 GeodesicLength=0.44825804068397773 rxn_smarts="[C:1]([C@@:2]1([H:9])[C:3]([H:10])([H:11])[N:4]1[C:5]([H:12])([H:13])[H:14])([H:6])([H:7])[H:8]>>[C:1]([N+:4]1([C:5]([H:12])([H:13])[H:14])[C-:2]([H:9])[C:3]1([H:10])[H:11])([H:6])([H:7])[H:8]"
C       -1.37282241       0.41629986      -0.76669192
C       -0.69735814       0.22059103       1.01248316
C       -0.07684526      -1.11655621       0.96420111
N        0.17266374      -0.29318584      -0.19529562
C        1.48122286       0.28559218      -0.38895282
H       -1.89767975       1.34748943      -0.54247733
H       -1.02238384       0.56964463      -1.79592963
H       -2.08514097      -0.40231754      -0.78129551
H       -0.09332377       0.97287846       1.52457412
H       -0.69327671      -1.99253973       0.77833779
H        0.82707669      -1.30040876       1.53997838
H        1.95718124       0.51362400       0.57070919
H        2.09446932      -0.42602027      -0.94676954
H        1.40621700       1.20490877      -0.97287138
14
Frame=10 idx=004592 GeodesicLength=0.497670293580746 rxn_smarts="[C:1]([C@@:2]1([H:9])[C:3]([H:10])([H:11])[N:4]1[C:5]([H:12])([H:13])[H:14])([H:6])([H:7])[H:8]>>[C:1]([N+:4]1([C:5]([H:12])([H:13])[H:14])[C-:2]([H:9])[C:3]1([H:10])[H:11])([H:6])([H:7])[H:8]"
C       -1.38002655       0.41136707      -0.76670274
C       -0.68614225       0.23169381       1.00367184
C       -0.07895586      -1.11288985       0.96123598
N        0.17798886      -0.28044529      -0.19125015
C        1.49110745       0.28810902      -0.38372086
H       -1.91445247       1.34037323      -0.55543440
H       -1.04628622       0.55516635      -1.80246224
H       -2.08558049      -0.41362227      -0.76705785
H       -0.08545463       0.97899426       1.52610464
H       -0.70289834      -1.98131280       0.76589427
H        0.82085248      -1.30846800       1.53982818
H        1.97215408       0.49560876       0.57793288
H        2.09314068      -0.42196002      -0.95550321
H        1.42455325       1.21738573      -0.95253634
14
Frame=11 idx=004592 GeodesicLength=0.547048322396952 rxn_smarts="[C:1]([C@@:2]1([H:9])[C:3]([H:10])([H:11])[N:4]1[C:5]([H:12])([H:13])[H:14])([H:6])([H:7])[H:8]>>[C:1]([N+:4]1([C:5]([H:12])([H:13])[H:14])[C-:2]([H:9])[C:3]1([H:10])[H:11])([H:6])([H:7])[H:8]"
C       -1.38715386       0.40652989      -0.76662962
C       -0.67501723       0.24274105       0.99469167
C       -0.08104521      -1.10906185       0.95800289
N        0.18336042      -0.26771954      -0.18750615
C        1.50105183       0.29054893      -0.37844217
H       -1.93105142       1.33312506      -0.56827636
H       -1.07063902       0.54002246      -1.80877879
H       -2.08612780      -0.42433090      -0.75250763
H       -0.07785661       0.98501819       1.52747700
H       -0.71208702      -1.97003707       0.75338759
H        0.81442156      -1.31624685       1.53952756
H        1.98674696       0.47736834       0.58497716
H        2.09194755      -0.41752912      -0.96408730
H        1.44344987       1.22957141      -0.93183586
14
Frame=12 idx=004592 GeodesicLength=0.5963507610747136 rxn_smarts="[C:1]([C@@:2]1([H:9])[C:3]([H:10])([H:11])[N:4]1[C:5]([H:12])([H:13])[H:14])([H:6])([H:7])[H:8]>>[C:1]([N+:4]1([C:5]([H:12])([H:13])[H:14])[C-:2]([H:9])[C:3]1([H:10])[H:11])([H:6])([H:7])[H:8]"
C       -1.39419539       0.40179631      -0.76648457
C       -0.66398415       0.25372074       0.98556474
C       -0.08310839      -1.10508920       0.95451243
N        0.18875638      -0.25503234      -0.18404948
C        1.51103581       0.29290199      -0.37312517
H       -1.94747073       1.32574839      -0.58097416
H       -1.09540314       0.52432991      -1.81481180
H       -2.08673929      -0.43446330      -0.73770030
H       -0.07054290       0.99095395       1.52869167
H       -0.72082697      -1.95874658       0.74081033
H        0.80779444      -1.32373099       1.53908734
H        2.00091020       0.45898714       0.59184310
H        2.09090344      -0.41277126      -0.97249151
H        1.46287069       1.24139524      -0.91087261
14
Frame=13 idx=004592 GeodesicLength=0.6456131367141784 rxn_smarts="[C:1]([C@@:2]1([H:9])[C:3]([H:10])([H:11])[N:4]1[C:5]([H:12])([H:13])[H:14])([H:6])([H:7])[H:8]>>[C:1]([N+:4]1([C:5]([H:12])([H:13])[H:14])[C-:2]([H:9])[C:3]1([H:10])[H:11])([H:6])([H:7])[H:8]"
C       -1.40116653       0.39716373      -0.76628233
C       -0.65304238       0.26463654       0.97627433
C       -0.08514026      -1.10096804       0.95076923
N        0.19419923      -0.24238141      -0.18088573
C        1.52108064       0.29517580      -0.36776827
H       -1.96373256       1.31824285      -0.59354955
H       -1.12060399       0.50803363      -1.82056476
H       -2.08746689      -0.44400595      -0.72262474
H       -0.06350609       0.99680636       1.52972936
H       -0.72915029      -1.94743914       0.72817418
H        0.80097676      -1.33092357       1.53851317
H        2.01468915       0.44041923       0.59852637
H        2.09003561      -0.40763978      -0.98074817
H        1.48282761       1.25287975      -0.88956309
14
Frame=14 idx=004592 GeodesicLength=0.6948437085488395 rxn_smarts="[C:1]([C@@:2]1([H:9])[C:3]([H:10])([H:11])[N:4]1[C:5]([H:12])([H:13])[H:14])([H:6])([H:7])[H:8]>>[C:1]([N+:4]1([C:5]([H:12])([H:13])[H:14])[C-:2]([H:9])[C:3]1([H:10])[H:11])([H:6])([H:7])[H:8]"
C       -1.40807189       0.39263075      -0.76604393
C       -0.64218907       0.27550695       0.96681254
C       -0.08713104      -1.09669863       0.94677434
N        0.19969178      -0.22976604      -0.17802320
C        1.53118406       0.29737452      -0.36236443
H       -1.97982380       1.31063038      -0.60604621
H       -1.14625812       0.49106551      -1.82602095
H       -2.08833245      -0.45294307      -0.70724776
H       -0.05675240       1.00260612       1.53058185
H       -0.73704646      -1.93613019       0.71545762
H        0.79397850      -1.33782908       1.53782040
H        2.02810060       0.42160712       0.60504536
H        2.08933849      -0.40210373      -0.98891401
H        1.50331180       1.26404940      -0.86783162
14
Frame=15 idx=004592 GeodesicLength=0.7440838928685566 rxn_smarts="[C:1]([C@@:2]1([H:9])[C:3]([H:10])([H:11])[N:4]1[C:5]([H:12])([H:13])[H:14])([H:6])([H:7])[H:8]>>[C:1]([N+:4]1([C:5]([H:12])([H:13])[H:14])[C-:2]([H:9])[C:3]1([H:10])[H:11])([H:6])([H:7])[H:8]"
C       -1.41488341       0.38818194      -0.76576885
C       -0.63141049       0.28632882       0.95715075
C       -0.08909469      -1.09227147       0.94252433
N        0.20523780      -0.21718496      -0.17545645
C        1.54133293       0.29950683      -0.35691509
H       -1.99572606       1.30287360      -0.61846129
H       -1.17234272       0.47342979      -1.83111208
H       -2.08930262      -0.46128702      -0.69154797
H       -0.05026973       1.00834945       1.53118623
H       -0.74454788      -1.92480485       0.70266795
H        0.78676616      -1.34443569       1.53698856
H        2.04112833       0.40252847       0.61136385
H        2.08879467      -0.39611326      -0.99698677
H        1.52431770       1.27489837      -0.84563317
14
Frame=16 idx=004592 GeodesicLength=0.7933109894905288 rxn_smarts="[C:1]([C@@:2]1([H:9])[C:3]([H:10])([H:11])[N:4]1[C:5]([H:12])([H:13])[H:14])([H:6])([H:7])[H:8]>>[C:1]([N+:4]1([C:5]([H:12])([H:13])[H:14])[C-:2]([H:9])[C:3]1([H:10])[H:11])([H:6])([H:7])[H:8]"
C       -1.42163023       0.38383013      -0.76548524
C       -0.62071522       0.29711143       0.94729736
C       -0.09100882      -1.08769901       0.93802791
N        0.21084244      -0.20464848      -0.17319481
C        1.55154041       0.30156518      -0.35141861
H       -2.01147434       1.29500244      -0.63080722
H       -1.19887950       0.45512629      -1.83583294
H       -2.09041536      -0.46901607      -0.67554539
H       -0.04407156       1.01406280       1.53156081
H       -0.75163664      -1.91349005       0.68978808
H        0.77937956      -1.35075087       1.53604679
H        2.05378963       0.38318598       0.61750344
H        2.08845180      -0.38968105      -1.00497897
H        1.54582784       1.28540128      -0.82296122
