18
Frame=0 idx=000767 GeodesicLength=0.0 rxn_smarts="[C:1]([C:2]([C:3]([C:4]1([H:14])[C:5]([H:15])([H:16])[C:6]1([H:17])[H:18])([H:12])[H:13])([H:10])[H:11])([H:7])([H:8])[H:9]>>[C:1]([C:2]([C:3]([C:4][C:5]([C:6]([H:14])([H:17])[H:18])([H:15])[H:16])([H:12])[H:13])([H:10])[H:11])([H:7])([H:8])[H:9]"
C       -2.07381234       0.27743696       0.47895942
C       -1.31776389      -1.03778618       0.61644159
C        0.19770485      -0.88940079       0.52763261
C        0.74855347      -0.54018460      -0.83402566
C        2.10024658       0.05259880      -0.74612265
C        1.19619086       1.27121481      -0.79725131
H       -1.95074457       0.71019849      -0.51661356
H       -1.72885577       1.01259816       1.21193244
H       -3.14437421       0.13374381       0.63528866
H       -1.57086213      -1.49803693       1.57649609
H       -1.64413569      -1.73118423      -0.16310987
H        0.65695788      -1.87226357       0.70015254
H        0.56860386      -0.24645194       1.34446647
H        0.16326903       0.76470573      -1.10150555
H        2.63747079      -0.04312058       0.19826641
H        2.75377906      -0.06517600      -1.60491190
H        1.33252898       1.90312350      -1.66908697
H        1.07524326       1.79798456       0.14299122
18
Frame=1 idx=000767 GeodesicLength=0.056814823352705233 rxn_smarts="[C:1]([C:2]([C:3]([C:4]1([H:14])[C:5]([H:15])([H:16])[C:6]1([H:17])[H:18])([H:12])[H:13])([H:10])[H:11])([H:7])([H:8])[H:9]>>[C:1]([C:2]([C:3]([C:4][C:5]([C:6]([H:14])([H:17])[H:18])([H:15])[H:16])([H:12])[H:13])([H:10])[H:11])([H:7])([H:8])[H:9]"
C       -2.07541624       0.27635010       0.48849669
C       -1.31992214      -1.03999411       0.61678289
C        0.19536293      -0.88984326       0.52980969
C        0.74899018      -0.53574079      -0.82698487
C        2.10208696       0.05465059      -0.74194020
C        1.19838735       1.27311273      -0.80619508
H       -1.95094475       0.71604001      -0.50375869
H       -1.73103311       1.00633181       1.22685052
H       -3.14620867       0.13207677       0.64286245
H       -1.57351339      -1.50725887       1.57332411
H       -1.64594714      -1.72787488      -0.16783210
H        0.65546714      -1.87312903       0.70022681
H        0.56589687      -0.24892123       1.34813845
H        0.16372504       0.76016868      -1.14629073
H        2.63716809      -0.03392450       0.20433254
H        2.75455087      -0.07250760      -1.60021388
H        1.35913678       1.91053792      -1.66974986
H        1.06221323       1.79992566       0.13214128
18
Frame=2 idx=000767 GeodesicLength=0.1135531278757696 rxn_smarts="[C:1]([C:2]([C:3]([C:4]1([H:14])[C:5]([H:15])([H:16])[C:6]1([H:17])[H:18])([H:12])[H:13])([H:10])[H:11])([H:7])([H:8])[H:9]>>[C:1]([C:2]([C:3]([C:4][C:5]([C:6]([H:14])([H:17])[H:18])([H:15])[H:16])([H:12])[H:13])([H:10])[H:11])([H:7])([H:8])[H:9]"
C       -2.07653456       0.27556815       0.49802297
C       -1.32205282      -1.04210215       0.61716008
C        0.19310587      -0.89068479       0.53204427
C        0.74934483      -0.53124480      -0.81984804
C        2.10373266       0.05705878      -0.73755694
C        1.19994115       1.27493181      -0.81520902
H       -1.95019756       0.72228305      -0.49075674
H       -1.73264732       1.00010666       1.24190509
H       -3.14764127       0.13106960       0.65013235
H       -1.57629684      -1.51627233       1.57013095
H       -1.64792658      -1.72430190      -0.17250897
H        0.65388731      -1.87454184       0.69986671
H        0.56342498      -0.25206622       1.35201157
H        0.16525045       0.75402004      -1.19191888
H        2.63657838      -0.02407678       0.21061294
H        2.75523334      -0.07931488      -1.59515761
H        1.38450108       1.91778481      -1.66987240
H        1.04829690       1.80178279       0.12094168
18
Frame=3 idx=000767 GeodesicLength=0.1702140543004883 rxn_smarts="[C:1]([C:2]([C:3]([C:4]1([H:14])[C:5]([H:15])([H:16])[C:6]1([H:17])[H:18])([H:12])[H:13])([H:10])[H:11])([H:7])([H:8])[H:9]>>[C:1]([C:2]([C:3]([C:4][C:5]([C:6]([H:14])([H:17])[H:18])([H:15])[H:16])([H:12])[H:13])([H:10])[H:11])([H:7])([H:8])[H:9]"
C       -2.07721423       0.27506614       0.50753653
C       -1.32416487      -1.04411203       0.61757573
C        0.19092148      -0.89188921       0.53432527
C        0.74958093      -0.52664401      -0.81262926
C        2.10517549       0.05981096      -0.73299204
C        1.20090923       1.27670061      -0.82428701
H       -1.94854932       0.72889764      -0.47760471
H       -1.73377738       0.99390112       1.25709657
H       -3.14871449       0.13067118       0.65709033
H       -1.57920748      -1.52507921       1.56692399
H       -1.65006607      -1.72048185      -0.17712866
H        0.65222011      -1.87645691       0.69905100
H        0.56117006      -0.25585039       1.35607341
H        0.16794975       0.74626041      -1.23824109
H        2.63569444      -0.01362703       0.21707660
H        2.75581550      -0.08563118      -1.58976629
H        1.40860794       1.92488640      -1.66950333
H        1.03364889       1.80357735       0.10940295
18
Frame=4 idx=000767 GeodesicLength=0.22681022954269908 rxn_smarts="[C:1]([C:2]([C:3]([C:4]1([H:14])[C:5]([H:15])([H:16])[C:6]1([H:17])[H:18])([H:12])[H:13])([H:10])[H:11])([H:7])([H:8])[H:9]>>[C:1]([C:2]([C:3]([C:4][C:5]([C:6]([H:14])([H:17])[H:18])([H:15])[H:16])([H:12])[H:13])([H:10])[H:11])([H:7])([H:8])[H:9]"
C       -2.07751520       0.27481148       0.51704306
C       -1.32626913      -1.04602756       0.61803107
C        0.18879355      -0.89341100       0.53663689
C        0.74966023      -0.52188172      -0.80534630
C        2.10641281       0.06288910      -0.72826557
C        1.20136314       1.27844798      -0.83342791
H       -1.94607500       0.73584532      -0.46429466
H       -1.73451164       0.98768988       1.27242752
H       -3.14948103       0.13081599       0.66374726
H       -1.58223529      -1.53368876       1.56370912
H       -1.65235770      -1.71643321      -0.18168216
H        0.65046776      -1.87881678       0.69775989
H        0.55910692      -0.26022423       1.36030500
H        0.17191925       0.73691213      -1.28510696
H        2.63451442      -0.00263051       0.22369330
H        2.75628955      -0.09150385      -1.58406336
H        1.43148263       1.93186596      -1.66870208
H        1.01843472       1.80533980       0.09753587
18
Frame=5 idx=000767 GeodesicLength=0.2833750923832382 rxn_smarts="[C:1]([C:2]([C:3]([C:4]1([H:14])[C:5]([H:15])([H:16])[C:6]1([H:17])[H:18])([H:12])[H:13])([H:10])[H:11])([H:7])([H:8])[H:9]>>[C:1]([C:2]([C:3]([C:4][C:5]([C:6]([H:14])([H:17])[H:18])([H:15])[H:16])([H:12])[H:13])([H:10])[H:11])([H:7])([H:8])[H:9]"
C       -2.07750345       0.27476801       0.52655626
C       -1.32837754      -1.04785314       0.61852451
C        0.18670402      -0.89519819       0.53895973
C        0.74954969      -0.51689954      -0.79801957
C        2.10744650       0.06627246      -0.72339762
C        1.20138901       1.28020622      -0.84263737
H       -1.94287038       0.74308426      -0.45081419
H       -1.73494061       0.98144617       1.28790501
H       -3.14999730       0.13143079       0.67013179
H       -1.58536716      -1.54211863       1.56048566
H       -1.65479354      -1.71217135      -0.18616764
H        0.64863267      -1.88155426       0.69597724
H        0.55720740      -0.26512839       1.36468202
H        0.17723917       0.72601199      -1.33236501
H        2.63303831       0.00885348       0.23043445
H        2.75665438      -0.09698798      -1.57806810
H        1.45317518       1.93873518      -1.66753070
H        1.00281366       1.80710294       0.08534354
18
Frame=6 idx=000767 GeodesicLength=0.33988981883388253 rxn_smarts="[C:1]([C:2]([C:3]([C:4]1([H:14])[C:5]([H:15])([H:16])[C:6]1([H:17])[H:18])([H:12])[H:13])([H:10])[H:11])([H:7])([H:8])[H:9]>>[C:1]([C:2]([C:3]([C:4][C:5]([C:6]([H:14])([H:17])[H:18])([H:15])[H:16])([H:12])[H:13])([H:10])[H:11])([H:7])([H:8])[H:9]"
C       -2.07724975       0.27489835       0.53609599
C       -1.33050305      -1.04959439       0.61905192
C        0.18463258      -0.89719678       0.54127024
C        0.74921545      -0.51164016      -0.79067184
C        2.10828136       0.06993919      -0.71840462
C        1.20106844       1.28200157      -0.85192498
H       -1.93904572       0.75057405      -0.43714107
H       -1.73515418       0.97513958       1.30354245
H       -3.15032286       0.13243853       0.67628727
H       -1.58858831      -1.55039192       1.55724947
H       -1.65736885      -1.70770942      -0.19058795
H        0.64671624      -1.88459908       0.69368218
H        0.55543969      -0.27050286       1.36917686
H        0.18400022       0.71359988      -1.37986863
H        2.63126799       0.02077483       0.23727991
H        2.75691225      -0.10214388      -1.57179363
H        1.47375381       1.94550437      -1.66607029
H        0.98694471       1.80890814       0.07282671
18
Frame=7 idx=000767 GeodesicLength=0.3964017633051955 rxn_smarts="[C:1]([C:2]([C:3]([C:4]1([H:14])[C:5]([H:15])([H:16])[C:6]1([H:17])[H:18])([H:12])[H:13])([H:10])[H:11])([H:7])([H:8])[H:9]>>[C:1]([C:2]([C:3]([C:4][C:5]([C:6]([H:14])([H:17])[H:18])([H:15])[H:16])([H:12])[H:13])([H:10])[H:11])([H:7])([H:8])[H:9]"
C       -2.07682553       0.27516395       0.54568908
C       -1.33265912      -1.05125633       0.61960693
C        0.18255830      -0.89934866       0.54354276
C        0.74862962      -0.50604586      -0.78332643
C        2.10892588       0.07386633      -0.71330215
C        1.20049537       1.28386536      -0.86130321
H       -1.93472335       0.75827432      -0.42324900
H       -1.73523659       0.96874032       1.31935643
H       -3.15051702       0.13375934       0.68227224
H       -1.59188114      -1.55853755       1.55399070
H       -1.66007861      -1.70305578      -0.19495157
H        0.64471883      -1.88787526       0.69085966
H        0.55377078      -0.27628178       1.37375859
H        0.19227066       0.69971279      -1.42749399
H        2.62920849       0.03307981       0.24421088
H        2.75707022      -0.10703589      -1.56524928
H        1.49330754       1.95217932      -1.66439432
H        0.97096565       1.81079556       0.05998269
18
Frame=8 idx=000767 GeodesicLength=0.4528805478187531 rxn_smarts="[C:1]([C:2]([C:3]([C:4]1([H:14])[C:5]([H:15])([H:16])[C:6]1([H:17])[H:18])([H:12])[H:13])([H:10])[H:11])([H:7])([H:8])[H:9]>>[C:1]([C:2]([C:3]([C:4][C:5]([C:6]([H:14])([H:17])[H:18])([H:15])[H:16])([H:12])[H:13])([H:10])[H:11])([H:7])([H:8])[H:9]"
C       -2.07629653       0.27553032       0.55537027
C       -1.33486003      -1.05284291       0.62017939
C        0.18046038      -0.90160110       0.54574908
C        0.74776470      -0.50006056      -0.77600757
C        2.10938423       0.07803956      -0.70810090
C        1.19974716       1.28582588      -0.87079195
H       -1.93001584       0.76615910      -0.40909551
H       -1.73526236       0.96221263       1.33537684
H       -3.15063462       0.13532219       0.68815120
H       -1.59523211      -1.56659033       1.55069063
H       -1.66292332      -1.69820832      -0.19927678
H        0.64263979      -1.89131269       0.68748594
H        0.55216889      -0.28240928       1.37839696
H        0.20214451       0.68435127      -1.47511418
H        2.62685400       0.04573427       0.25121572
H        2.75713802      -0.11171877      -1.55842958
H        1.51192662       1.95875694      -1.66259499
H        0.95499650       1.81281183       0.04679546
18
Frame=9 idx=000767 GeodesicLength=0.50886258198337 rxn_smarts="[C:1]([C:2]([C:3]([C:4]1([H:14])[C:5]([H:15])([H:16])[C:6]1([H:17])[H:18])([H:12])[H:13])([H:10])[H:11])([H:7])([H:8])[H:9]>>[C:1]([C:2]([C:3]([C:4][C:5]([C:6]([H:14])([H:17])[H:18])([H:15])[H:16])([H:12])[H:13])([H:10])[H:11])([H:7])([H:8])[H:9]"
C       -2.07575799       0.27593595       0.56521196
C       -1.33711982      -1.05437206       0.62073185
C        0.17831483      -0.90388366       0.54785592
C        0.74663427      -0.49368444      -0.76873448
C        2.10969653       0.08241233      -0.70279321
C        1.19891410       1.28784395      -0.88051895
H       -1.92506961       0.77422929      -0.39457355
H       -1.73536736       0.95545673       1.35171275
H       -3.15075726       0.13700414       0.69400211
H       -1.59862686      -1.57464702       1.54727583
H       -1.66589030      -1.69314871      -0.20363809
H        0.64048724      -1.89480259       0.68358907
H        0.55058017      -0.28878002       1.38303755
H        0.21361054       0.66789916      -1.52242424
H        2.62419987       0.05875008       0.25832217
H        2.75717831      -0.11633479      -1.55128425
H        1.52978394       1.96511389      -1.66088564
H        0.93918942       1.81500780       0.03311319
18
Frame=10 idx=000767 GeodesicLength=0.564862479550375 rxn_smarts="[C:1]([C:2]([C:3]([C:4]1([H:14])[C:5]([H:15])([H:16])[C:6]1([H:17])[H:18])([H:12])[H:13])([H:10])[H:11])([H:7])([H:8])[H:9]>>[C:1]([C:2]([C:3]([C:4][C:5]([C:6]([H:14])([H:17])[H:18])([H:15])[H:16])([H:12])[H:13])([H:10])[H:11])([H:7])([H:8])[H:9]"
C       -2.07523545       0.27637767       0.57522920
C       -1.33945016      -1.05583494       0.62127178
C        0.17610651      -0.90616681       0.54983835
C        0.74519723      -0.48683747      -0.76152827
C        2.10984467       0.08699994      -0.69739321
C        1.19806019       1.28999337      -0.89041669
H       -1.91996481       0.78245796      -0.37968238
H       -1.73554271       0.94849147       1.36833821
H       -3.15090280       0.13879408       0.69989987
H       -1.60205007      -1.58269622       1.54376013
H       -1.66899552      -1.68787259      -0.20801798
H        0.63824944      -1.89832075       0.67911406
H        0.54899710      -0.29538943       1.38766969
H        0.22677692       0.65000832      -1.56954534
H        2.62124865       0.07207622       0.26550170
H        2.75716621      -0.12085889      -1.54383117
H        1.54693053       1.97135962      -1.65922427
H        0.92356408       1.81741845       0.01901631
18
Frame=11 idx=000767 GeodesicLength=0.6208937857423198 rxn_smarts="[C:1]([C:2]([C:3]([C:4]1([H:14])[C:5]([H:15])([H:16])[C:6]1([H:17])[H:18])([H:12])[H:13])([H:10])[H:11])([H:7])([H:8])[H:9]>>[C:1]([C:2]([C:3]([C:4][C:5]([C:6]([H:14])([H:17])[H:18])([H:15])[H:16])([H:12])[H:13])([H:10])[H:11])([H:7])([H:8])[H:9]"
C       -2.07477515       0.27683152       0.58546943
C       -1.34186281      -1.05723334       0.62177876
C        0.17381887      -0.90841050       0.55166644
C        0.74345017      -0.47949597      -0.75440724
C        2.10983857       0.09179416      -0.69189848
C        1.19724309       1.29228205      -0.90052322
H       -1.91479010       0.79084957      -0.36435324
H       -1.73583732       0.94127017       1.38531143
H       -3.15110945       0.14064087       0.70591522
H       -1.60549183      -1.59078252       1.54010258
H       -1.67224476      -1.68235576      -0.21245472
H        0.63592218      -1.90180982       0.67404995
H        0.54739389      -0.30219420       1.39226067
H        0.24168676       0.63067706      -1.61639421
H        2.61799438       0.08571411       0.27276322
H        2.75712598      -0.12533708      -1.53604173
H        1.56346192       1.97747631      -1.65769995
H        0.90817560       1.82008337       0.00445510
18
Frame=12 idx=000767 GeodesicLength=0.6769716755836865 rxn_smarts="[C:1]([C:2]([C:3]([C:4]1([H:14])[C:5]([H:15])([H:16])[C:6]1([H:17])[H:18])([H:12])[H:13])([H:10])[H:11])([H:7])([H:8])[H:9]>>[C:1]([C:2]([C:3]([C:4][C:5]([C:6]([H:14])([H:17])[H:18])([H:15])[H:16])([H:12])[H:13])([H:10])[H:11])([H:7])([H:8])[H:9]"
C       -2.07441512       0.27727822       0.59598883
C       -1.34436950      -1.05856661       0.62222964
C        0.17143648      -0.91057979       0.55330800
C        0.74138743      -0.47163042      -0.74738903
C        2.10968243       0.09679837      -0.68630053
C        1.19651071       1.29471991      -0.91087839
H       -1.90961679       0.79942642      -0.34850378
H       -1.73628752       0.93374036       1.40270185
H       -3.15140937       0.14250529       0.71212046
H       -1.60894569      -1.59895346       1.53625276
H       -1.67564840      -1.67656057      -0.21699448
H        0.63349973      -1.90522212       0.66837164
H        0.54574785      -0.30916557       1.39678146
H        0.25840250       0.60984186      -1.66289124
H        2.61441796       0.09968322       0.28011945
H        2.75708241      -0.12980077      -1.52787202
H        1.57946934       1.98344286      -1.65641256
H        0.89305555       1.82304281      -0.01063205
18
Frame=13 idx=000767 GeodesicLength=0.7331105401463954 rxn_smarts="[C:1]([C:2]([C:3]([C:4]1([H:14])[C:5]([H:15])([H:16])[C:6]1([H:17])[H:18])([H:12])[H:13])([H:10])[H:11])([H:7])([H:8])[H:9]>>[C:1]([C:2]([C:3]([C:4][C:5]([C:6]([H:14])([H:17])[H:18])([H:15])[H:16])([H:12])[H:13])([H:10])[H:11])([H:7])([H:8])[H:9]"
C       -2.07418724       0.27770094       0.60684325
C       -1.34698106      -1.05983335       0.62259826
C        0.16894489      -0.91264311       0.55473120
C        0.73901017      -0.46322013      -0.74049149
C        2.10938405       0.10201593      -0.68058749
C        1.19590404       1.29730848      -0.92153200
H       -1.90450200       0.80821835      -0.33204565
H       -1.73692701       0.92584448       1.42058700
H       -3.15182992       0.14435375       0.71858280
H       -1.61240578      -1.60725745       1.53215489
H       -1.67921677      -1.67044504      -0.22168663
H        0.63097499      -1.90851295       0.66205580
H        0.54403839      -0.31627717       1.40120126
H        0.27696559       0.58745036      -1.70895485
H        2.61050308       0.11401417       0.28759055
H        2.75706468      -0.13428445      -1.51927318
H        1.59503355       1.98923219      -1.65545611
H        0.87822634       1.82633499      -0.02631761
18
Frame=14 idx=000767 GeodesicLength=0.7893289321570666 rxn_smarts="[C:1]([C:2]([C:3]([C:4]1([H:14])[C:5]([H:15])([H:16])[C:6]1([H:17])[H:18])([H:12])[H:13])([H:10])[H:11])([H:7])([H:8])[H:9]>>[C:1]([C:2]([C:3]([C:4][C:5]([C:6]([H:14])([H:17])[H:18])([H:15])[H:16])([H:12])[H:13])([H:10])[H:11])([H:7])([H:8])[H:9]"
C       -2.07411654       0.27808458       0.61809096
C       -1.34970811      -1.06103096       0.62285716
C        0.16633041      -0.91457353       0.55590362
C        0.73632259      -0.45425230      -0.73373151
C        2.10894727       0.10745431      -0.67474770
C        1.19545785       1.30004491      -0.93253655
H       -1.89948926       0.81726026      -0.31488259
H       -1.73778125       0.91751938       1.43904777
H       -3.15239319       0.14615798       0.72536608
H       -1.61586956      -1.61574154       1.52774810
H       -1.68296351      -1.66395997      -0.22658196
H        0.62833886      -1.91164406       0.65508514
H        0.54224714      -0.32350737       1.40548777
H        0.29741499       0.56344212      -1.75450535
H        2.60622625       0.12874609       0.29519642
H        2.75710423      -0.13881348      -1.51019186
H        1.61023668       1.99482014      -1.65492317
H        0.86369514       1.82999342      -0.04268232
18
Frame=15 idx=000767 GeodesicLength=0.8456235217080026 rxn_smarts="[C:1]([C:2]([C:3]([C:4]1([H:14])[C:5]([H:15])([H:16])[C:6]1([H:17])[H:18])([H:12])[H:13])([H:10])[H:11])([H:7])([H:8])[H:9]>>[C:1]([C:2]([C:3]([C:4][C:5]([C:6]([H:14])([H:17])[H:18])([H:15])[H:16])([H:12])[H:13])([H:10])[H:11])([H:7])([H:8])[H:9]"
C       -2.07422145       0.27841639       0.62979219
C       -1.35256111      -1.06215542       0.62297641
C        0.16358029      -0.91634836       0.55679134
C        0.73333085      -0.44471608      -0.72712652
C        2.10837548       0.11312639      -0.66876488
C        1.19519914       1.30292132      -0.94395311
H       -1.89460528       0.82659562      -0.29691137
H       -1.73887102       0.90869532       1.45817162
H       -3.15311608       0.14789842       0.73252923
H       -1.61933647      -1.62445253       1.52296567
H       -1.68690407      -1.65705036      -0.23173394
H        0.62558137      -1.91458280       0.64743443
H        0.54035863      -0.33084278       1.40960872
H        0.31978568       0.53774525      -1.79944615
H        2.60155947       0.14393281       0.30296124
H        2.75723401      -0.14341148      -1.50056622
H        1.62515283       2.00017914      -1.65490915
H        0.84945773       1.83404914      -0.05981952
18
Frame=16 idx=000767 GeodesicLength=0.901975205442576 rxn_smarts="[C:1]([C:2]([C:3]([C:4]1([H:14])[C:5]([H:15])([H:16])[C:6]1([H:17])[H:18])([H:12])[H:13])([H:10])[H:11])([H:7])([H:8])[H:9]>>[C:1]([C:2]([C:3]([C:4][C:5]([C:6]([H:14])([H:17])[H:18])([H:15])[H:16])([H:12])[H:13])([H:10])[H:11])([H:7])([H:8])[H:9]"
C       -2.07451306       0.27868676       0.64201041
C       -1.35555025      -1.06320077       0.62292263
C        0.16068296      -0.91794968       0.55735891
C        0.73004191      -0.43460278      -0.72069510
C        2.10766830       0.11905198      -0.66262039
C        1.19514765       1.30592552      -0.95584871
H       -1.88985950       0.83627724      -0.27801620
H       -1.74021242       0.89929398       1.47805607
H       -3.15400983       0.14956462       0.74012707
H       -1.62280970      -1.63343795       1.51773181
H       -1.69105699      -1.64964986      -0.23720175
H        0.62269093      -1.91730272       0.63907292
H        0.53836029      -0.33827835       1.41353148
H        0.34412040       0.51026520      -1.84366607
H        2.59646546       0.15964275       0.31091113
H        2.75748995      -0.14809165      -1.49032333
H        1.63984354       2.00527483      -1.65551578
H        0.83550036       1.83853086      -0.07783510
