14
Frame=0 idx=011474 GeodesicLength=0.0 rxn_smarts="[C:1]([C@@:2]([C:3]#[N:4])([C:5](=[O:6])[C:7]([H:12])([H:13])[H:14])[H:11])([H:8])([H:9])[H:10]>>[C:1]1([H:8])([H:9])[C@:2]([C:3]#[N:4])([H:11])[C@@:5]1([O:6][H:10])[C:7]([H:12])([H:13])[H:14]"
C       -1.58633162      -0.21149396       0.72431764
C       -0.75552678       0.13254165      -0.48041331
C       -0.50679233       1.54213803      -0.80891941
N       -0.31443961       2.65308367      -1.02577478
C        0.47466926      -0.60574406      -0.08110326
O        0.39941800      -1.87558818       0.13203303
C        1.79255567       0.02732849       0.08690885
H       -1.46468120       0.48350221       1.54703135
H       -2.61607805      -0.46115957       0.49628196
H       -0.57878230      -1.97687055       0.34798317
H       -1.15474729      -0.36530074      -1.37156754
H        2.55713706      -0.70160955       0.34061602
H        1.70019658       0.75769339       0.89747282
H        2.05340264       0.60147913      -0.80486649
14
Frame=1 idx=011474 GeodesicLength=0.09273136874725549 rxn_smarts="[C:1]([C@@:2]([C:3]#[N:4])([C:5](=[O:6])[C:7]([H:12])([H:13])[H:14])[H:11])([H:8])([H:9])[H:10]>>[C:1]1([H:8])([H:9])[C@:2]([C:3]#[N:4])([H:11])[C@@:5]1([O:6][H:10])[C:7]([H:12])([H:13])[H:14]"
C       -1.57067099      -0.21732537       0.71742995
C       -0.75414718       0.13479985      -0.49587946
C       -0.51089257       1.54561865      -0.81475130
N       -0.32976146       2.65893138      -1.02894367
C        0.47030894      -0.60493343      -0.07796248
O        0.39143015      -1.87526751       0.13571724
C        1.79020759       0.02705535       0.09016834
H       -1.45076230       0.47841901       1.53998322
H       -2.60199464      -0.46496580       0.49393009
H       -0.59970739      -1.96956783       0.38303788
H       -1.14891647      -0.36470365      -1.38720513
H        2.55866573      -0.70650564       0.31823934
H        1.70845784       0.73986549       0.91711363
H        2.04778277       0.61857950      -0.79087764
14
Frame=2 idx=011474 GeodesicLength=0.18540849506795748 rxn_smarts="[C:1]([C@@:2]([C:3]#[N:4])([C:5](=[O:6])[C:7]([H:12])([H:13])[H:14])[H:11])([H:8])([H:9])[H:10]>>[C:1]1([H:8])([H:9])[C@:2]([C:3]#[N:4])([H:11])[C@@:5]1([O:6][H:10])[C:7]([H:12])([H:13])[H:14]"
C       -1.55522288      -0.22279485       0.71062762
C       -0.75261125       0.13685817      -0.51095808
C       -0.51506232       1.54881866      -0.82061701
N       -0.34551779       2.66434973      -1.03258424
C        0.46606755      -0.60419114      -0.07485405
O        0.38365835      -1.87499879       0.13946869
C        1.78794416       0.02676680       0.09354099
H       -1.43695071       0.47365955       1.53303239
H       -2.58809179      -0.46833015       0.49155245
H       -0.62053810      -1.96204179       0.41725917
H       -1.14293208      -0.36427585      -1.40247615
H        2.56003626      -0.71094624       0.29528904
H        1.71711267       0.72113283       0.93681555
H        2.04210793       0.63599308      -0.77609638
14
Frame=3 idx=011474 GeodesicLength=0.27803330672122567 rxn_smarts="[C:1]([C@@:2]([C:3]#[N:4])([C:5](=[O:6])[C:7]([H:12])([H:13])[H:14])[H:11])([H:8])([H:9])[H:10]>>[C:1]1([H:8])([H:9])[C@:2]([C:3]#[N:4])([H:11])[C@@:5]1([O:6][H:10])[C:7]([H:12])([H:13])[H:14]"
C       -1.53998010      -0.22792608       0.70389949
C       -0.75091948       0.13872447      -0.52567555
C       -0.51929385       1.55174891      -0.82652614
N       -0.36167938       2.66934584      -1.03667075
C        0.46194542      -0.60351430      -0.07177274
O        0.37612625      -1.87478978       0.14322439
C        1.78576381       0.02647099       0.09703127
H       -1.42324451       0.46920188       1.52616683
H       -2.57436703      -0.47126351       0.48913935
H       -0.64133879      -1.95428904       0.45079132
H       -1.13678679      -0.36401365      -1.41740541
H        2.56123404      -0.71488260       0.27174684
H        1.72617897       0.70147399       0.95654514
H        2.03636144       0.65371290      -0.76049404
14
Frame=4 idx=011474 GeodesicLength=0.37063655418425767 rxn_smarts="[C:1]([C@@:2]([C:3]#[N:4])([C:5](=[O:6])[C:7]([H:12])([H:13])[H:14])[H:11])([H:8])([H:9])[H:10]>>[C:1]1([H:8])([H:9])[C@:2]([C:3]#[N:4])([H:11])[C@@:5]1([O:6][H:10])[C:7]([H:12])([H:13])[H:14]"
C       -1.52493449      -0.23274777       0.69723595
C       -0.74907013       0.14040320      -0.54005876
C       -0.52357775       1.55441793      -0.83248884
N       -0.37821715       2.67392226      -1.04118163
C        0.45794217      -0.60290382      -0.06871505
O        0.36885240      -1.87464596       0.14692904
C        1.78366439       0.02617201       0.10063832
H       -1.40964349       0.46502607       1.51937152
H       -2.56081701      -0.47377502       0.48667833
H       -0.66216844      -1.94628864       0.48378205
H       -1.13047298      -0.36391604      -1.43201848
H        2.56223823      -0.71825135       0.24757828
H        1.73567991       0.68084854       0.97626872
H        2.03052435       0.67173859      -0.74401945
14
Frame=5 idx=011474 GeodesicLength=0.46319437583095024 rxn_smarts="[C:1]([C@@:2]([C:3]#[N:4])([C:5](=[O:6])[C:7]([H:12])([H:13])[H:14])[H:11])([H:8])([H:9])[H:10]>>[C:1]1([H:8])([H:9])[C@:2]([C:3]#[N:4])([H:11])[C@@:5]1([O:6][H:10])[C:7]([H:12])([H:13])[H:14]"
C       -1.51008245      -0.23728602       0.69062411
C       -0.74706264       0.14190024      -0.55412916
C       -0.52790512       1.55683402      -0.83850922
N       -0.39511400       2.67808774      -1.04607940
C        0.45405832      -0.60235589      -0.06567126
O        0.36184787      -1.87457564       0.15055255
C        1.78164830       0.02587305       0.10436488
H       -1.39615519       0.46111484       1.51262975
H       -2.54744141      -0.47587727       0.48415353
H       -0.68307416      -1.93801846       0.51634994
H       -1.12397587      -0.36398063      -1.44633991
H        2.56303406      -0.72100540       0.22276762
H        1.74564222       0.65923755       0.99593955
H        2.02458007       0.69005187      -0.72665298
14
Frame=6 idx=011474 GeodesicLength=0.5557527780563529 rxn_smarts="[C:1]([C@@:2]([C:3]#[N:4])([C:5](=[O:6])[C:7]([H:12])([H:13])[H:14])[H:11])([H:8])([H:9])[H:10]>>[C:1]1([H:8])([H:9])[C@:2]([C:3]#[N:4])([H:11])[C@@:5]1([O:6][H:10])[C:7]([H:12])([H:13])[H:14]"
C       -1.49541915      -0.24156842       0.68405374
C       -0.74489541       0.14321818      -0.56790850
C       -0.53226531       1.55900257      -0.84459424
N       -0.41233945       2.68183857      -1.05134773
C        0.45029227      -0.60187352      -0.06263720
O        0.35512562      -1.87458544       0.15404950
C        1.77971442       0.02557402       0.10820655
H       -1.38278928       0.45744685       1.50592676
H       -2.53423877      -0.47758125       0.48154906
H       -0.70410592      -1.92943812       0.54863128
H       -1.11728764      -0.36420616      -1.46039114
H        2.56359979      -0.72306100       0.19728274
H        1.75610533       0.63658585       1.01550551
H        2.01850351       0.70864787      -0.70832634
14
Frame=7 idx=011474 GeodesicLength=0.6483400002002734 rxn_smarts="[C:1]([C@@:2]([C:3]#[N:4])([C:5](=[O:6])[C:7]([H:12])([H:13])[H:14])[H:11])([H:8])([H:9])[H:10]>>[C:1]1([H:8])([H:9])[C@:2]([C:3]#[N:4])([H:11])[C@@:5]1([O:6][H:10])[C:7]([H:12])([H:13])[H:14]"
C       -1.48094087      -0.24562239       0.67751236
C       -0.74256672       0.14435841      -0.58141708
C       -0.53665078       1.56092743      -0.85074678
N       -0.42987884       2.68517829      -1.05694925
C        0.44664387      -0.60145573      -0.05960495
O        0.34869685      -1.87468389       0.15738354
C        1.77786207       0.02527862       0.11216184
H       -1.36955561       0.45400618       1.49924481
H       -2.52120884      -0.47889889       0.47884673
H       -0.72530973      -1.92050348       0.58074356
H       -1.11039583      -0.36459236      -1.47419411
H        2.56392258      -0.72435968       0.17112237
H        1.76710566       0.61286263       1.03490422
H        2.01227618       0.72750489      -0.68900728
14
Frame=8 idx=011474 GeodesicLength=0.7409847900454298 rxn_smarts="[C:1]([C@@:2]([C:3]#[N:4])([C:5](=[O:6])[C:7]([H:12])([H:13])[H:14])[H:11])([H:8])([H:9])[H:10]>>[C:1]1([H:8])([H:9])[C@:2]([C:3]#[N:4])([H:11])[C@@:5]1([O:6][H:10])[C:7]([H:12])([H:13])[H:14]"
C       -1.46664362      -0.24947681       0.67098848
C       -0.74007396       0.14532123      -0.59467233
C       -0.54104973       1.56261255      -0.85696916
N       -0.44771472       2.68810609      -1.06285934
C        0.44311241      -0.60110529      -0.05656502
O        0.34257003      -1.87488056       0.16052891
C        1.77609366       0.02498430       0.11622966
H       -1.35647295       0.45077555       1.49256546
H       -2.50834898      -0.47984312       0.47602328
H       -0.74673029      -1.91115614       0.61280598
H       -1.10328637      -0.36513979      -1.48776981
H        2.56397479      -0.72480454       0.14426364
H        1.77869764       0.58800587       1.05405837
H        2.00587210       0.74660064      -0.66862810
14
Frame=9 idx=011474 GeodesicLength=0.8336538627667455 rxn_smarts="[C:1]([C@@:2]([C:3]#[N:4])([C:5](=[O:6])[C:7]([H:12])([H:13])[H:14])[H:11])([H:8])([H:9])[H:10]>>[C:1]1([H:8])([H:9])[C@:2]([C:3]#[N:4])([H:11])[C@@:5]1([O:6][H:10])[C:7]([H:12])([H:13])[H:14]"
C       -1.45253135      -0.25317455       0.66448521
C       -0.73742021       0.14611326      -0.60768829
C       -0.54546424       1.56405757      -0.86325805
N       -0.46581098       2.69061329      -1.06902685
C        0.43970412      -0.60081885      -0.05352192
O        0.33676487      -1.87518581       0.16340062
C        1.77441566       0.02469315       0.12038452
H       -1.34354871       0.44774049       1.48587557
H       -2.49566903      -0.48042388       0.47307027
H       -0.76836255      -1.90130590       0.64491693
H       -1.09595656      -0.36583851      -1.50113379
H        2.56377293      -0.72440732       0.11682260
H        1.79087376       0.56202672       1.07287585
H        1.99923230       0.76591033      -0.64720267
14
Frame=10 idx=011474 GeodesicLength=0.9263490601579324 rxn_smarts="[C:1]([C@@:2]([C:3]#[N:4])([C:5](=[O:6])[C:7]([H:12])([H:13])[H:14])[H:11])([H:8])([H:9])[H:10]>>[C:1]1([H:8])([H:9])[C@:2]([C:3]#[N:4])([H:11])[C@@:5]1([O:6][H:10])[C:7]([H:12])([H:13])[H:14]"
C       -1.43859820      -0.25672947       0.65797881
C       -0.73459293       0.14672802      -0.62048398
C       -0.54986495       1.56526595      -0.86961966
N       -0.48416567       2.69270254      -1.07545176
C        0.43641355      -0.60060443      -0.05045176
O        0.33126835      -1.87560193       0.16604898
C        1.77282394       0.02439866       0.12465515
H       -1.33081852       0.44488745       1.47915050
H       -2.48315959      -0.48066057       0.46994988
H       -0.79027310      -1.89092149       0.67719701
H       -1.08837387      -0.36669832      -1.51431045
H        2.56325110      -0.72299385       0.08863021
H        1.80373134       0.53481941       1.09129529
H        1.99235855       0.78540804      -0.62458821
14
Frame=11 idx=011474 GeodesicLength=1.0190629170504846 rxn_smarts="[C:1]([C@@:2]([C:3]#[N:4])([C:5](=[O:6])[C:7]([H:12])([H:13])[H:14])[H:11])([H:8])([H:9])[H:10]>>[C:1]1([H:8])([H:9])[C@:2]([C:3]#[N:4])([H:11])[C@@:5]1([O:6][H:10])[C:7]([H:12])([H:13])[H:14]"
C       -1.42484126      -0.26017208       0.65145646
C       -0.73158693       0.14716616      -0.63307377
C       -0.55423801       1.56623660      -0.87605438
N       -0.50275470       2.69436845      -1.08210414
C        0.43324130      -0.60046435      -0.04735448
O        0.32608539      -1.87613610       0.16844661
C        1.77131783       0.02410077       0.12903809
H       -1.31829642       0.44220171       1.47236903
H       -2.47081877      -0.48057526       0.46664267
H       -0.81249012      -1.87993113       0.70975540
H       -1.08052495      -0.36771487      -1.52731547
H        2.56239562      -0.72051522       0.05968448
H        1.81729522       0.50636334       1.10925306
H        1.98521582       0.80507196      -0.60074356
14
Frame=12 idx=011474 GeodesicLength=1.1117852905286445 rxn_smarts="[C:1]([C@@:2]([C:3]#[N:4])([C:5](=[O:6])[C:7]([H:12])([H:13])[H:14])[H:11])([H:8])([H:9])[H:10]>>[C:1]1([H:8])([H:9])[C@:2]([C:3]#[N:4])([H:11])[C@@:5]1([O:6][H:10])[C:7]([H:12])([H:13])[H:14]"
C       -1.41125924      -0.26353746       0.64490830
C       -0.72838865       0.14742452      -0.64547307
C       -0.55856009       1.56696877      -0.88256102
N       -0.52156286       2.69560313      -1.08895932
C        0.43019187      -0.60040311      -0.04421692
O        0.32121670      -1.87679760       0.17059121
C        1.76990532       0.02378899       0.13354369
H       -1.30601273       0.43966996       1.46550795
H       -2.45864440      -0.48018927       0.46311643
H       -0.83504658      -1.86824531       0.74270815
H       -1.07237741      -0.36889035      -1.54017046
H        2.56114751      -0.71686259       0.02992905
H        1.83161867       0.47660244       1.12665614
H        1.97777189       0.82486788      -0.57558012
14
Frame=13 idx=011474 GeodesicLength=1.2044920080185058 rxn_smarts="[C:1]([C@@:2]([C:3]#[N:4])([C:5](=[O:6])[C:7]([H:12])([H:13])[H:14])[H:11])([H:8])([H:9])[H:10]>>[C:1]1([H:8])([H:9])[C@:2]([C:3]#[N:4])([H:11])[C@@:5]1([O:6][H:10])[C:7]([H:12])([H:13])[H:14]"
C       -1.39784593      -0.26685623       0.63832368
C       -0.72499286       0.14750073      -0.65769389
C       -0.56281622       1.56745895      -0.88913835
N       -0.54057867       2.69640169      -1.09598334
C        0.42726644      -0.60042388      -0.04103605
O        0.31666616      -1.87759846       0.17245446
C        1.76858602       0.02346214       0.13817031
H       -1.29398408       0.43727998       1.45854593
H       -2.44663067      -0.47952624       0.45935166
H       -0.85796975      -1.85577275       0.77614694
H       -1.06391686      -0.37022277      -1.55288982
H        2.55948669      -0.71197822      -0.00061574
H        1.84673241       0.44552110       1.14341271
H        1.96999733       0.84475397      -0.54904850
14
Frame=14 idx=011474 GeodesicLength=1.297200268072454 rxn_smarts="[C:1]([C@@:2]([C:3]#[N:4])([C:5](=[O:6])[C:7]([H:12])([H:13])[H:14])[H:11])([H:8])([H:9])[H:10]>>[C:1]1([H:8])([H:9])[C@:2]([C:3]#[N:4])([H:11])[C@@:5]1([O:6][H:10])[C:7]([H:12])([H:13])[H:14]"
C       -1.38459521      -0.27016410       0.63169818
C       -0.72138894       0.14738689      -0.66975061
C       -0.56698317       1.56770069      -0.89579149
N       -0.55978910       2.69674922      -1.10315945
C        0.42446839      -0.60053947      -0.03780816
O        0.31244226      -1.87855131       0.17402081
C        1.76736245       0.02311329       0.14291874
H       -1.28223138       0.43502438       1.45145747
H       -2.43477149      -0.47860322       0.45532681
H       -0.88130392      -1.84239718       0.81017309
H       -1.05512230      -0.37171890      -1.56549079
H        2.55737995      -0.70573622      -0.03197597
H        1.86268763       0.41304645       1.15941528
H        1.96184484       0.86468949      -0.52103392
14
Frame=15 idx=011474 GeodesicLength=1.3898755627151351 rxn_smarts="[C:1]([C@@:2]([C:3]#[N:4])([C:5](=[O:6])[C:7]([H:12])([H:13])[H:14])[H:11])([H:8])([H:9])[H:10]>>[C:1]1([H:8])([H:9])[C@:2]([C:3]#[N:4])([H:11])[C@@:5]1([O:6][H:10])[C:7]([H:12])([H:13])[H:14]"
C       -1.37150104      -0.27349923       0.62502761
C       -0.71757099       0.14707575      -0.68165370
C       -0.57104325       1.56768580      -0.90251753
N       -0.57918282       2.69663416      -1.11044891
C        0.42180075      -0.60076010      -0.03453267
O        0.30854831      -1.87967294       0.17526488
C        1.76623636       0.02273415       0.14778774
H       -1.27077303       0.43289272       1.44421934
H       -2.42306239      -0.47744059       0.45102210
H       -0.90508279      -1.82799907       0.84486336
H       -1.04597802      -0.37338040      -1.57798713
H        2.55480590      -0.69804900      -0.06410576
H        1.87952759       0.37915644       1.17453350
H        1.95327543       0.88462230      -0.49147282
14
Frame=16 idx=011474 GeodesicLength=1.4824954276047422 rxn_smarts="[C:1]([C@@:2]([C:3]#[N:4])([C:5](=[O:6])[C:7]([H:12])([H:13])[H:14])[H:11])([H:8])([H:9])[H:10]>>[C:1]1([H:8])([H:9])[C@:2]([C:3]#[N:4])([H:11])[C@@:5]1([O:6][H:10])[C:7]([H:12])([H:13])[H:14]"
C       -1.35855700      -0.27689685       0.61831233
C       -0.71352951       0.14655639      -0.69341523
C       -0.57497218       1.56740385      -0.90932270
N       -0.59875351       2.69603788      -1.11783764
C        0.41926756      -0.60110158      -0.03120225
O        0.30499207      -1.88097996       0.17617119
C        1.76520919       0.02231598       0.15278320
H       -1.25963155       0.43088519       1.43680455
H       -2.41149734      -0.47605602       0.44642133
H       -0.92935031      -1.81244719       0.88029577
H       -1.03646256      -0.37521794      -1.59039464
H        2.55172964      -0.68878134      -0.09701162
H        1.89731590       0.34378184       1.18863214
H        1.94423959       0.90449975      -0.46023644
