19
Frame=0 idx=010191 GeodesicLength=0.0 rxn_smarts="[C:1]([C:2]([C@@:3]1([C:4]([H:13])([H:14])[H:15])[C:5]([H:16])([H:17])[C@:6]1([O:7][H:19])[H:18])([H:11])[H:12])([H:8])([H:9])[H:10]>>[C:1]([C:2]([C@@:6]([C:5]([C:3][C:4]([H:13])([H:14])[H:15])([H:16])[H:17])([O:7][H:19])[H:18])([H:11])[H:12])([H:8])([H:9])[H:10]"
C        1.60641221       0.91206896      -0.72778160
C        1.05993986       0.05407714       0.42281207
C       -0.45476171      -1.16851665       0.63500489
C       -0.56133613      -1.76561731      -0.74505151
C       -1.63407880      -0.29052382       0.91899471
C       -0.71516448       0.72793847       0.40486225
O       -0.55724333       1.80975482       1.23195528
H        1.28706550       1.95866961      -0.71802492
H        1.30784136       0.49324699      -1.69167734
H        2.69778689       0.90747862      -0.69441072
H        1.33575306       0.42628745       1.40490524
H        1.56121973      -0.90243893       0.31904324
H        0.37660608      -2.20917270      -1.08890334
H       -1.29308175      -2.57390379      -0.64623147
H       -0.94109412      -1.10248920      -1.54126682
H       -1.89172710      -0.16277217       1.96707126
H       -2.51132803      -0.43901310       0.28977357
H       -0.83153147       0.95920755      -0.65168502
H        0.15872218       2.36571810       0.91061014
19
Frame=1 idx=010191 GeodesicLength=0.09243832459760383 rxn_smarts="[C:1]([C:2]([C@@:3]1([C:4]([H:13])([H:14])[H:15])[C:5]([H:16])([H:17])[C@:6]1([O:7][H:19])[H:18])([H:11])[H:12])([H:8])([H:9])[H:10]>>[C:1]([C:2]([C@@:6]([C:5]([C:3][C:4]([H:13])([H:14])[H:15])([H:16])[H:17])([O:7][H:19])[H:18])([H:11])[H:12])([H:8])([H:9])[H:10]"
C        1.63173381       0.91620261      -0.71473181
C        1.06301968       0.06177559       0.42709669
C       -0.45415150      -1.16427350       0.60656155
C       -0.58789507      -1.77985330      -0.75945024
C       -1.62527174      -0.29059786       0.92211055
C       -0.71566002       0.73201485       0.39490716
O       -0.57160142       1.82207939       1.21725856
H        1.31714114       1.96415064      -0.70845995
H        1.34686797       0.50070949      -1.68419730
H        2.72247139       0.90974542      -0.66472214
H        1.32680281       0.43321883       1.41328696
H        1.56947313      -0.89415547       0.33485823
H        0.35312362      -2.19392060      -1.13116898
H       -1.28380710      -2.61521653      -0.63148650
H       -1.01652984      -1.13737559      -1.54710406
H       -1.84904778      -0.18078804       1.98035361
H       -2.51797073      -0.43443618       0.31403485
H       -0.84413036       0.96446560      -0.66038668
H        0.13543200       2.38625464       0.89123949
19
Frame=2 idx=010191 GeodesicLength=0.18447254260810553 rxn_smarts="[C:1]([C:2]([C@@:3]1([C:4]([H:13])([H:14])[H:15])[C:5]([H:16])([H:17])[C@:6]1([O:7][H:19])[H:18])([H:11])[H:12])([H:8])([H:9])[H:10]>>[C:1]([C:2]([C@@:6]([C:5]([C:3][C:4]([H:13])([H:14])[H:15])([H:16])[H:17])([O:7][H:19])[H:18])([H:11])[H:12])([H:8])([H:9])[H:10]"
C        1.65788814       0.92062667      -0.70060174
C        1.06607468       0.06948633       0.43128102
C       -0.45354781      -1.15963682       0.57671491
C       -0.61587398      -1.79456795      -0.77383236
C       -1.61564889      -0.29070049       0.92495411
C       -0.71610543       0.73618089       0.38395478
O       -0.58611025       1.83438999       1.20144240
H        1.34808829       1.96990003      -0.69761595
H        1.38777465       0.50877200      -1.67581733
H        2.74767405       0.91225830      -0.63303137
H        1.31733666       0.43992723       1.42163398
H        1.57738629      -0.88589966       0.35112884
H        0.32635625      -2.17591702      -1.17679162
H       -1.27106124      -2.65725500      -0.61599360
H       -1.09631024      -1.17512897      -1.54932070
H       -1.80457004      -0.19855452       1.99204876
H       -2.52389560      -0.42997599       0.33940083
H       -0.85713608       0.96941634      -0.66997494
H        0.11168054       2.40667861       0.87041997
19
Frame=3 idx=010191 GeodesicLength=0.27593158579181254 rxn_smarts="[C:1]([C:2]([C@@:3]1([C:4]([H:13])([H:14])[H:15])[C:5]([H:16])([H:17])[C@:6]1([O:7][H:19])[H:18])([H:11])[H:12])([H:8])([H:9])[H:10]>>[C:1]([C:2]([C@@:6]([C:5]([C:3][C:4]([H:13])([H:14])[H:15])([H:16])[H:17])([O:7][H:19])[H:18])([H:11])[H:12])([H:8])([H:9])[H:10]"
C        1.68480994       0.92530432      -0.68537962
C        1.06907966       0.07718808       0.43532520
C       -0.45299205      -1.15456110       0.54541456
C       -0.64522514      -1.80976925      -0.78807170
C       -1.60517879      -0.29082090       0.92742094
C       -0.71649912       0.74045660       0.37197372
O       -0.60071998       1.84666079       1.18451724
H        1.37984119       1.97588091      -0.68545304
H        1.43050972       0.51736707      -1.66646339
H        2.77328378       0.91496896      -0.59934285
H        1.30735941       0.44637915       1.42988383
H        1.58486750      -0.87770952       0.36782727
H        0.29568326      -2.15505239      -1.22572862
H       -1.25436776      -2.69965776      -0.60016980
H       -1.18004175      -1.21599678      -1.54722004
H       -1.75836258      -0.21604223       2.00198281
H       -2.52897196      -0.42562111       0.36577641
H       -0.87061172       0.97410393      -0.68045095
H        0.08753638       2.42692125       0.84815803
19
Frame=4 idx=010191 GeodesicLength=0.36676059594396976 rxn_smarts="[C:1]([C:2]([C@@:3]1([C:4]([H:13])([H:14])[H:15])[C:5]([H:16])([H:17])[C@:6]1([O:7][H:19])[H:18])([H:11])[H:12])([H:8])([H:9])[H:10]>>[C:1]([C:2]([C@@:6]([C:5]([C:3][C:4]([H:13])([H:14])[H:15])([H:16])[H:17])([O:7][H:19])[H:18])([H:11])[H:12])([H:8])([H:9])[H:10]"
C        1.71245204       0.93020846      -0.66911029
C        1.07201427       0.08485338       0.43917859
C       -0.45255295      -1.14903012       0.51263024
C       -0.67585455      -1.82549785      -0.80203923
C       -1.59388959      -0.29095409       0.92942431
C       -0.71685586       0.74489395       0.35896927
O       -0.61539507       1.85891823       1.16656978
H        1.41235311       1.98210312      -0.67198022
H        1.47502184       0.52640773      -1.65611697
H        2.79922339       0.91783174      -0.56375401
H        1.29688379       0.45254527       1.43797439
H        1.59183269      -0.86966252       0.38490601
H        0.26045436      -2.13137683      -1.27777104
H       -1.23331755      -2.74202275      -0.58458381
H       -1.26709798      -1.26022131      -1.54013287
H       -1.71060722      -0.23325475       2.01002823
H       -2.53311690      -0.42136943       0.39305756
H       -0.88463040       0.97864267      -0.69178384
H        0.06308258       2.44698509       0.82453390
19
Frame=5 idx=010191 GeodesicLength=0.4565375016518407 rxn_smarts="[C:1]([C:2]([C@@:3]1([C:4]([H:13])([H:14])[H:15])[C:5]([H:16])([H:17])[C@:6]1([O:7][H:19])[H:18])([H:11])[H:12])([H:8])([H:9])[H:10]>>[C:1]([C:2]([C@@:6]([C:5]([C:3][C:4]([H:13])([H:14])[H:15])([H:16])[H:17])([O:7][H:19])[H:18])([H:11])[H:12])([H:8])([H:9])[H:10]"
C        1.74060532       0.93521315      -0.65174397
C        1.07482735       0.09247523       0.44281078
C       -0.45222785      -1.14289437       0.47833061
C       -0.70758438      -1.84165986      -0.81552655
C       -1.58169024      -0.29104110       0.93076512
C       -0.71714749       0.74948351       0.34489453
O       -0.63002246       1.87100673       1.14757254
H        1.44540260       1.98834837      -0.65715007
H        1.52104715       0.53574257      -1.64459918
H        2.82520786       0.92070471      -0.52622355
H        1.28594416       0.45839013       1.44580707
H        1.59813986      -0.86171212       0.40236233
H        0.21996610      -2.10476748      -1.33283531
H       -1.20741553      -2.78375172      -0.56966146
H       -1.35678180      -1.30793855      -1.52729223
H       -1.66129363      -0.25013925       2.01588554
H       -2.53609714      -0.41712860       0.42097321
H       -0.89929459       0.98305118      -0.70393170
H        0.03841470       2.46661749       0.79956230
19
Frame=6 idx=010191 GeodesicLength=0.5454334275639113 rxn_smarts="[C:1]([C:2]([C@@:3]1([C:4]([H:13])([H:14])[H:15])[C:5]([H:16])([H:17])[C@:6]1([O:7][H:19])[H:18])([H:11])[H:12])([H:8])([H:9])[H:10]>>[C:1]([C:2]([C@@:6]([C:5]([C:3][C:4]([H:13])([H:14])[H:15])([H:16])[H:17])([O:7][H:19])[H:18])([H:11])[H:12])([H:8])([H:9])[H:10]"
C        1.76924947       0.94027116      -0.63344573
C        1.07750515       0.10001495       0.44617918
C       -0.45214000      -1.13618179       0.44254553
C       -0.74019234      -1.85831393      -0.82842590
C       -1.56873583      -0.29107066       0.93138508
C       -0.71741554       0.75435001       0.32983621
O       -0.64459614       1.88307057       1.12777109
H        1.47897962       1.99467809      -0.64110152
H        1.56850335       0.54519628      -1.63201529
H        2.85121857       0.92349532      -0.48705787
H        1.27456571       0.46391122       1.45335139
H        1.60371261      -0.85401096       0.42015122
H        0.17357748      -2.07550170      -1.39038482
H       -1.17629418      -2.82441820      -0.55630699
H       -1.44811230      -1.35939785      -1.50808394
H       -1.61088198      -0.26673599       2.01951849
H       -2.53793263      -0.41290786       0.44936739
H       -0.91468060       0.98759102      -0.71679421
H        0.01366959       2.48596032       0.77351070
19
Frame=7 idx=010191 GeodesicLength=0.6332092570220113 rxn_smarts="[C:1]([C:2]([C@@:3]1([C:4]([H:13])([H:14])[H:15])[C:5]([H:16])([H:17])[C@:6]1([O:7][H:19])[H:18])([H:11])[H:12])([H:8])([H:9])[H:10]>>[C:1]([C:2]([C@@:6]([C:5]([C:3][C:4]([H:13])([H:14])[H:15])([H:16])[H:17])([O:7][H:19])[H:18])([H:11])[H:12])([H:8])([H:9])[H:10]"
C        1.79818235       0.94524358      -0.61424011
C        1.07999443       0.10747729       0.44925654
C       -0.45233386      -1.12876836       0.40528221
C       -0.77342233      -1.87536149      -0.84055740
C       -1.55500383      -0.29099522       0.93108196
C       -0.71762706       0.75951357       0.31381104
O       -0.65898423       1.89503434       1.10724878
H        1.51289418       2.00090247      -0.62387817
H        1.61707700       0.55452269      -1.61825131
H        2.87698736       0.92606519      -0.44635209
H        1.26279368       0.46914079       1.46051403
H        1.60839138      -0.84652813       0.43826721
H        0.12047080      -2.04364682      -1.44988691
H       -1.13957124      -2.86330829      -0.54536718
H       -1.54002769      -1.41480411      -1.48176890
H       -1.55954379      -0.28300824       2.02065672
H       -2.53843083      -0.40869278       0.47789960
H       -0.93086139       0.99233690      -0.73024997
H       -0.01098495       2.50487661       0.74653394
19
Frame=8 idx=010191 GeodesicLength=0.7197592966012009 rxn_smarts="[C:1]([C:2]([C@@:3]1([C:4]([H:13])([H:14])[H:15])[C:5]([H:16])([H:17])[C@:6]1([O:7][H:19])[H:18])([H:11])[H:12])([H:8])([H:9])[H:10]>>[C:1]([C:2]([C@@:6]([C:5]([C:3][C:4]([H:13])([H:14])[H:15])([H:16])[H:17])([O:7][H:19])[H:18])([H:11])[H:12])([H:8])([H:9])[H:10]"
C        1.82726308       0.95000793      -0.59426837
C        1.08227175       0.11483391       0.45198623
C       -0.45286991      -1.12057604       0.36659339
C       -0.80692621      -1.89271107      -0.85173884
C       -1.54060464      -0.29078695       0.92970920
C       -0.71780615       0.76503135       0.29688595
O       -0.67313945       1.90685895       1.08619498
H        1.54700931       2.00690044      -0.60562186
H        1.66646764       0.56352475      -1.60334366
H        2.90237226       0.92824835      -0.40439506
H        1.25070405       0.47406024       1.46719638
H        1.61208639      -0.83930562       0.45665720
H        0.06011271      -2.00956534      -1.51036248
H       -1.09718289      -2.89962450      -0.53779775
H       -1.63114735      -1.47419910      -1.44784505
H       -1.50765978      -0.29901872       2.01916158
H       -2.53757162      -0.40445207       0.50622989
H       -0.94796242       0.99747549      -0.74414466
H       -0.03541678       2.52329801       0.71890295
19
Frame=9 idx=010191 GeodesicLength=0.8052049058919986 rxn_smarts="[C:1]([C:2]([C@@:3]1([C:4]([H:13])([H:14])[H:15])[C:5]([H:16])([H:17])[C@:6]1([O:7][H:19])[H:18])([H:11])[H:12])([H:8])([H:9])[H:10]>>[C:1]([C:2]([C@@:6]([C:5]([C:3][C:4]([H:13])([H:14])[H:15])([H:16])[H:17])([O:7][H:19])[H:18])([H:11])[H:12])([H:8])([H:9])[H:10]"
C        1.85635354       0.95447605      -0.57365639
C        1.08428582       0.12208499       0.45434413
C       -0.45382950      -1.11154241       0.32656093
C       -0.84029968      -1.91045721      -0.86183822
C       -1.52568211      -0.29033204       0.92717629
C       -0.71796665       0.77106071       0.27915406
O       -0.68701536       1.91864968       1.06487552
H        1.58119080       2.01261772      -0.58647092
H        1.71644051       0.57203369      -1.58737371
H        2.92721253       0.92989740      -0.36139673
H        1.23832203       0.47867215       1.47339435
H        1.61465076      -0.83241238       0.47524333
H       -0.00806339      -1.97401443      -1.57143997
H       -1.04919317      -2.93291364      -0.53428713
H       -1.71990350      -1.53763644      -1.40599667
H       -1.45562290      -0.31474482       2.01501859
H       -2.53535270      -0.40004678       0.53401590
H       -0.96605541       1.00329768      -0.75833133
H       -0.05947162       2.54131008       0.69100796
19
Frame=10 idx=010191 GeodesicLength=0.8893601455454015 rxn_smarts="[C:1]([C:2]([C@@:3]1([C:4]([H:13])([H:14])[H:15])[C:5]([H:16])([H:17])[C@:6]1([O:7][H:19])[H:18])([H:11])[H:12])([H:8])([H:9])[H:10]>>[C:1]([C:2]([C@@:6]([C:5]([C:3][C:4]([H:13])([H:14])[H:15])([H:16])[H:17])([O:7][H:19])[H:18])([H:11])[H:12])([H:8])([H:9])[H:10]"
C        1.88529657       0.95852813      -0.55255581
C        1.08601366       0.12921027       0.45624010
C       -0.45526582      -1.10156660       0.28522432
C       -0.87316983      -1.92839099      -0.87070280
C       -1.51034359      -0.28963751       0.92328143
C       -0.71810920       0.77760951       0.26068992
O       -0.70054686       1.93029859       1.04348108
H        1.61532928       2.01791241      -0.56654415
H        1.76659707       0.57990841      -1.57039180
H        2.95135774       0.93085066      -0.31771550
H        1.22573280       0.48297161       1.47894902
H        1.61599512      -0.82583281       0.49389631
H       -0.08431054      -1.93764395      -1.63136327
H       -0.99604453      -2.96214439      -0.53599414
H       -1.80467337      -1.60500264      -1.35591879
H       -1.40385326      -0.33027886       2.00802957
H       -2.53177397      -0.39553114       0.56082043
H       -0.98521867       1.00992448      -0.77259055
H       -0.08301261       2.55881481       0.66316463
19
Frame=11 idx=010191 GeodesicLength=0.9725308804420243 rxn_smarts="[C:1]([C:2]([C@@:3]1([C:4]([H:13])([H:14])[H:15])[C:5]([H:16])([H:17])[C@:6]1([O:7][H:19])[H:18])([H:11])[H:12])([H:8])([H:9])[H:10]>>[C:1]([C:2]([C@@:6]([C:5]([C:3][C:4]([H:13])([H:14])[H:15])([H:16])[H:17])([O:7][H:19])[H:18])([H:11])[H:12])([H:8])([H:9])[H:10]"
C        1.91400440       0.96213282      -0.53107506
C        1.08741291       0.13622198       0.45765128
C       -0.45726205      -1.09060092       0.24262600
C       -0.90515213      -1.94667036      -0.87828079
C       -1.49474255      -0.28858651       0.91797234
C       -0.71824614       0.78486563       0.24158083
O       -0.71370106       1.94198544       1.02230216
H        1.64935991       2.02281702      -0.54594720
H        1.81677177       0.58708561      -1.55254337
H        2.97470721       0.93100728      -0.27349538
H        1.21295204       0.48695576       1.48391172
H        1.61599213      -0.81964689       0.51249404
H       -0.16905398      -1.90163556      -1.68960499
H       -0.93832913      -2.98697477      -0.54350443
H       -1.88372546      -1.67623747      -1.29768240
H       -1.35268457      -0.34562613       1.99828677
H       -2.52689834      -0.39080049       0.58632062
H       -1.00548746       1.01766811      -0.78680467
H       -0.10591749       2.57603947       0.63579252
19
Frame=12 idx=010191 GeodesicLength=1.0544998649930495 rxn_smarts="[C:1]([C:2]([C@@:3]1([C:4]([H:13])([H:14])[H:15])[C:5]([H:16])([H:17])[C@:6]1([O:7][H:19])[H:18])([H:11])[H:12])([H:8])([H:9])[H:10]>>[C:1]([C:2]([C@@:6]([C:5]([C:3][C:4]([H:13])([H:14])[H:15])([H:16])[H:17])([O:7][H:19])[H:18])([H:11])[H:12])([H:8])([H:9])[H:10]"
C        1.94239383       0.96519405      -0.50927810
C        1.08845601       0.14309205       0.45843447
C       -0.45989517      -1.07850952       0.19876533
C       -0.93593914      -1.96501854      -0.88439776
C       -1.47900981      -0.28717362       0.91102452
C       -0.71838125       0.79278299       0.22183891
O       -0.72644012       1.95349963       1.00139050
H        1.68328451       2.02715923      -0.52465533
H        1.86670215       0.59360879      -1.53381110
H        2.99719001       0.93019033      -0.22897240
H        1.20001256       0.49054273       1.48804299
H        1.61454202      -0.81379648       0.53078434
H       -0.26227689      -1.86658741      -1.74433281
H       -0.87675342      -3.00645249      -0.55778623
H       -1.95555199      -1.75112126      -1.23098569
H       -1.30250024      -0.36086070       1.98554541
H       -2.52082416      -0.38588339       0.61008975
H       -1.02688381       1.02654066      -0.80076023
H       -0.12812510       2.59279296       0.60906344
19
Frame=13 idx=010191 GeodesicLength=1.1357009736264667 rxn_smarts="[C:1]([C:2]([C@@:3]1([C:4]([H:13])([H:14])[H:15])[C:5]([H:16])([H:17])[C@:6]1([O:7][H:19])[H:18])([H:11])[H:12])([H:8])([H:9])[H:10]>>[C:1]([C:2]([C@@:6]([C:5]([C:3][C:4]([H:13])([H:14])[H:15])([H:16])[H:17])([O:7][H:19])[H:18])([H:11])[H:12])([H:8])([H:9])[H:10]"
C        1.97040439       0.96777987      -0.48725171
C        1.08911244       0.14982665       0.45854479
C       -0.46324480      -1.06527743       0.15358015
C       -0.96518723      -1.98372457      -0.88910027
C       -1.46326675      -0.28528253       0.90243276
C       -0.71852770       0.80161405       0.20153899
O       -0.73873813       1.96514145       0.98110737
H        1.71707408       2.03113602      -0.50266446
H        1.91627280       0.59960531      -1.51444716
H        3.01873906       0.92835702      -0.18421672
H        1.18693588       0.49366861       1.49147213
H        1.61156653      -0.80842811       0.54853469
H       -0.36402395      -1.83433446      -1.79488121
H       -0.81272213      -3.02053228      -0.57902870
H       -2.01825950      -1.82926044      -1.15655334
H       -1.25349273      -0.37603280       1.97002426
H       -2.51364477      -0.38069506       0.63186810
H       -1.04942570       1.03693561      -0.81441154
H       -0.14957180       2.60950310       0.58345187
19
Frame=14 idx=010191 GeodesicLength=1.2158922382852906 rxn_smarts="[C:1]([C:2]([C@@:3]1([C:4]([H:13])([H:14])[H:15])[C:5]([H:16])([H:17])[C@:6]1([O:7][H:19])[H:18])([H:11])[H:12])([H:8])([H:9])[H:10]>>[C:1]([C:2]([C@@:6]([C:5]([C:3][C:4]([H:13])([H:14])[H:15])([H:16])[H:17])([O:7][H:19])[H:18])([H:11])[H:12])([H:8])([H:9])[H:10]"
C        1.99805447       0.96979111      -0.46495889
C        1.08932122       0.15636968       0.45778402
C       -0.46746776      -1.05074875       0.10703287
C       -0.99268309      -2.00243134      -0.89218343
C       -1.44769681      -0.28288242       0.89197151
C       -0.71869575       0.81126297       0.18061559
O       -0.75059051       1.97662920       0.96132527
H        1.75086637       2.03452439      -0.47980618
H        1.96549431       0.60523378      -1.49432987
H        3.03935366       0.92529339      -0.13929804
H        1.17362490       0.49615605       1.49387580
H        1.60691213      -0.80348340       0.56539568
H       -0.47424310      -1.80511880      -1.83949971
H       -0.74682132      -3.02838487      -0.60817918
H       -2.07051118      -1.91046714      -1.07380264
H       -1.20606196      -0.39115570       1.95143036
H       -2.50556678      -0.37523584       0.65130382
H       -1.07303272       1.04875149      -0.82758267
H       -0.17025607       2.62589620       0.55890568
19
Frame=15 idx=010191 GeodesicLength=1.2955109979509603 rxn_smarts="[C:1]([C:2]([C@@:3]1([C:4]([H:13])([H:14])[H:15])[C:5]([H:16])([H:17])[C@:6]1([O:7][H:19])[H:18])([H:11])[H:12])([H:8])([H:9])[H:10]>>[C:1]([C:2]([C@@:6]([C:5]([C:3][C:4]([H:13])([H:14])[H:15])([H:16])[H:17])([O:7][H:19])[H:18])([H:11])[H:12])([H:8])([H:9])[H:10]"
C        2.02527756       0.97134820      -0.44243548
C        1.08908156       0.16271116       0.45606127
C       -0.47266262      -1.03490135       0.05892297
C       -1.01811564      -2.02144704      -0.89376136
C       -1.43236667      -0.27987015       0.87961411
C       -0.71892014       0.82200930       0.15911330
O       -0.76196156       1.98829838       0.94242092
H        1.78462335       2.03760104      -0.45590704
H        2.01420481       0.61077753      -1.47372779
H        3.05899163       0.92095856      -0.09422242
H        1.16017332       0.49786181       1.49538378
H        1.60059183      -0.79915310       0.58101807
H       -0.59244344      -1.78112145      -1.87728210
H       -0.68119731      -3.03031581      -0.64487913
H       -2.11040403      -1.99387931      -0.98407348
H       -1.16020524      -0.40632891       1.92995792
H       -2.49670289      -0.36945262       0.66816786
H       -1.09778378       1.06242615      -0.84026864
H       -0.19018073       2.64247759       0.53589723
19
Frame=16 idx=010191 GeodesicLength=1.37435671273564 rxn_smarts="[C:1]([C:2]([C@@:3]1([C:4]([H:13])([H:14])[H:15])[C:5]([H:16])([H:17])[C@:6]1([O:7][H:19])[H:18])([H:11])[H:12])([H:8])([H:9])[H:10]>>[C:1]([C:2]([C@@:6]([C:5]([C:3][C:4]([H:13])([H:14])[H:15])([H:16])[H:17])([O:7][H:19])[H:18])([H:11])[H:12])([H:8])([H:9])[H:10]"
C        2.05210936       0.97226534      -0.41958656
C        1.08823683       0.16875175       0.45320400
C       -0.47908048      -1.01760666       0.00926944
C       -1.04126268      -2.04036330      -0.89364923
C       -1.41751739      -0.27615832       0.86520480
C       -0.71919615       0.83375199       0.13689970
O       -0.77285918       1.99991574       0.92410959
H        1.81853970       2.04004828      -0.43077425
H        2.06264640       0.61628812      -1.45246165
H        3.07757684       0.91501483      -0.04891655
H        1.14626151       0.49856862       1.49571181
H        1.59230543      -0.79544142       0.59512783
H       -0.71888715      -1.76208519      -1.90656972
H       -0.61603494      -3.02555283      -0.69050456
H       -2.13635507      -2.07943375      -0.88639836
H       -1.11641278      -0.42144261       1.90540639
H       -2.48730077      -0.36330801       0.68219617
H       -1.12343127       1.07779683      -0.85241408
H       -0.20933823       2.65899060       0.51414523
