16
Frame=0 idx=011331 GeodesicLength=0.0 rxn_smarts="[C:1]([c:2]1[c:3]([C:4]([H:11])([H:12])[H:13])[c:5]([H:14])[c:6]([H:15])[n:7]1[H:16])([H:8])([H:9])[H:10]>>[C:1]([C@@:6]1([H:15])[C+:5]([H:14])[C:3]([C:4]([H:11])([H:12])[H:13])=[C-:2][N:7]1[H:16])([H:8])([H:9])[H:10]"
C       -0.10421077       1.73849186       0.65232002
C       -0.40203036       0.42959908      -0.79515416
C       -0.28059866      -0.92241348      -0.08276005
C       -1.29708162      -1.99695410      -0.15802996
C        0.91032312      -0.77455592       0.48997930
C        1.22974218       0.55716604      -0.10138304
N        0.85760017       0.48397503      -1.48903616
H       -1.12166054       1.54678707       0.97691339
H       -0.07090302       2.68257422       0.11053397
H        0.50177630       1.80803094       1.56050708
H       -0.95537254      -2.90601019       0.33705376
H       -1.52211898      -2.23089253      -1.20275643
H       -2.23389052      -1.67690331       0.30385142
H        1.49892246      -1.37458880       1.17004409
H        2.02416893       1.24030687       0.15863589
H        0.96533379       1.39538725      -1.93071908
16
Frame=1 idx=011331 GeodesicLength=0.08049059573926602 rxn_smarts="[C:1]([c:2]1[c:3]([C:4]([H:11])([H:12])[H:13])[c:5]([H:14])[c:6]([H:15])[n:7]1[H:16])([H:8])([H:9])[H:10]>>[C:1]([C@@:6]1([H:15])[C+:5]([H:14])[C:3]([C:4]([H:11])([H:12])[H:13])=[C-:2][N:7]1[H:16])([H:8])([H:9])[H:10]"
C       -0.11574217       1.74077715       0.64374330
C       -0.40012422       0.42009819      -0.80857690
C       -0.27366416      -0.92690575      -0.10066462
C       -1.29761523      -1.99611875      -0.15280304
C        0.91836218      -0.78112947       0.47795059
C        1.24553221       0.55280092      -0.09328349
N        0.86452212       0.49775109      -1.47763237
H       -1.13415348       1.54636697       0.96517137
H       -0.08584224       2.68668213       0.10414419
H        0.47679827       1.82495791       1.55955505
H       -0.94395823      -2.91354129       0.31808820
H       -1.56010411      -2.21514556      -1.19192570
H       -2.21738314      -1.67964498       0.34446713
H        1.49368875      -1.38355879       1.16696975
H        2.05211175       1.22102927       0.16793018
H        0.97757168       1.40558095      -1.92313364
16
Frame=2 idx=011331 GeodesicLength=0.16096603062075693 rxn_smarts="[C:1]([c:2]1[c:3]([C:4]([H:11])([H:12])[H:13])[c:5]([H:14])[c:6]([H:15])[n:7]1[H:16])([H:8])([H:9])[H:10]>>[C:1]([C@@:6]1([H:15])[C+:5]([H:14])[C:3]([C:4]([H:11])([H:12])[H:13])=[C-:2][N:7]1[H:16])([H:8])([H:9])[H:10]"
C       -0.12763400       1.74271580       0.63511923
C       -0.39804730       0.41055100      -0.82254631
C       -0.26646796      -0.93147970      -0.11909339
C       -1.29793011      -1.99484164      -0.14740779
C        0.92664177      -0.78782435       0.46548547
C        1.26139360       0.54837860      -0.08491911
N        0.87133632       0.51190407      -1.46569905
H       -1.14693370       1.54518862       0.95332319
H       -0.10170129       2.69052545       0.09783325
H        0.45130258       1.84171974       1.55815072
H       -0.93362002      -2.92050271       0.29895013
H       -1.59788823      -2.19888328      -1.17938150
H       -2.19924722      -1.68178170       0.38469892
H        1.48815415      -1.39236862       1.16378520
H        2.08072993       1.20067181       0.17682245
H        0.98991148       1.41602692      -1.91512139
16
Frame=3 idx=011331 GeodesicLength=0.24143960644499252 rxn_smarts="[C:1]([c:2]1[c:3]([C:4]([H:11])([H:12])[H:13])[c:5]([H:14])[c:6]([H:15])[n:7]1[H:16])([H:8])([H:9])[H:10]>>[C:1]([C@@:6]1([H:15])[C+:5]([H:14])[C:3]([C:4]([H:11])([H:12])[H:13])=[C-:2][N:7]1[H:16])([H:8])([H:9])[H:10]"
C       -0.13991218       1.74431853       0.62646196
C       -0.39579171       0.40096792      -0.83705548
C       -0.25904469      -0.93609711      -0.13798925
C       -1.29798717      -1.99309886      -0.14185650
C        0.93513959      -0.79461430       0.45262515
C        1.27731285       0.54389890      -0.07626167
N        0.87799256       0.52640809      -1.45317458
H       -1.16002614       1.54326937       0.94136502
H       -0.11850013       2.69408864       0.09159319
H        0.42523135       1.85829525       1.55632485
H       -0.92444638      -2.92681896       0.27965287
H       -1.63530415      -2.18200003      -1.16504707
H       -2.17940596      -1.68336960       0.42442221
H        1.48232221      -1.40103311       1.16043934
H        2.11007401       1.17912131       0.18517295
H        1.00234596       1.42666395      -1.90667300
16
Frame=4 idx=011331 GeodesicLength=0.32191816627348774 rxn_smarts="[C:1]([c:2]1[c:3]([C:4]([H:11])([H:12])[H:13])[c:5]([H:14])[c:6]([H:15])[n:7]1[H:16])([H:8])([H:9])[H:10]>>[C:1]([C@@:6]1([H:15])[C+:5]([H:14])[C:3]([C:4]([H:11])([H:12])[H:13])=[C-:2][N:7]1[H:16])([H:8])([H:9])[H:10]"
C       -0.15255995       1.74568384       0.61783387
C       -0.39342309       0.39139166      -0.85198739
C       -0.25150781      -0.94067516      -0.15713656
C       -1.29776950      -1.99089792      -0.13617110
C        0.94378471      -0.80142760       0.43950467
C        1.29324729       0.53935772      -0.06726692
N        0.88433692       0.54121119      -1.43996402
H       -1.17340490       1.54075499       0.92940402
H       -0.13620454       2.69742958       0.08542665
H        0.39862929       1.87476611       1.55411595
H       -0.91644096      -2.93246731       0.26055446
H       -1.67182940      -2.16466184      -1.14919081
H       -2.15819183      -1.68435905       0.46322444
H        1.47637931      -1.40970428       1.15665570
H        2.14019200       1.15622118       0.19277154
H        1.01476246       1.43737689      -1.89777450
16
Frame=5 idx=011331 GeodesicLength=0.40240655083516985 rxn_smarts="[C:1]([c:2]1[c:3]([C:4]([H:11])([H:12])[H:13])[c:5]([H:14])[c:6]([H:15])[n:7]1[H:16])([H:8])([H:9])[H:10]>>[C:1]([C@@:6]1([H:15])[C+:5]([H:14])[C:3]([C:4]([H:11])([H:12])[H:13])=[C-:2][N:7]1[H:16])([H:8])([H:9])[H:10]"
C       -0.16560040       1.74685225       0.60925205
C       -0.39092947       0.38183886      -0.86731714
C       -0.24390016      -0.94516269      -0.17644053
C       -1.29725484      -1.98822566      -0.13037896
C        0.95254284      -0.80821896       0.42620401
C        1.30918597       0.53475942      -0.05788984
N        0.89032053       0.55628018      -1.42598903
H       -1.18709544       1.53769809       0.91744098
H       -0.15482319       2.70055518       0.07931262
H        0.37145411       1.89115437       1.55155163
H       -0.90962444      -2.93740167       0.24168637
H       -1.70730906      -2.14682516      -1.13182074
H       -2.13564846      -1.68481546       0.50099169
H        1.47040174      -1.41844602       1.15234332
H        2.17111280       1.13186556       0.19946560
H        1.02716748       1.44809171      -1.88841202
16
Frame=6 idx=011331 GeodesicLength=0.48291220392114775 rxn_smarts="[C:1]([c:2]1[c:3]([C:4]([H:11])([H:12])[H:13])[c:5]([H:14])[c:6]([H:15])[n:7]1[H:16])([H:8])([H:9])[H:10]>>[C:1]([C@@:6]1([H:15])[C+:5]([H:14])[C:3]([C:4]([H:11])([H:12])[H:13])=[C-:2][N:7]1[H:16])([H:8])([H:9])[H:10]"
C       -0.17904591       1.74789695       0.60075273
C       -0.38832269       0.37234468      -0.88297325
C       -0.23628660      -0.94949091      -0.19574703
C       -1.29642674      -1.98508743      -0.12450607
C        0.96136371      -0.81492018       0.41285292
C        1.32511805       0.53012291      -0.04807703
N        0.89586664       0.57157880      -1.41115233
H       -1.20111148       1.53419999       0.90550697
H       -0.17433881       2.70350224       0.07324088
H        0.34367950       1.90750896       1.54867246
H       -0.90395629      -2.94160199       0.22314555
H       -1.74150737      -2.12849775      -1.11308673
H       -2.11194603      -1.68480726       0.53754854
H        1.46450834      -1.42733607       1.14739297
H        2.20287128       1.10589690       0.20501493
H        1.03953440       1.45869017      -1.87858550
16
Frame=7 idx=011331 GeodesicLength=0.563440181055009 rxn_smarts="[C:1]([c:2]1[c:3]([C:4]([H:11])([H:12])[H:13])[c:5]([H:14])[c:6]([H:15])[n:7]1[H:16])([H:8])([H:9])[H:10]>>[C:1]([C@@:6]1([H:15])[C+:5]([H:14])[C:3]([C:4]([H:11])([H:12])[H:13])=[C-:2][N:7]1[H:16])([H:8])([H:9])[H:10]"
C       -0.19290444       1.74888958       0.59237630
C       -0.38560679       0.36294059      -0.89888726
C       -0.22872128      -0.95359521      -0.21490750
C       -1.29528329      -1.98148290      -0.11856980
C        0.97020339      -0.82145994       0.39957269
C        1.34104210       0.52545899      -0.03778119
N        0.90089860       0.58708017      -1.39536597
H       -1.21545959       1.53035229       0.89364326
H       -0.19473644       2.70631066       0.06720535
H        0.31528612       1.92388509       1.54551773
H       -0.89936160      -2.94506986       0.20508861
H       -1.77419328      -2.10974352      -1.09321018
H       -2.08732501      -1.68433962       0.57273174
H        1.45884949      -1.43646635       1.14167828
H        2.23547300       1.07817653       0.20919656
H        1.05183904       1.46906351      -1.86828863
16
Frame=8 idx=011331 GeodesicLength=0.6439805931499823 rxn_smarts="[C:1]([c:2]1[c:3]([C:4]([H:11])([H:12])[H:13])[c:5]([H:14])[c:6]([H:15])[n:7]1[H:16])([H:8])([H:9])[H:10]>>[C:1]([C@@:6]1([H:15])[C+:5]([H:14])[C:3]([C:4]([H:11])([H:12])[H:13])=[C-:2][N:7]1[H:16])([H:8])([H:9])[H:10]"
C       -0.20720598       1.74986049       0.58415021
C       -0.38274258       0.35365280      -0.91503095
C       -0.22121345      -0.95743312      -0.23383760
C       -1.29381982      -1.97740219      -0.11258885
C        0.97904329      -0.82778689       0.38646529
C        1.35698074       0.52078948      -0.02695730
N        0.90539744       0.60276111      -1.37854212
H       -1.23017259       1.52618875       0.88183609
H       -0.21601620       2.70898455       0.06120377
H        0.28621462       1.94027967       1.54213105
H       -0.89576673      -2.94780333       0.18752034
H       -1.80531256      -2.09051178      -1.07228465
H       -2.06190088      -1.68345724       0.60650869
H        1.45349514      -1.44585413       1.13519261
H        2.26889956       1.04860735       0.21176211
H        1.06412000       1.47912445      -1.85752870
16
Frame=9 idx=011331 GeodesicLength=0.7244893328783092 rxn_smarts="[C:1]([c:2]1[c:3]([C:4]([H:11])([H:12])[H:13])[c:5]([H:14])[c:6]([H:15])[n:7]1[H:16])([H:8])([H:9])[H:10]>>[C:1]([C@@:6]1([H:15])[C+:5]([H:14])[C:3]([C:4]([H:11])([H:12])[H:13])=[C-:2][N:7]1[H:16])([H:8])([H:9])[H:10]"
C       -0.22190347       1.75101281       0.57614788
C       -0.37980537       0.34456250      -0.93120028
C       -0.21387147      -0.96087267      -0.25225365
C       -1.29202734      -1.97290710      -0.10662113
C        0.98779238      -0.83373645       0.37375140
C        1.37295915       0.51616740      -0.01556396
N        0.90923845       0.61865973      -1.36058456
H       -1.24518031       1.52194129       0.87027448
H       -0.23810586       2.71168201       0.05521545
H        0.25661574       1.95690253       1.53852732
H       -0.89300099      -2.94981352       0.17068866
H       -1.83442242      -2.07122341      -1.05077472
H       -2.03616194      -1.68220432       0.63853386
H        1.44866899      -1.45561973       1.12775829
H        2.30294235       1.01673305       0.21239311
H        1.07626212       1.48871589      -1.84629216
16
Frame=10 idx=011331 GeodesicLength=0.8050029664183571 rxn_smarts="[C:1]([c:2]1[c:3]([C:4]([H:11])([H:12])[H:13])[c:5]([H:14])[c:6]([H:15])[n:7]1[H:16])([H:8])([H:9])[H:10]>>[C:1]([C@@:6]1([H:15])[C+:5]([H:14])[C:3]([C:4]([H:11])([H:12])[H:13])=[C-:2][N:7]1[H:16])([H:8])([H:9])[H:10]"
C       -0.23705655       1.75220573       0.56837716
C       -0.37664550       0.33564157      -0.94752386
C       -0.20659593      -0.96395770      -0.27028062
C       -1.28990607      -1.96793398      -0.10066156
C        0.99651765      -0.83935575       0.36137894
C        1.38904534       0.51156369      -0.00360904
N        0.91246430       0.63474386      -1.34145089
H       -1.26055587       1.51742388       0.85883356
H       -0.26105692       2.71426701       0.04929724
H        0.22630374       1.97354690       1.53478480
H       -0.89106450      -2.95107655       0.15446854
H       -1.86177813      -2.05150664      -1.02859135
H       -2.00994578      -1.68053787       0.66905479
H        1.44424404      -1.46559832       1.11966079
H        2.33761398       0.98278217       0.21087546
H        1.08841620       1.49779202      -1.83461398
16
Frame=11 idx=011331 GeodesicLength=0.8855278348304723 rxn_smarts="[C:1]([c:2]1[c:3]([C:4]([H:11])([H:12])[H:13])[c:5]([H:14])[c:6]([H:15])[n:7]1[H:16])([H:8])([H:9])[H:10]>>[C:1]([C@@:6]1([H:15])[C+:5]([H:14])[C:3]([C:4]([H:11])([H:12])[H:13])=[C-:2][N:7]1[H:16])([H:8])([H:9])[H:10]"
C       -0.25267287       1.75345133       0.56087295
C       -0.37319816       0.32690645      -0.96398251
C       -0.19936470      -0.96665813      -0.28787064
C       -1.28745350      -1.96246888      -0.09472461
C        1.00522119      -0.84459171       0.34942173
C        1.40530846       0.50697978       0.00890865
N        0.91504525       0.65102242      -1.32108366
H       -1.27630033       1.51262431       0.84753600
H       -0.28486845       2.71673563       0.04346786
H        0.19525830       1.99019341       1.53094595
H       -0.88988465      -2.95157592       0.13890845
H       -1.88732876      -2.03136365      -1.00590449
H       -1.98338542      -1.67842444       0.69806589
H        1.44026530      -1.47576538       1.11095852
H        2.37273846       0.94669033       0.20698152
H        1.10061989       1.50624445      -1.82250161
16
Frame=12 idx=011331 GeodesicLength=0.9660645579646863 rxn_smarts="[C:1]([c:2]1[c:3]([C:4]([H:11])([H:12])[H:13])[c:5]([H:14])[c:6]([H:15])[n:7]1[H:16])([H:8])([H:9])[H:10]>>[C:1]([C@@:6]1([H:15])[C+:5]([H:14])[C:3]([C:4]([H:11])([H:12])[H:13])=[C-:2][N:7]1[H:16])([H:8])([H:9])[H:10]"
C       -0.26876576       1.75470613       0.55366375
C       -0.36936239       0.31836475      -0.98059658
C       -0.19211726      -0.96896820      -0.30503888
C       -1.28466875      -1.95646540      -0.08881528
C        1.01393655      -0.84941852       0.33790933
C        1.42184559       0.50240666       0.02195896
N        0.91698395       0.66751014      -1.29944143
H       -1.29241833       1.50745913       0.83637007
H       -0.30954801       2.71903797       0.03776391
H        0.16342772       2.00674110       1.52706181
H       -0.88942175      -2.95128144       0.12401416
H       -1.91111383      -2.01071514      -0.98279544
H       -1.95653153      -1.67579652       0.72562339
H        1.43672247      -1.48604268       1.10178012
H        2.40808450       0.90849881       0.20052190
H        1.11294683       1.51396321      -1.80997978
16
Frame=13 idx=011331 GeodesicLength=1.0466205880798911 rxn_smarts="[C:1]([c:2]1[c:3]([C:4]([H:11])([H:12])[H:13])[c:5]([H:14])[c:6]([H:15])[n:7]1[H:16])([H:8])([H:9])[H:10]>>[C:1]([C@@:6]1([H:15])[C+:5]([H:14])[C:3]([C:4]([H:11])([H:12])[H:13])=[C-:2][N:7]1[H:16])([H:8])([H:9])[H:10]"
C       -0.28533224       1.75592293       0.54678711
C       -0.36503574       0.31002739      -0.99738301
C       -0.18479380      -0.97088477      -0.32180312
C       -1.28155693      -1.94987380      -0.08294469
C        1.02269526      -0.85381148       0.32686409
C        1.43876805       0.49781987       0.03548121
N        0.91826503       0.68422142      -1.27649516
H       -1.30889251       1.50183284       0.82535737
H       -0.33509564       2.72112472       0.03223475
H        0.13080699       2.02309023       1.52318559
H       -0.88962654      -2.95017248       0.10984904
H       -1.93313714      -1.98953770      -0.95940202
H       -1.92949031      -1.67252987       0.75175871
H        1.43360628      -1.49635165       1.09224681
H        2.44335711       0.86830538       0.19133626
H        1.12546212       1.52081696      -1.79707291
16
Frame=14 idx=011331 GeodesicLength=1.1272015330293512 rxn_smarts="[C:1]([c:2]1[c:3]([C:4]([H:11])([H:12])[H:13])[c:5]([H:14])[c:6]([H:15])[n:7]1[H:16])([H:8])([H:9])[H:10]>>[C:1]([C@@:6]1([H:15])[C+:5]([H:14])[C:3]([C:4]([H:11])([H:12])[H:13])=[C-:2][N:7]1[H:16])([H:8])([H:9])[H:10]"
C       -0.30236673       1.75702391       0.54026535
C       -0.36008861       0.30188944      -1.01438013
C       -0.17731764      -0.97242455      -0.33820509
C       -1.27812369      -1.94263070      -0.07710974
C        1.03154230      -0.85776907       0.31630050
C        1.45620907       0.49316883       0.04938232
N        0.91890015       0.70114554      -1.25222188
H       -1.32570276       1.49562379       0.81447952
H       -0.36149942       2.72291480       0.02691835
H        0.09736649       2.03909500       1.51936508
H       -0.89049302      -2.94821116       0.09642140
H       -1.95346726      -1.96770571      -0.93577976
H       -1.90228028      -1.66851784       0.77654925
H        1.43089323      -1.50661491       1.08248061
H        2.47818811       0.82632881       0.17934802
H        1.13824006       1.52668383      -1.78381380
16
Frame=15 idx=011331 GeodesicLength=1.2078217591795264 rxn_smarts="[C:1]([c:2]1[c:3]([C:4]([H:11])([H:12])[H:13])[c:5]([H:14])[c:6]([H:15])[n:7]1[H:16])([H:8])([H:9])[H:10]>>[C:1]([C@@:6]1([H:15])[C+:5]([H:14])[C:3]([C:4]([H:11])([H:12])[H:13])=[C-:2][N:7]1[H:16])([H:8])([H:9])[H:10]"
C       -0.31984217       1.75794146       0.53413863
C       -0.35440621       0.29395293      -1.03160861
C       -0.16962865      -0.97360200      -0.35427616
C       -1.27438130      -1.93467955      -0.07132065
C        1.04051443      -0.86129356       0.30622833
C        1.47429975       0.48839008       0.06353328
N        0.91887219       0.71826517      -1.22660978
H       -1.34280205       1.48872020       0.80376665
H       -0.38873317       2.72433737       0.02186557
H        0.06313698       2.05462708       1.51565149
H       -0.89200334      -2.94537155       0.08376557
H       -1.97212788      -1.94515662      -0.91204508
H       -1.87497645      -1.66363759       0.80002829
H        1.42854158      -1.51674079       1.07262113
H        2.51220334       0.78286300       0.16450658
H        1.15133295       1.53138437      -1.77024524
16
Frame=16 idx=011331 GeodesicLength=1.2885067740015006 rxn_smarts="[C:1]([c:2]1[c:3]([C:4]([H:11])([H:12])[H:13])[c:5]([H:14])[c:6]([H:15])[n:7]1[H:16])([H:8])([H:9])[H:10]>>[C:1]([C@@:6]1([H:15])[C+:5]([H:14])[C:3]([C:4]([H:11])([H:12])[H:13])=[C-:2][N:7]1[H:16])([H:8])([H:9])[H:10]"
C       -0.33774594       1.75858524       0.52843173
C       -0.34784972       0.28620909      -1.04910968
C       -0.16165423      -0.97444812      -0.37007281
C       -1.27034545      -1.92594678      -0.06558196
C        1.04966028      -0.86440767       0.29664019
C        1.49316639       0.48340778       0.07778502
N        0.91818214       0.73554504      -1.19965572
H       -1.36016246       1.48098556       0.79321402
H       -0.41677630       2.72529994       0.01711764
H        0.02811690       2.06952741       1.51209300
H       -0.89417678      -2.94162021       0.07187710
H       -1.98919963      -1.92174331      -0.88824146
H       -1.84758606      -1.65776859       0.82227503
H        1.42651023      -1.52664878       1.06279506
H        2.54505593       0.73828892       0.14683280
H        1.16480470       1.53473448      -1.75639995
