11
Frame=0 idx=003141 GeodesicLength=0.0 rxn_smarts="[c:1]1([H:7])[c:2]([H:8])[c:3]([H:9])[n:4][c:5]([H:10])[c:6]1[H:11]>>[C:1]1([H:7])([H:9])[C:2]([H:8])=[C:3]=[N:4][C:5]([H:10])=[C:6]1[H:11]"
C       -0.38802265       0.91951633       0.08443073
C       -1.30884737      -0.08222415      -0.37426503
C       -0.97330604      -1.48571004      -0.30840624
N        0.32071309      -1.75738961      -0.09062116
C        1.27056047      -0.78320697      -0.10521986
C        0.98829985       0.53451563       0.09576190
H       -0.68951597       1.95798330       0.16526070
H       -2.32686959       0.21255658      -0.60923883
H       -0.95406177       0.34916113       0.98810635
H        2.30001285      -1.12596402      -0.15198082
H        1.76103714       1.26076182       0.30617226
11
Frame=1 idx=003141 GeodesicLength=0.10639855520332221 rxn_smarts="[c:1]1([H:7])[c:2]([H:8])[c:3]([H:9])[n:4][c:5]([H:10])[c:6]1[H:11]>>[C:1]1([H:7])([H:9])[C:2]([H:8])=[C:3]=[N:4][C:5]([H:10])=[C:6]1[H:11]"
C       -0.39041738       0.91754087       0.10188415
C       -1.30390985      -0.07348399      -0.39880068
C       -0.97229355      -1.46760301      -0.26938093
N        0.31964146      -1.75536505      -0.08697444
C        1.27221508      -0.78168678      -0.11516524
C        0.98851622       0.53445625       0.09537042
H       -0.68940958       1.95728039       0.17359300
H       -2.32033989       0.22079814      -0.63895278
H       -0.96902239       0.31094916       1.00742955
H        2.30103955      -1.12698559      -0.15204416
H        1.76398032       1.26409961       0.28304111
11
Frame=2 idx=003141 GeodesicLength=0.21269454292050183 rxn_smarts="[c:1]1([H:7])[c:2]([H:8])[c:3]([H:9])[n:4][c:5]([H:10])[c:6]1[H:11]>>[C:1]1([H:7])([H:9])[C:2]([H:8])=[C:3]=[N:4][C:5]([H:10])=[C:6]1[H:11]"
C       -0.39294403       0.91537343       0.11911977
C       -1.29923318      -0.06517580      -0.41991702
C       -0.97004705      -1.44825285      -0.23727747
N        0.31792152      -1.75323760      -0.08487561
C        1.27370894      -0.78050341      -0.12257470
C        0.98860861       0.53459546       0.09409156
H       -0.68882006       1.95665944       0.17933516
H       -2.31412332       0.22867634      -0.66493037
H       -0.98304122       0.27252291       1.02769495
H        2.30179428      -1.12848045      -0.14881447
H        1.76617551       1.26782255       0.25814820
11
Frame=3 idx=003141 GeodesicLength=0.31898574588314926 rxn_smarts="[c:1]1([H:7])[c:2]([H:8])[c:3]([H:9])[n:4][c:5]([H:10])[c:6]1[H:11]>>[C:1]1([H:7])([H:9])[C:2]([H:8])=[C:3]=[N:4][C:5]([H:10])=[C:6]1[H:11]"
C       -0.39552350       0.91313252       0.13607692
C       -1.29477928      -0.05707140      -0.43843240
C       -0.96689079      -1.42825568      -0.21061049
N        0.31571596      -1.75099597      -0.08365741
C        1.27510597      -0.77951571      -0.12822739
C        0.98858405       0.53489715       0.09229629
H       -0.68766958       1.95614506       0.18292211
H       -2.30819522       0.23640295      -0.68795217
H       -0.99631441       0.23371186       1.04869379
H        2.30231339      -1.13021418      -0.14317175
H        1.76765342       1.27176341       0.23206250
11
Frame=4 idx=003141 GeodesicLength=0.4252552688879059 rxn_smarts="[c:1]1([H:7])[c:2]([H:8])[c:3]([H:9])[n:4][c:5]([H:10])[c:6]1[H:11]>>[C:1]1([H:7])([H:9])[C:2]([H:8])=[C:3]=[N:4][C:5]([H:10])=[C:6]1[H:11]"
C       -0.39809367       0.91093549       0.15259028
C       -1.29052388      -0.04906858      -0.45487990
C       -0.96303216      -1.40794235      -0.18816644
N        0.31314705      -1.74862450      -0.08286244
C        1.27643241      -0.77862075      -0.13259554
C        0.98847135       0.53537040       0.09013579
H       -0.68592581       1.95576470       0.18452592
H       -2.30253921       0.24403874      -0.70856551
H       -1.00893597       0.19451275       1.07023626
H        2.30264547      -1.13205300      -0.13602205
H        1.76835443       1.27568711       0.20560364
11
Frame=5 idx=003141 GeodesicLength=0.5316734572900557 rxn_smarts="[c:1]1([H:7])[c:2]([H:8])[c:3]([H:9])[n:4][c:5]([H:10])[c:6]1[H:11]>>[C:1]1([H:7])([H:9])[C:2]([H:8])=[C:3]=[N:4][C:5]([H:10])=[C:6]1[H:11]"
C       -0.40063949       0.90885528       0.16864540
C       -1.28642619      -0.04105342      -0.46973856
C       -0.95869650      -1.38750072      -0.16904817
N        0.31029000      -1.74612569      -0.08243342
C        1.27771127      -0.77777965      -0.13596439
C        0.98824389       0.53596419       0.08791907
H       -0.68361309       1.95549884       0.18462793
H       -2.29710590       0.25169977      -0.72728588
H       -1.02103388       0.15466986       1.09223647
H        2.30277343      -1.13388081      -0.12750300
H        1.76849645       1.27965235       0.17854455
11
Frame=6 idx=003141 GeodesicLength=0.638142016746241 rxn_smarts="[c:1]1([H:7])[c:2]([H:8])[c:3]([H:9])[n:4][c:5]([H:10])[c:6]1[H:11]>>[C:1]1([H:7])([H:9])[C:2]([H:8])=[C:3]=[N:4][C:5]([H:10])=[C:6]1[H:11]"
C       -0.40310948       0.90700511       0.18400276
C       -1.28247750      -0.03304238      -0.48327134
C       -0.95394238      -1.36701980      -0.15246853
N        0.30719430      -1.74347140      -0.08207525
C        1.27893995      -0.77693141      -0.13853503
C        0.98797159       0.53673114       0.08553962
H       -0.68075209       1.95538190       0.18321362
H       -2.29190380       0.25930619      -0.74438134
H       -1.03262834       0.11432077       1.11455790
H        2.30274580      -1.13567371      -0.11839983
H        1.76796194       1.28339359       0.15181743
11
Frame=7 idx=003141 GeodesicLength=0.7446638351600365 rxn_smarts="[c:1]1([H:7])[c:2]([H:8])[c:3]([H:9])[n:4][c:5]([H:10])[c:6]1[H:11]>>[C:1]1([H:7])([H:9])[C:2]([H:8])=[C:3]=[N:4][C:5]([H:10])=[C:6]1[H:11]"
C       -0.40549565       0.90545099       0.19862835
C       -1.27866837      -0.02500315      -0.49571212
C       -0.94888483      -1.34652696      -0.13793505
N        0.30389035      -1.74066644      -0.08179588
C        1.28012080      -0.77605813      -0.14044720
C        0.98765266       0.53764434       0.08310562
H       -0.67739783       1.95541342       0.18062379
H       -2.28691006       0.26689384      -0.76014924
H       -1.04377109       0.07328994       1.13713751
H        2.30254088      -1.13738640      -0.10869601
H        1.76692314       1.28694856       0.12524021
11
Frame=8 idx=003141 GeodesicLength=0.8512203653189595 rxn_smarts="[c:1]1([H:7])[c:2]([H:8])[c:3]([H:9])[n:4][c:5]([H:10])[c:6]1[H:11]>>[C:1]1([H:7])([H:9])[C:2]([H:8])=[C:3]=[N:4][C:5]([H:10])=[C:6]1[H:11]"
C       -0.40775862       0.90427533       0.21237255
C       -1.27498654      -0.01694367      -0.50725215
C       -0.94355493      -1.32604189      -0.12493042
N        0.30038547      -1.73768487      -0.08148228
C        1.28125443      -0.77513688      -0.14178266
C        0.98734420       0.53873033       0.08056044
H       -0.67359020       1.95563072       0.17691999
H       -2.28212348       0.27441373      -0.77477547
H       -1.05451898       0.03158503       1.15991992
H        2.30219551      -1.13902388      -0.09879250
H        1.76535314       1.29019606       0.09924258
11
Frame=9 idx=003141 GeodesicLength=0.9580103917790914 rxn_smarts="[c:1]1([H:7])[c:2]([H:8])[c:3]([H:9])[n:4][c:5]([H:10])[c:6]1[H:11]>>[C:1]1([H:7])([H:9])[C:2]([H:8])=[C:3]=[N:4][C:5]([H:10])=[C:6]1[H:11]"
C       -0.40987930       0.90358848       0.22514408
C       -1.27146150      -0.00886920      -0.51769139
C       -0.93802440      -1.30543018      -0.11311984
N        0.29669742      -1.73453564      -0.08134844
C        1.28231867      -0.77414457      -0.14262766
C        0.98704210       0.53996341       0.07802918
H       -0.66935920       1.95611156       0.17201161
H       -2.27751495       0.28187745      -0.78825368
H       -1.06505451      -0.01125865       1.18267519
H        2.30164890      -1.14056455      -0.08854423
H        1.76358677       1.29326190       0.07372518
11
Frame=10 idx=003141 GeodesicLength=1.064821812307204 rxn_smarts="[c:1]1([H:7])[c:2]([H:8])[c:3]([H:9])[n:4][c:5]([H:10])[c:6]1[H:11]>>[C:1]1([H:7])([H:9])[C:2]([H:8])=[C:3]=[N:4][C:5]([H:10])=[C:6]1[H:11]"
C       -0.41185454       0.90340899       0.23693432
C       -1.26806632      -0.00076241      -0.52749547
C       -0.93232767      -1.28478932      -0.10215294
N        0.29281379      -1.73118359      -0.08121912
C        1.28332499      -0.77307578      -0.14305324
C        0.98677875       0.54138439       0.07535827
H       -0.66476263       1.95685063       0.16613435
H       -2.27313184       0.28925103      -0.80084264
H       -1.07525146      -0.05506737       1.20559621
H        2.30095570      -1.14202569      -0.07820693
H        1.76152125       1.29600912       0.04894718
11
Frame=11 idx=003141 GeodesicLength=1.1716666407274638 rxn_smarts="[c:1]1([H:7])[c:2]([H:8])[c:3]([H:9])[n:4][c:5]([H:10])[c:6]1[H:11]>>[C:1]1([H:7])([H:9])[C:2]([H:8])=[C:3]=[N:4][C:5]([H:10])=[C:6]1[H:11]"
C       -0.41369657       0.90378052       0.24778985
C       -1.26478674       0.00739825      -0.53677799
C       -0.92651631      -1.26405994      -0.09181106
N        0.28871937      -1.72761963      -0.08117463
C        1.28426154      -0.77192635      -0.14307285
C        0.98654737       0.54298307       0.07264482
H       -0.65984178       1.95787756       0.15939364
H       -2.26895984       0.29655608      -0.81267776
H       -1.08512996      -0.10010330       1.22870539
H        2.30007476      -1.14340977      -0.06767056
H        1.75932815       1.29852353       0.02465116
11
Frame=12 idx=003141 GeodesicLength=1.2784753022989988 rxn_smarts="[c:1]1([H:7])[c:2]([H:8])[c:3]([H:9])[n:4][c:5]([H:10])[c:6]1[H:11]>>[C:1]1([H:7])([H:9])[C:2]([H:8])=[C:3]=[N:4][C:5]([H:10])=[C:6]1[H:11]"
C       -0.41539472       0.90476304       0.25767884
C       -1.26162765       0.01562185      -0.54559620
C       -0.92062107      -1.24319695      -0.08185937
N        0.28439319      -1.72381596      -0.08127387
C        1.28511971      -0.77068207      -0.14271611
C        0.98636569       0.54477428       0.06985216
H       -0.65461068       1.95924111       0.15173442
H       -2.26500965       0.30378722      -0.82379252
H       -1.09469358      -0.14655897       1.25199384
H        2.29901563      -1.14473267      -0.05694014
H        1.75706314       1.30079912       0.00091895
11
Frame=13 idx=003141 GeodesicLength=1.3853215042497429 rxn_smarts="[c:1]1([H:7])[c:2]([H:8])[c:3]([H:9])[n:4][c:5]([H:10])[c:6]1[H:11]>>[C:1]1([H:7])([H:9])[C:2]([H:8])=[C:3]=[N:4][C:5]([H:10])=[C:6]1[H:11]"
C       -0.41694498       0.90643705       0.26661531
C       -1.25858841       0.02391421      -0.55398563
C       -0.91465072      -1.22211167      -0.07208461
N        0.27981644      -1.71974725      -0.08156026
C        1.28588713      -0.76932562      -0.14197805
C        0.98624071       0.54677444       0.06702164
H       -0.64906741       1.96100109       0.14309423
H       -2.26128959       0.31092963      -0.83425292
H       -1.10398352      -0.19474952       1.27545231
H        2.29769778      -1.14598184      -0.04601333
H        1.75488258       1.30285947      -0.02230869
11
Frame=14 idx=003141 GeodesicLength=1.4921417292672998 rxn_smarts="[c:1]1([H:7])[c:2]([H:8])[c:3]([H:9])[n:4][c:5]([H:10])[c:6]1[H:11]>>[C:1]1([H:7])([H:9])[C:2]([H:8])=[C:3]=[N:4][C:5]([H:10])=[C:6]1[H:11]"
C       -0.41832680       0.90887587       0.27457551
C       -1.25568069       0.03229400      -0.56196298
C       -0.90862359      -1.20073635      -0.06226966
N        0.27495382      -1.71536859      -0.08213490
C        1.28655731      -0.76783919      -0.14086535
C        0.98619443       0.54900950       0.06408546
H       -0.64319735       1.96321550       0.13337472
H       -2.25782020       0.31799013      -0.84404460
H       -1.11297336      -0.24495876       1.29903732
H        2.29610725      -1.14716502      -0.03479953
H        1.75280919       1.30468292      -0.04499599
11
Frame=15 idx=003141 GeodesicLength=1.5988746276916506 rxn_smarts="[c:1]1([H:7])[c:2]([H:8])[c:3]([H:9])[n:4][c:5]([H:10])[c:6]1[H:11]>>[C:1]1([H:7])([H:9])[C:2]([H:8])=[C:3]=[N:4][C:5]([H:10])=[C:6]1[H:11]"
C       -0.41951430       0.91216299       0.28154679
C       -1.25293237       0.04078123      -0.56951170
C       -0.90254592      -1.17898997      -0.05222090
N        0.26976496      -1.71062955      -0.08312316
C        1.28711503      -0.76620016      -0.13940355
C        0.98624447       0.55150832       0.06097567
H       -0.63698001       1.96594432       0.12248491
H       -2.25464324       0.32497880      -0.85311961
H       -1.12166021      -0.29752680       1.32266800
H        2.29423864      -1.14831590      -0.02310471
H        1.75091292       1.30628672      -0.06719175
11
Frame=16 idx=003141 GeodesicLength=1.7055266724280171 rxn_smarts="[c:1]1([H:7])[c:2]([H:8])[c:3]([H:9])[n:4][c:5]([H:10])[c:6]1[H:11]>>[C:1]1([H:7])([H:9])[C:2]([H:8])=[C:3]=[N:4][C:5]([H:10])=[C:6]1[H:11]"
C       -0.42047043       0.91640145       0.28754875
C       -1.25036156       0.04941350      -0.57658144
C       -0.89640977      -1.15676207      -0.04174392
N        0.26421010      -1.70546810      -0.08466625
C        1.28755651      -0.76438438      -0.13756450
C        0.98641773       0.55430907       0.05767639
H       -0.63037383       1.96926024       0.11034326
H       -2.25178581       0.33192421      -0.86141114
H       -1.13007782      -0.35291738       1.34619016
H        2.29204907      -1.14945978      -0.01066922
H        1.74924581       1.30768322      -0.08912210
