19
Frame=0 idx=007414 GeodesicLength=0.0 rxn_smarts="[C:1]([C@:2]1([H:11])[C:3]([H:12])([H:13])[C@@:4]([C:5]([H:15])([H:16])[H:17])([H:14])[C:6]([H:18])=[C:7]1[H:19])([H:8])([H:9])[H:10]>>[C:1]([H:8])([H:9])([H:10])[H:13].[C:2]1([H:11])=[C:3]([H:12])[C:4]([C:5]([H:15])([H:16])[H:17])([H:14])[C:6]([H:18])=[C:7]1[H:19]"
C       -2.17447879      -1.06213678       0.13415618
C       -0.93226105       1.26066393      -0.08294961
C       -0.12839555       0.55236425       0.88258823
C        1.22941053       0.30869929       0.20269724
C        1.84601612      -1.06264500       0.44644108
C        0.93049109       0.63339482      -1.22939642
C       -0.27586967       1.22232113      -1.35348957
H       -1.44224993      -0.88859044      -0.62936622
H       -2.41817669      -0.33288706       0.88367998
H       -2.93295881      -1.81219014      -0.07547183
H       -1.79303447       1.87196234       0.14442856
H       -0.11424282       0.94111010       1.90010792
H       -0.64474726      -0.50654834       0.98173963
H        1.92726793       1.07377312       0.57010986
H        1.16503074      -1.85172231       0.12207497
H        2.05098987      -1.21110495       1.50835094
H        2.78692037      -1.17324167      -0.09623351
H        1.62432528       0.43717482      -2.03704169
H       -0.70403693       1.59960285      -2.27242579
19
Frame=1 idx=007414 GeodesicLength=0.13592007067711145 rxn_smarts="[C:1]([C@:2]1([H:11])[C:3]([H:12])([H:13])[C@@:4]([C:5]([H:15])([H:16])[H:17])([H:14])[C:6]([H:18])=[C:7]1[H:19])([H:8])([H:9])[H:10]>>[C:1]([H:8])([H:9])([H:10])[H:13].[C:2]1([H:11])=[C:3]([H:12])[C:4]([C:5]([H:15])([H:16])[H:17])([H:14])[C:6]([H:18])=[C:7]1[H:19]"
C       -2.19583868      -1.04735589       0.13829115
C       -0.94115423       1.23404128      -0.08822472
C       -0.12233099       0.54770213       0.88106414
C        1.23590334       0.31580139       0.20031092
C        1.86662755      -1.04764429       0.45263835
C        0.93274837       0.62940099      -1.23370177
C       -0.28048481       1.20121997      -1.36023178
H       -1.44941145      -0.96267065      -0.62892504
H       -2.40606957      -0.40961119       0.97681922
H       -3.02521292      -1.68492355      -0.17221533
H       -1.78135716       1.87122285       0.14666193
H       -0.10392411       0.94868663       1.89397446
H       -0.65931368      -0.53046223       0.98878322
H        1.92800595       1.08917151       0.56169457
H        1.19365205      -1.84607421       0.13461133
H        2.07511237      -1.18667774       1.51519770
H        2.80765538      -1.15324091      -0.09088893
H        1.62583181       0.43166924      -2.04172636
H       -0.70043922       1.59974467      -2.27413305
19
Frame=2 idx=007414 GeodesicLength=0.27217625350568336 rxn_smarts="[C:1]([C@:2]1([H:11])[C:3]([H:12])([H:13])[C@@:4]([C:5]([H:15])([H:16])[H:17])([H:14])[C:6]([H:18])=[C:7]1[H:19])([H:8])([H:9])[H:10]>>[C:1]([H:8])([H:9])([H:10])[H:13].[C:2]1([H:11])=[C:3]([H:12])[C:4]([C:5]([H:15])([H:16])[H:17])([H:14])[C:6]([H:18])=[C:7]1[H:19]"
C       -2.21670847      -1.03069921       0.13884300
C       -0.94992170       1.20830857      -0.09232272
C       -0.11720315       0.54235334       0.87979578
C        1.24155929       0.32299773       0.19808532
C        1.88691677      -1.03195761       0.45953700
C        0.93340272       0.62390953      -1.23794049
C       -0.28673811       1.17799533      -1.36676229
H       -1.46213614      -1.03970015      -0.62782893
H       -2.39041228      -0.50158327       1.05831357
H       -3.10354128      -1.53460568      -0.26028140
H       -1.76781020       1.87205321       0.14970115
H       -0.09556422       0.95384542       1.88862830
H       -0.67477222      -0.55639473       0.99468495
H        1.92740532       1.10520908       0.55279372
H        1.22220433      -1.83999947       0.14848694
H        2.09904686      -1.16077829       1.52271918
H        2.82798949      -1.13240342      -0.08497780
H        1.62580606       0.42490646      -2.04632986
H       -0.69952307       1.59654316      -2.27514543
19
Frame=3 idx=007414 GeodesicLength=0.408751480698338 rxn_smarts="[C:1]([C@:2]1([H:11])[C:3]([H:12])([H:13])[C@@:4]([C:5]([H:15])([H:16])[H:17])([H:14])[C:6]([H:18])=[C:7]1[H:19])([H:8])([H:9])[H:10]>>[C:1]([H:8])([H:9])([H:10])[H:13].[C:2]1([H:11])=[C:3]([H:12])[C:4]([C:5]([H:15])([H:16])[H:17])([H:14])[C:6]([H:18])=[C:7]1[H:19]"
C       -2.23649722      -1.01283432       0.13735786
C       -0.95795591       1.18444518      -0.09562291
C       -0.11293948       0.53659932       0.87851773
C        1.24651858       0.33031444       0.19628469
C        1.90636667      -1.01598802       0.46690293
C        0.93325316       0.61760855      -1.24176362
C       -0.29336543       1.15417018      -1.37298665
H       -1.48540967      -1.11595953      -0.62871324
H       -2.37220226      -0.60713303       1.12432655
H       -3.16488321      -1.36769324      -0.33201117
H       -1.75216144       1.87492071       0.15245927
H       -0.08935155       0.95635432       1.88400920
H       -0.69107565      -0.58410990       0.99854891
H        1.92566084       1.12139780       0.54433713
H        1.24994694      -1.83327318       0.16263006
H        2.12160517      -1.13462902       1.53066428
H        2.84763368      -1.11113286      -0.07818494
H        1.62636737       0.41978018      -2.04988489
H       -0.70151057       1.58716244      -2.27687117
19
Frame=4 idx=007414 GeodesicLength=0.5458090056998651 rxn_smarts="[C:1]([C@:2]1([H:11])[C:3]([H:12])([H:13])[C@@:4]([C:5]([H:15])([H:16])[H:17])([H:14])[C:6]([H:18])=[C:7]1[H:19])([H:8])([H:9])[H:10]>>[C:1]([H:8])([H:9])([H:10])[H:13].[C:2]1([H:11])=[C:3]([H:12])[C:4]([C:5]([H:15])([H:16])[H:17])([H:14])[C:6]([H:18])=[C:7]1[H:19]"
C       -2.25402953      -0.99303058       0.13464533
C       -0.96461937       1.16475327      -0.09733900
C       -0.10880909       0.53267021       0.87808426
C        1.25100543       0.33794892       0.19507846
C        1.92320415      -1.00067341       0.47422469
C        0.93276208       0.61187714      -1.24488345
C       -0.29935429       1.13267977      -1.37806566
H       -1.51885941      -1.18831921      -0.63194375
H       -2.35464828      -0.72195424       1.17156696
H       -3.20260865      -1.20096319      -0.38789127
H       -1.73434084       1.88150231       0.15565475
H       -0.08354941       0.95902482       1.88087915
H       -0.70912336      -0.61054798       1.00270688
H        1.92449289       1.13681292       0.53650056
H        1.27357666      -1.82584403       0.17672219
H        2.14160854      -1.10965176       1.53841895
H        2.86432173      -1.09193043      -0.07180593
H        1.62607358       0.41427913      -2.05297329
H       -0.70710286       1.57136632      -2.27957984
19
Frame=5 idx=007414 GeodesicLength=0.6832871397758592 rxn_smarts="[C:1]([C@:2]1([H:11])[C:3]([H:12])([H:13])[C@@:4]([C:5]([H:15])([H:16])[H:17])([H:14])[C:6]([H:18])=[C:7]1[H:19])([H:8])([H:9])[H:10]>>[C:1]([H:8])([H:9])([H:10])[H:13].[C:2]1([H:11])=[C:3]([H:12])[C:4]([C:5]([H:15])([H:16])[H:17])([H:14])[C:6]([H:18])=[C:7]1[H:19]"
C       -2.26944468      -0.97249383       0.13261138
C       -0.96993680       1.14862264      -0.09833855
C       -0.10455213       0.53077595       0.87805173
C        1.25535285       0.34593605       0.19427972
C        1.93775234      -0.98600195       0.48164676
C        0.93245981       0.60657077      -1.24753201
C       -0.30416623       1.11350611      -1.38251346
H       -1.56478365      -1.25527635      -0.63853699
H       -2.33728233      -0.84356000       1.20007600
H       -3.22188481      -1.04135421      -0.42584914
H       -1.71493897       1.89068208       0.15810127
H       -0.07787464       0.96266853       1.87854303
H       -0.72857792      -0.63554759       1.00728820
H        1.92417598       1.15155397       0.52909668
H        1.29342354      -1.81772931       0.19086211
H        2.15916336      -1.08572602       1.54617077
H        2.87853094      -1.07480390      -0.06540823
H        1.62601634       0.40899100      -2.05551528
H       -0.71343300       1.55318607      -2.28303400
19
Frame=6 idx=007414 GeodesicLength=0.8207008954049604 rxn_smarts="[C:1]([C@:2]1([H:11])[C:3]([H:12])([H:13])[C@@:4]([C:5]([H:15])([H:16])[H:17])([H:14])[C:6]([H:18])=[C:7]1[H:19])([H:8])([H:9])[H:10]>>[C:1]([H:8])([H:9])([H:10])[H:13].[C:2]1([H:11])=[C:3]([H:12])[C:4]([C:5]([H:15])([H:16])[H:17])([H:14])[C:6]([H:18])=[C:7]1[H:19]"
C       -2.28182385      -0.95165066       0.13180500
C       -0.97389524       1.13622183      -0.09824397
C       -0.09956208       0.53190621       0.87886269
C        1.25974644       0.35435142       0.19379350
C        1.94963954      -0.97224375       0.48903277
C        0.93220880       0.60197306      -1.24968517
C       -0.30792383       1.09713434      -1.38599122
H       -1.62111876      -1.31669386      -0.64698140
H       -2.32017605      -0.96910257       1.20930905
H       -3.22472262      -0.89493698      -0.45025527
H       -1.69459468       1.90206887       0.16019001
H       -0.07102393       0.96908227       1.87706842
H       -0.74959737      -0.65763515       1.01444684
H        1.92550385       1.16538974       0.52162514
H        1.30856090      -1.80898253       0.20543238
H        2.17447549      -1.06303949       1.55367329
H        2.88951941      -1.06069803      -0.05963098
H        1.62519994       0.40287347      -2.05786245
H       -0.72041596       1.53398180      -2.28658863
19
Frame=7 idx=007414 GeodesicLength=0.9583653730688715 rxn_smarts="[C:1]([C@:2]1([H:11])[C:3]([H:12])([H:13])[C@@:4]([C:5]([H:15])([H:16])[H:17])([H:14])[C:6]([H:18])=[C:7]1[H:19])([H:8])([H:9])[H:10]>>[C:1]([H:8])([H:9])([H:10])[H:13].[C:2]1([H:11])=[C:3]([H:12])[C:4]([C:5]([H:15])([H:16])[H:17])([H:14])[C:6]([H:18])=[C:7]1[H:19]"
C       -2.29117602      -0.93223866       0.13274325
C       -0.97676947       1.12642466      -0.09723437
C       -0.09368988       0.53569586       0.88047632
C        1.26446803       0.36324102       0.19364103
C        1.95968372      -0.95910865       0.49659762
C        0.93221055       0.59790463      -1.25135116
C       -0.31065762       1.08303288      -1.38856997
H       -1.68876661      -1.37224463      -0.65804925
H       -2.30210757      -1.09660127       1.19960724
H       -3.21579743      -0.75993895      -0.46207806
H       -1.67384378       1.91449187       0.16178500
H       -0.06291461       0.97829026       1.87626863
H       -0.77188042      -0.67733725       1.02457154
H        1.92845891       1.17867716       0.51409683
H        1.32011993      -1.79960805       0.22063179
H        2.18831856      -1.04111447       1.56117786
H        2.89825008      -1.04896177      -0.05410412
H        1.62414765       0.39630220      -2.05990381
H       -0.72805403       1.51309314      -2.29030637
19
Frame=8 idx=007414 GeodesicLength=1.0961095711082296 rxn_smarts="[C:1]([C@:2]1([H:11])[C:3]([H:12])([H:13])[C@@:4]([C:5]([H:15])([H:16])[H:17])([H:14])[C:6]([H:18])=[C:7]1[H:19])([H:8])([H:9])[H:10]>>[C:1]([H:8])([H:9])([H:10])[H:13].[C:2]1([H:11])=[C:3]([H:12])[C:4]([C:5]([H:15])([H:16])[H:17])([H:14])[C:6]([H:18])=[C:7]1[H:19]"
C       -2.29727336      -0.91545860       0.13545624
C       -0.97879125       1.11840171      -0.09563100
C       -0.08682030       0.54215100       0.88276720
C        1.26968490       0.37260598       0.19378219
C        1.96817158      -0.94650387       0.50458996
C        0.93263678       0.59419680      -1.25259881
C       -0.31219480       1.07113990      -1.39040381
H       -1.76838964      -1.42069288      -0.67258241
H       -2.28121197      -1.22431605       1.17121413
H       -3.19876384      -0.63763430      -0.46121186
H       -1.65339263       1.92690590       0.16261485
H       -0.05344116       0.99078454       1.87579301
H       -0.79527177      -0.69473111       1.03820455
H        1.93313319       1.19152093       0.50638404
H        1.32848108      -1.78962531       0.23681759
H        2.20094524      -1.01968608       1.56895812
H        2.90505017      -1.03952408      -0.04848961
H        1.62296428       0.38878458      -2.06167248
H       -0.73551652       1.49168094      -2.29399192
19
Frame=9 idx=007414 GeodesicLength=1.2337708036566966 rxn_smarts="[C:1]([C@:2]1([H:11])[C:3]([H:12])([H:13])[C@@:4]([C:5]([H:15])([H:16])[H:17])([H:14])[C:6]([H:18])=[C:7]1[H:19])([H:8])([H:9])[H:10]>>[C:1]([H:8])([H:9])([H:10])[H:13].[C:2]1([H:11])=[C:3]([H:12])[C:4]([C:5]([H:15])([H:16])[H:17])([H:14])[C:6]([H:18])=[C:7]1[H:19]"
C       -2.29995620      -0.90289019       0.13963667
C       -0.98020997       1.11100324      -0.09402358
C       -0.07899908       0.55101547       0.88540696
C        1.27552704       0.38243345       0.19422811
C        1.97549149      -0.93421861       0.51338081
C        0.93381337       0.59056940      -1.25346851
C       -0.31219119       1.06118682      -1.39180016
H       -1.86158999      -1.46001359      -0.69220065
H       -2.25477106      -1.35063263       1.12437681
H       -3.17773920      -0.52781341      -0.44547778
H       -1.63395697       1.93800434       0.16210463
H       -0.04292990       1.00667720       1.87512546
H       -0.81945524      -0.71040076       1.05530477
H        1.93937666       1.20411325       0.49854325
H        1.33432863      -1.77902318       0.25431570
H        2.21249999      -0.99836088       1.57742555
H        2.91044355      -1.03201873      -0.04213597
H        1.62213624       0.37999842      -2.06301512
H       -0.74181817       1.47037036      -2.29772695
19
Frame=10 idx=007414 GeodesicLength=1.3713828300533997 rxn_smarts="[C:1]([C@:2]1([H:11])[C:3]([H:12])([H:13])[C@@:4]([C:5]([H:15])([H:16])[H:17])([H:14])[C:6]([H:18])=[C:7]1[H:19])([H:8])([H:9])[H:10]>>[C:1]([H:8])([H:9])([H:10])[H:13].[C:2]1([H:11])=[C:3]([H:12])[C:4]([C:5]([H:15])([H:16])[H:17])([H:14])[C:6]([H:18])=[C:7]1[H:19]"
C       -2.29825311      -0.89598764       0.14341087
C       -0.98121751       1.10366515      -0.09214637
C       -0.07021949       0.56200947       0.88856264
C        1.28200269       0.39265936       0.19504149
C        1.98188828      -0.92220565       0.52303568
C        0.93559248       0.58695026      -1.25387285
C       -0.31100333       1.05271387      -1.39261495
H       -1.96795723      -1.48960559      -0.71694367
H       -2.22178656      -1.47155561       1.05971761
H       -3.15367418      -0.43000700      -0.41575176
H       -1.61606313       1.94717555       0.16064400
H       -0.03136856       1.02578868       1.87436418
H       -0.84470455      -0.72461854       1.07645536
H        1.94711005       1.21648502       0.49056537
H        1.33802132      -1.76786262       0.27331203
H        2.22339283      -0.97702731       1.58662064
H        2.91461777      -1.02630116      -0.03508184
H        1.62135657       0.36969386      -2.06392259
H       -0.74773435       1.44802991      -2.30139583
19
Frame=11 idx=007414 GeodesicLength=1.5088812561885765 rxn_smarts="[C:1]([C@:2]1([H:11])[C:3]([H:12])([H:13])[C@@:4]([C:5]([H:15])([H:16])[H:17])([H:14])[C:6]([H:18])=[C:7]1[H:19])([H:8])([H:9])[H:10]>>[C:1]([H:8])([H:9])([H:10])[H:13].[C:2]1([H:11])=[C:3]([H:12])[C:4]([C:5]([H:15])([H:16])[H:17])([H:14])[C:6]([H:18])=[C:7]1[H:19]"
C       -2.29119133      -0.89521813       0.14405273
C       -0.98184879       1.09641928      -0.08940484
C       -0.06049918       0.57485758       0.89249801
C        1.28898847       0.40319529       0.19623192
C        1.98741032      -0.91048284       0.53342690
C        0.93753464       0.58327418      -1.25370982
C       -0.30932347       1.04508916      -1.39255561
H       -2.08623364      -1.50993124      -0.74447818
H       -2.18162230      -1.58313772       0.97869471
H       -3.12584932      -0.34434226      -0.37531491
H       -1.59987336       1.95450741       0.15902885
H       -0.01865734       1.04761886       1.87383659
H       -0.87171163      -0.73751097       1.10179784
H        1.95618242       1.22858980       0.48233694
H        1.33967294      -1.75621844       0.29384124
H        2.23393654      -0.95568119       1.59634124
H        2.91747228      -1.02233012      -0.02765408
H        1.61991923       0.35764071      -2.06442751
H       -0.75430649       1.42366063      -2.30454200
19
Frame=12 idx=007414 GeodesicLength=1.6460956361330317 rxn_smarts="[C:1]([C@:2]1([H:11])[C:3]([H:12])([H:13])[C@@:4]([C:5]([H:15])([H:16])[H:17])([H:14])[C:6]([H:18])=[C:7]1[H:19])([H:8])([H:9])[H:10]>>[C:1]([H:8])([H:9])([H:10])[H:13].[C:2]1([H:11])=[C:3]([H:12])[C:4]([C:5]([H:15])([H:16])[H:17])([H:14])[C:6]([H:18])=[C:7]1[H:19]"
C       -2.27869744      -0.90032703       0.13953931
C       -0.98215055       1.08922746      -0.08602890
C       -0.05008569       0.58932233       0.89697167
C        1.29636924       0.41397996       0.19776469
C        1.99206147      -0.89898033       0.54475435
C        0.93959999       0.57928732      -1.25304837
C       -0.30734776       1.03762894      -1.39190696
H       -2.21733186      -1.52012126      -0.77126916
H       -2.13075684      -1.68492513       0.88118300
H       -3.09541511      -0.27070919      -0.32420475
H       -1.58542547       1.96015378       0.15702868
H       -0.00527544       1.07163608       1.87341552
H       -0.90111739      -0.74954340       1.13015055
H        1.96632051       1.24046587       0.47383527
H        1.33948762      -1.74412342       0.31606769
H        2.24394600      -0.93418217       1.60681721
H        2.91909248      -1.01996265      -0.01946245
H        1.61785753       0.34350981      -2.06445263
H       -0.76113128       1.39766300      -2.30715470
19
Frame=13 idx=007414 GeodesicLength=1.7830357906695076 rxn_smarts="[C:1]([C@:2]1([H:11])[C:3]([H:12])([H:13])[C@@:4]([C:5]([H:15])([H:16])[H:17])([H:14])[C:6]([H:18])=[C:7]1[H:19])([H:8])([H:9])[H:10]>>[C:1]([H:8])([H:9])([H:10])[H:13].[C:2]1([H:11])=[C:3]([H:12])[C:4]([C:5]([H:15])([H:16])[H:17])([H:14])[C:6]([H:18])=[C:7]1[H:19]"
C       -2.26148209      -0.90952323       0.12777267
C       -0.98199859       1.08265493      -0.08145081
C       -0.03922680       0.60455161       0.90209131
C        1.30393413       0.42488540       0.19962643
C        1.99611693      -0.88764346       0.55662975
C        0.94142374       0.57514787      -1.25181752
C       -0.30588589       1.02933732      -1.39049159
H       -2.35954633      -1.52306713      -0.78865021
H       -2.06961470      -1.77324166       0.76856483
H       -3.06075394      -0.20887874      -0.26924170
H       -1.57201983       1.96512243       0.15545395
H        0.00848363       1.09599135       1.87368951
H       -0.93394479      -0.76201562       1.15915701
H        1.97703288       1.25212107       0.46523942
H        1.33812262      -1.73170194       0.33935798
H        2.25368697      -0.91270762       1.61764047
H        2.91978498      -1.01859880      -0.01088946
H        1.61484752       0.32792339      -2.06395637
H       -0.76896045       1.36964283      -2.30872566
19
Frame=14 idx=007414 GeodesicLength=1.919815589579906 rxn_smarts="[C:1]([C@:2]1([H:11])[C:3]([H:12])([H:13])[C@@:4]([C:5]([H:15])([H:16])[H:17])([H:14])[C:6]([H:18])=[C:7]1[H:19])([H:8])([H:9])[H:10]>>[C:1]([H:8])([H:9])([H:10])[H:13].[C:2]1([H:11])=[C:3]([H:12])[C:4]([C:5]([H:15])([H:16])[H:17])([H:14])[C:6]([H:18])=[C:7]1[H:19]"
C       -2.24180533      -0.91979972       0.10785914
C       -0.98110163       1.07729144      -0.07532978
C       -0.02816795       0.61936220       0.90790700
C        1.31173240       0.43597654       0.20206682
C        2.00035932      -0.87619781       0.56870726
C        0.94333188       0.57164612      -1.24978683
C       -0.30492896       1.02011526      -1.38808837
H       -2.51152034      -1.52088096      -0.78687733
H       -1.99969172      -1.84560481       0.64063083
H       -3.02216732      -0.15674226      -0.21662733
H       -1.55843774       1.97061617       0.15494470
H        0.02198253       1.11808096       1.87549661
H       -0.97054888      -0.77758539       1.18466414
H        1.98783863       1.26384660       0.45749247
H        1.33703370      -1.71900793       0.36260916
H        2.26356404      -0.89150155       1.62856013
H        2.92061768      -1.01697523      -0.00202581
H        1.61149981       0.31235755      -2.06263582
H       -0.77959012       1.33500282      -2.30956699
19
Frame=15 idx=007414 GeodesicLength=2.056688686032611 rxn_smarts="[C:1]([C@:2]1([H:11])[C:3]([H:12])([H:13])[C@@:4]([C:5]([H:15])([H:16])[H:17])([H:14])[C:6]([H:18])=[C:7]1[H:19])([H:8])([H:9])[H:10]>>[C:1]([H:8])([H:9])([H:10])[H:13].[C:2]1([H:11])=[C:3]([H:12])[C:4]([C:5]([H:15])([H:16])[H:17])([H:14])[C:6]([H:18])=[C:7]1[H:19]"
C       -2.22159135      -0.92848153       0.07980211
C       -0.97937145       1.07359268      -0.06722028
C       -0.01696879       0.63302472       0.91448784
C        1.31967761       0.44707386       0.20498766
C        2.00490488      -0.86503441       0.57965449
C        0.94532925       0.56996791      -1.24691680
C       -0.30498942       1.00971426      -1.38441911
H       -2.66673453      -1.52383114      -0.75119846
H       -1.92921082      -1.89755673       0.50512500
H       -2.97777155      -0.11349939      -0.18388420
H       -1.54415516       1.97724578       0.15640432
H        0.03520783       1.13608180       1.87946770
H       -1.01114346      -0.79796597       1.20380731
H        1.99858678       1.27526174       0.45125703
H        1.33655978      -1.70633739       0.38350613
H        2.27345761      -0.87207615       1.63826409
H        2.92182828      -1.01472630       0.00579778
H        1.60847012       0.29996446      -2.06052917
H       -0.79208561       1.29758180      -2.30839345
19
Frame=16 idx=007414 GeodesicLength=2.1930160201039617 rxn_smarts="[C:1]([C@:2]1([H:11])[C:3]([H:12])([H:13])[C@@:4]([C:5]([H:15])([H:16])[H:17])([H:14])[C:6]([H:18])=[C:7]1[H:19])([H:8])([H:9])[H:10]>>[C:1]([H:8])([H:9])([H:10])[H:13].[C:2]1([H:11])=[C:3]([H:12])[C:4]([C:5]([H:15])([H:16])[H:17])([H:14])[C:6]([H:18])=[C:7]1[H:19]"
C       -2.20370951      -0.93392173       0.04549279
C       -0.97694529       1.07102290      -0.05749431
C       -0.00594544       0.64455989       0.92162588
C        1.32768786       0.45807599       0.20839419
C        2.01055565      -0.85378588       0.58962673
C        0.94750664       0.56983577      -1.24334642
C       -0.30542054       0.99928205      -1.37956430
H       -2.82019644      -1.53191545      -0.67155676
H       -1.86273028      -1.93166276       0.36096980
H       -2.93024635      -0.07587172      -0.17910210
H       -1.52900001       1.98461578       0.15994142
H        0.04763332       1.14881272       1.88563800
H       -1.05483904      -0.82625284       1.21353094
H        2.00868972       1.28674716       0.44661489
H        1.33806141      -1.69393303       0.40259752
H        2.28439385      -0.85348939       1.64692156
H        2.92422076      -1.01106380       0.01259445
H        1.60559294       0.28978563      -2.05780210
H       -0.80530927       1.25915871      -2.30508217
