12
Frame=0 idx=004354 GeodesicLength=0.0 rxn_smarts="[O:1]=[C:2]([C@@:3]1([H:8])[C:4]([H:9])([H:10])[C:5]([H:11])([H:12])[O:6]1)[H:7]>>[O:1]1[C:2]([H:7])=[C:3]([H:8])[O:6][C:5]([H:11])([H:12])[C:4]1([H:9])[H:10]"
O        1.41134275      -1.11350987       0.33106183
C        1.48001079       0.09839968       0.56153720
C        0.55261714       1.10827807       0.16708860
C       -0.45616336      -0.72652748      -0.95283496
C       -1.27257589      -0.21070233       0.17481858
O       -0.80851218       1.11603423       0.32995834
H        2.37899864       0.47151321       1.07999281
H        0.93070670       2.12614286       0.18719006
H       -0.35798964      -1.79196164      -1.10688181
H       -0.39659891      -0.10059180      -1.83479291
H       -1.10996827      -0.80241974       1.08406542
H       -2.35186777      -0.17465520      -0.02120315
12
Frame=1 idx=004354 GeodesicLength=0.05491113968065207 rxn_smarts="[O:1]=[C:2]([C@@:3]1([H:8])[C:4]([H:9])([H:10])[C:5]([H:11])([H:12])[O:6]1)[H:7]>>[O:1]1[C:2]([H:7])=[C:3]([H:8])[O:6][C:5]([H:11])([H:12])[C:4]1([H:9])[H:10]"
O        1.42278909      -1.10963814       0.30294449
C        1.48492992       0.10004777       0.55977998
C        0.55098503       1.10039733       0.15989441
C       -0.44037531      -0.71575216      -0.94205753
C       -1.27394574      -0.21107127       0.18124808
O       -0.80637309       1.11231180       0.35789070
H        2.36387649       0.46893892       1.11259455
H        0.93180031       2.11747077       0.14616173
H       -0.35692470      -1.78203237      -1.10233241
H       -0.40367539      -0.10028138      -1.83309336
H       -1.12342749      -0.81086742       1.08708748
H       -2.34965913      -0.16952386      -0.03011814
12
Frame=2 idx=004354 GeodesicLength=0.10986858651452497 rxn_smarts="[O:1]=[C:2]([C@@:3]1([H:8])[C:4]([H:9])([H:10])[C:5]([H:11])([H:12])[O:6]1)[H:7]>>[O:1]1[C:2]([H:7])=[C:3]([H:8])[O:6][C:5]([H:11])([H:12])[C:4]1([H:9])[H:10]"
O        1.43409243      -1.10512385       0.27535637
C        1.48994249       0.10196878       0.55757872
C        0.54914487       1.09278159       0.15323210
C       -0.42491384      -0.70543990      -0.93120449
C       -1.27536244      -0.21115110       0.18730160
O       -0.80371043       1.10833304       0.38535451
H        2.34926118       0.46588888       1.14188890
H        0.93134419       2.10855068       0.10817599
H       -0.35562182      -1.77244400      -1.09686613
H       -0.40937497      -0.10114891      -1.83102138
H       -1.13760157      -0.81894510       1.08964390
H       -2.34720009      -0.16327012      -0.03944008
12
Frame=3 idx=004354 GeodesicLength=0.16489252998473983 rxn_smarts="[O:1]=[C:2]([C@@:3]1([H:8])[C:4]([H:9])([H:10])[C:5]([H:11])([H:12])[O:6]1)[H:7]>>[O:1]1[C:2]([H:7])=[C:3]([H:8])[O:6][C:5]([H:11])([H:12])[C:4]1([H:9])[H:10]"
O        1.44547837      -1.09993438       0.24770134
C        1.49529245       0.10423175       0.55446778
C        0.54720337       1.08545694       0.14680816
C       -0.40985258      -0.69555795      -0.92035032
C       -1.27667394      -0.21097840       0.19312849
O       -0.80042503       1.10409960       0.41244811
H        2.33419289       0.46210312       1.16978535
H        0.92959809       2.09953963       0.07226714
H       -0.35416523      -1.76318480      -1.09062840
H       -0.41417515      -0.10307360      -1.82866814
H       -1.15209886      -0.82669867       1.09181063
H       -2.34437439      -0.15600324      -0.04877014
12
Frame=4 idx=004354 GeodesicLength=0.219934803953563 rxn_smarts="[O:1]=[C:2]([C@@:3]1([H:8])[C:4]([H:9])([H:10])[C:5]([H:11])([H:12])[O:6]1)[H:7]>>[O:1]1[C:2]([H:7])=[C:3]([H:8])[O:6][C:5]([H:11])([H:12])[C:4]1([H:9])[H:10]"
O        1.45665800      -1.09416074       0.22059395
C        1.50062980       0.10674198       0.55123302
C        0.54501741       1.07832933       0.14099705
C       -0.39507485      -0.68611377      -0.90939964
C       -1.27811848      -0.21057146       0.19857838
O       -0.79674443       1.09953324       0.43922942
H        2.32008095       0.45792183       1.19444706
H        0.92650243       2.09047593       0.03895745
H       -0.35242898      -1.75428696      -1.08353633
H       -0.41770634      -0.10600333      -1.82598179
H       -1.16745712      -0.83416010       1.09343857
H       -2.34135839      -0.14770594      -0.05855715
12
Frame=5 idx=004354 GeodesicLength=0.2750070825927231 rxn_smarts="[O:1]=[C:2]([C@@:3]1([H:8])[C:4]([H:9])([H:10])[C:5]([H:11])([H:12])[O:6]1)[H:7]>>[O:1]1[C:2]([H:7])=[C:3]([H:8])[O:6][C:5]([H:11])([H:12])[C:4]1([H:9])[H:10]"
O        1.46783460      -1.08782354       0.19358971
C        1.50615649       0.10951852       0.54748697
C        0.54268853       1.07141708       0.13556100
C       -0.38063288      -0.67707069      -0.89840505
C       -1.27957202      -0.20994895       0.20377731
O       -0.79258949       1.09461257       0.46577920
H        2.30611692       0.45318322       1.21730822
H        0.92223387       2.08150833       0.00754601
H       -0.35048044      -1.74575743      -1.07569600
H       -0.42034131      -0.10985489      -1.82305733
H       -1.18340419      -0.84135164       1.09461445
H       -2.33801009      -0.13843259      -0.06850449
12
Frame=6 idx=004354 GeodesicLength=0.330236742196267 rxn_smarts="[O:1]=[C:2]([C@@:3]1([H:8])[C:4]([H:9])([H:10])[C:5]([H:11])([H:12])[O:6]1)[H:7]>>[O:1]1[C:2]([H:7])=[C:3]([H:8])[O:6][C:5]([H:11])([H:12])[C:4]1([H:9])[H:10]"
O        1.47905614      -1.08078112       0.16636537
C        1.51192534       0.11267519       0.54307339
C        0.54022257       1.06473055       0.13037914
C       -0.36649410      -0.66841814      -0.88738460
C       -1.28096362      -0.20912064       0.20879739
O       -0.78790490       1.08937621       0.49213169
H        2.29185325       0.44764820       1.23915723
H        0.91689970       2.07250784      -0.02246582
H       -0.34828750      -1.73754758      -1.06711186
H       -0.42223224      -0.11453453      -1.81988925
H       -1.19974532      -0.84828827       1.09537047
H       -2.33432931      -0.12824771      -0.07842315
12
Frame=7 idx=004354 GeodesicLength=0.3854842029432445 rxn_smarts="[O:1]=[C:2]([C@@:3]1([H:8])[C:4]([H:9])([H:10])[C:5]([H:11])([H:12])[O:6]1)[H:7]>>[O:1]1[C:2]([H:7])=[C:3]([H:8])[O:6][C:5]([H:11])([H:12])[C:4]1([H:9])[H:10]"
O        1.49014936      -1.07323853       0.13945279
C        1.51771763       0.11602627       0.53853889
C        0.53756025       1.05818768       0.12571800
C       -0.35261304      -0.66015396      -0.87626322
C       -1.28247240      -0.20810362       0.21351235
O       -0.78286361       1.08369150       0.51836225
H        2.27839142       0.44173300       1.25862199
H        0.91041952       2.06371250      -0.05060455
H       -0.34581546      -1.72973153      -1.05774542
H       -0.42318168      -0.12004900      -1.81646354
H       -1.21695343      -0.85499108       1.09556614
H       -2.33033855      -0.11708324      -0.08869567
12
Frame=8 idx=004354 GeodesicLength=0.4408216469569197 rxn_smarts="[O:1]=[C:2]([C@@:3]1([H:8])[C:4]([H:9])([H:10])[C:5]([H:11])([H:12])[O:6]1)[H:7]>>[O:1]1[C:2]([H:7])=[C:3]([H:8])[O:6][C:5]([H:11])([H:12])[C:4]1([H:9])[H:10]"
O        1.50123290      -1.06504115       0.11251130
C        1.52364142       0.11972800       0.53366610
C        0.53472373       1.05181651       0.12142779
C       -0.33898403      -0.65227425      -0.86507884
C       -1.28403680      -0.20689024       0.21800309
O       -0.77739442       1.07760162       0.54446121
H        2.26523339       0.43516480       1.27662299
H        0.90288902       2.05499028      -0.07730887
H       -0.34304605      -1.72231817      -1.04762576
H       -0.42337456      -0.12635300      -1.81285562
H       -1.23480403      -0.86144407       1.09523649
H       -2.32608058      -0.10498032      -0.09905988
12
Frame=9 idx=004354 GeodesicLength=0.4962054089620093 rxn_smarts="[O:1]=[C:2]([C@@:3]1([H:8])[C:4]([H:9])([H:10])[C:5]([H:11])([H:12])[O:6]1)[H:7]>>[O:1]1[C:2]([H:7])=[C:3]([H:8])[O:6][C:5]([H:11])([H:12])[C:4]1([H:9])[H:10]"
O        1.51234851      -1.05622317       0.08547225
C        1.52971510       0.12371837       0.52842374
C        0.53175504       1.04560186       0.11747688
C       -0.32560752      -0.64475687      -0.85381508
C       -1.28562130      -0.20548754       0.22227657
O       -0.77150645       1.07103382       0.57048386
H        2.25225712       0.42791769       1.29331212
H        0.89430882       2.04652827      -0.10268712
H       -0.33999007      -1.71531525      -1.03672811
H       -0.42294256      -0.13347261      -1.80903649
H       -1.25332112      -0.86760844       1.09438132
H       -2.32139559      -0.09193614      -0.10955993
12
Frame=10 idx=004354 GeodesicLength=0.5517347466585532 rxn_smarts="[O:1]=[C:2]([C@@:3]1([H:8])[C:4]([H:9])([H:10])[C:5]([H:11])([H:12])[O:6]1)[H:7]>>[O:1]1[C:2]([H:7])=[C:3]([H:8])[O:6][C:5]([H:11])([H:12])[C:4]1([H:9])[H:10]"
O        1.52353428      -1.04669819       0.05801777
C        1.53599594       0.12805718       0.52268212
C        0.52865845       1.03958419       0.11384481
C       -0.31246488      -0.63758491      -0.84247229
C       -1.28719047      -0.20390835       0.22637896
O       -0.76519984       1.06400770       0.59651788
H        2.23904802       0.42000324       1.30927624
H        0.88491604       2.03801090      -0.12720816
H       -0.33664975      -1.70861797      -1.02504035
H       -0.42198881      -0.14127897      -1.80488885
H       -1.27238160      -0.87352216       1.09298464
H       -2.31627737      -0.07805265      -0.12009277
12
Frame=11 idx=004354 GeodesicLength=0.6072837990757893 rxn_smarts="[O:1]=[C:2]([C@@:3]1([H:8])[C:4]([H:9])([H:10])[C:5]([H:11])([H:12])[O:6]1)[H:7]>>[O:1]1[C:2]([H:7])=[C:3]([H:8])[O:6][C:5]([H:11])([H:12])[C:4]1([H:9])[H:10]"
O        1.53468204      -1.03651366       0.03068759
C        1.54229587       0.13271433       0.51689357
C        0.52537025       1.03367082       0.11067173
C       -0.29951307      -0.63076842      -0.83101342
C       -1.28890054      -0.20213426       0.23022082
O       -0.75854770       1.05640370       0.62247382
H        2.22666527       0.41143587       1.32340328
H        0.87439251       2.02981892      -0.15027388
H       -0.33292245      -1.70245324      -1.01255016
H       -0.42034621      -0.14991841      -1.80064783
H       -1.29237174      -0.87910362       1.09096209
H       -2.31080423      -0.06315202      -0.13082762
12
Frame=12 idx=004354 GeodesicLength=0.663109767455534 rxn_smarts="[O:1]=[C:2]([C@@:3]1([H:8])[C:4]([H:9])([H:10])[C:5]([H:11])([H:12])[O:6]1)[H:7]>>[O:1]1[C:2]([H:7])=[C:3]([H:8])[O:6][C:5]([H:11])([H:12])[C:4]1([H:9])[H:10]"
O        1.54579311      -1.02561180       0.00292596
C        1.54871963       0.13771925       0.51064504
C        0.52195192       1.02788232       0.10783555
C       -0.28672094      -0.62432731      -0.81943733
C       -1.29061533      -0.20018084       0.23387707
O       -0.75146206       1.04828247       0.64844990
H        2.21416822       0.40229318       1.33664705
H        0.86304643       2.02152954      -0.17242091
H       -0.32882552      -1.69660009      -0.99918013
H       -0.41817043      -0.15921351      -1.79605499
H       -1.31301198      -0.88439561       1.08834417
H       -2.30487304      -0.04737759      -0.14163140
12
Frame=13 idx=004354 GeodesicLength=0.7189649566999147 rxn_smarts="[O:1]=[C:2]([C@@:3]1([H:8])[C:4]([H:9])([H:10])[C:5]([H:11])([H:12])[O:6]1)[H:7]>>[O:1]1[C:2]([H:7])=[C:3]([H:8])[O:6][C:5]([H:11])([H:12])[C:4]1([H:9])[H:10]"
O        1.55686351      -1.01403338      -0.02491992
C        1.55520194       0.14301096       0.50424118
C        0.51835789       1.02221066       0.10540664
C       -0.27410103      -0.61823045      -0.80771204
C       -1.29244465      -0.19804209       0.23726597
O       -0.74406821       1.03954917       0.67440852
H        2.20232314       0.39250579       1.34844422
H        0.85068584       2.01352702      -0.19337340
H       -0.32434149      -1.69119166      -0.98491511
H       -0.41546269      -0.16931368      -1.79121430
H       -1.33452376      -0.88932322       1.08502313
H       -2.29849049      -0.03066911      -0.15265489
12
Frame=14 idx=004354 GeodesicLength=0.7748937399273895 rxn_smarts="[O:1]=[C:2]([C@@:3]1([H:8])[C:4]([H:9])([H:10])[C:5]([H:11])([H:12])[O:6]1)[H:7]>>[O:1]1[C:2]([H:7])=[C:3]([H:8])[O:6][C:5]([H:11])([H:12])[C:4]1([H:9])[H:10]"
O        1.56781495      -1.00178683      -0.05283733
C        1.56170519       0.14860416       0.49768600
C        0.51458633       1.01662115       0.10340677
C       -0.26162921      -0.61248486      -0.79585715
C       -1.29439524      -0.19571401       0.24038869
O       -0.73636353       1.03017426       0.70033468
H        2.19116219       0.38221149       1.35878702
H        0.83736343       2.00568171      -0.21311419
H       -0.31944891      -1.68624157      -0.96977506
H       -0.41221935      -0.18017553      -1.78615266
H       -1.35692429      -0.89385480       1.08097663
H       -2.29165157      -0.01303517      -0.16384342
12
Frame=15 idx=004354 GeodesicLength=0.8308863569265877 rxn_smarts="[O:1]=[C:2]([C@@:3]1([H:8])[C:4]([H:9])([H:10])[C:5]([H:11])([H:12])[O:6]1)[H:7]>>[O:1]1[C:2]([H:7])=[C:3]([H:8])[O:6][C:5]([H:11])([H:12])[C:4]1([H:9])[H:10]"
O        1.57858316      -0.98890267      -0.08078518
C        1.56820268       0.15447225       0.49100359
C        0.51063207       1.01109248       0.10185210
C       -0.24929801      -0.60708520      -0.78386408
C       -1.29648546      -0.19320393       0.24321919
O       -0.72838958       1.02011390       0.72622300
H        2.18083617       0.37151456       1.36763384
H        0.82311463       1.99798323      -0.23162567
H       -0.31414582      -1.68173033      -0.95374473
H       -0.40846889      -0.19178837      -1.78083501
H       -1.38024359      -0.89795966       1.07614140
H       -2.28433735       0.00549375      -0.17521847
12
Frame=16 idx=004354 GeodesicLength=0.886929518541352 rxn_smarts="[O:1]=[C:2]([C@@:3]1([H:8])[C:4]([H:9])([H:10])[C:5]([H:11])([H:12])[O:6]1)[H:7]>>[O:1]1[C:2]([H:7])=[C:3]([H:8])[O:6][C:5]([H:11])([H:12])[C:4]1([H:9])[H:10]"
O        1.58910326      -0.97541913      -0.10871921
C        1.57466996       0.16059422       0.48420954
C        0.50649705       1.00560442       0.10075142
C       -0.23710209      -0.60202282      -0.77173655
C       -1.29872405      -0.19051781       0.24574021
O       -0.72018145       1.00933413       0.75204901
H        2.17144432       0.36051327       1.37497548
H        0.80798278       1.99041879      -0.24888996
H       -0.30842983      -1.67764421      -0.93682970
H       -0.40425149      -0.20413729      -1.77525019
H       -1.40448156      -0.90160016       1.07047222
H       -2.27652690       0.02487660      -0.18677228
