14
Frame=0 idx=003755 GeodesicLength=0.0 rxn_smarts="[C:1]([C@@:2]1([H:10])[O:3][C@@:4]2([H:11])[C:5]([H:12])([H:13])[C@@:6]12[H:14])([H:7])([H:8])[H:9]>>[C:1]([C@@:6]1([H:14])[C:2]([H:10])=[O+:3][C-:4]([H:11])[C:5]1([H:12])[H:13])([H:7])([H:8])[H:9]"
C       -1.35181242      -0.72907891       0.03609382
C       -0.62362694       0.81366763      -0.51885364
O       -0.11244517       1.61133223       0.37753026
C        1.29152737       1.21681116       0.49870525
C        1.32036091      -0.26205945       0.28698829
C        0.29065722      -0.23110421      -0.82006181
H       -1.79028689      -0.29739878       0.93261814
H       -0.80896652      -1.62345939       0.35677775
H       -2.11043735      -0.97324359      -0.70056074
H       -1.38604637       1.21645221      -1.17295970
H        1.70630955       1.65514656       1.40093354
H        2.29455086      -0.60416556      -0.06389193
H        1.01277672      -0.96668724       1.10914409
H        0.26743907      -0.82621261      -1.72246331
14
Frame=1 idx=003755 GeodesicLength=0.05325089889373317 rxn_smarts="[C:1]([C@@:2]1([H:10])[O:3][C@@:4]2([H:11])[C:5]([H:12])([H:13])[C@@:6]12[H:14])([H:7])([H:8])[H:9]>>[C:1]([C@@:6]1([H:14])[C:2]([H:10])=[O+:3][C-:4]([H:11])[C:5]1([H:12])[H:13])([H:7])([H:8])[H:9]"
C       -1.35608729      -0.73447640       0.03431517
C       -0.62983378       0.81721104      -0.51355296
O       -0.11358149       1.60806441       0.39169141
C        1.28362335       1.21003588       0.49070583
C        1.32075283      -0.26896407       0.29502191
C        0.29198866      -0.22679224      -0.81135639
H       -1.80362902      -0.30914945       0.92988402
H       -0.82285289      -1.63291992       0.35937481
H       -2.10928034      -0.97869008      -0.70841504
H       -1.38354176       1.22834842      -1.17214977
H        1.72816677       1.66868306       1.36786722
H        2.29459235      -0.60714967      -0.06119373
H        1.01499847      -0.96587098       1.12074003
H        0.28468414      -0.80832999      -1.72293249
14
Frame=2 idx=003755 GeodesicLength=0.10649104063801795 rxn_smarts="[C:1]([C@@:2]1([H:10])[O:3][C@@:4]2([H:11])[C:5]([H:12])([H:13])[C@@:6]12[H:14])([H:7])([H:8])[H:9]>>[C:1]([C@@:6]1([H:14])[C:2]([H:10])=[O+:3][C-:4]([H:11])[C:5]1([H:12])[H:13])([H:7])([H:8])[H:9]"
C       -1.36028970      -0.73979685       0.03266772
C       -0.63592818       0.82073621      -0.50833181
O       -0.11452914       1.60479672       0.40562175
C        1.27549344       1.20301592       0.48357302
C        1.32123253      -0.27580855       0.30294613
C        0.29329813      -0.22265886      -0.80262629
H       -1.81688111      -0.32065693       0.92708090
H       -0.83698735      -1.64235378       0.36210663
H       -2.10805579      -0.98401314      -0.71606592
H       -1.38072188       1.24033506      -1.17134659
H        1.74901609       1.68169498       1.33400169
H        2.29476401      -0.60976424      -0.05867585
H        1.01762028      -0.96524540       1.13208607
H        0.30196867      -0.79028114      -1.72303747
14
Frame=3 idx=003755 GeodesicLength=0.15974144179416305 rxn_smarts="[C:1]([C@@:2]1([H:10])[O:3][C@@:4]2([H:11])[C:5]([H:12])([H:13])[C@@:6]12[H:14])([H:7])([H:8])[H:9]>>[C:1]([C@@:6]1([H:14])[C:2]([H:10])=[O+:3][C-:4]([H:11])[C:5]1([H:12])[H:13])([H:7])([H:8])[H:9]"
C       -1.36442937      -0.74506593       0.03112867
C       -0.64191357       0.82424226      -0.50314776
O       -0.11531499       1.60150007       0.41940274
C        1.26716155       1.19576871       0.47729037
C        1.32178723      -0.28260250       0.31079202
C        0.29458722      -0.21869205      -0.79385179
H       -1.83010395      -0.33197139       0.92416958
H       -0.85139037      -1.65177938       0.36494691
H       -2.10674262      -0.98923706      -0.72356631
H       -1.37757086       1.25243062      -1.17050064
H        1.76896755       1.69425492       1.29917179
H        2.29504447      -0.61204204      -0.05628648
H        1.02060457      -0.96479817       1.14322449
H        0.31931315      -0.77200806      -1.72277357
14
Frame=4 idx=003755 GeodesicLength=0.2129830192689072 rxn_smarts="[C:1]([C@@:2]1([H:10])[O:3][C@@:4]2([H:11])[C:5]([H:12])([H:13])[C@@:6]12[H:14])([H:7])([H:8])[H:9]>>[C:1]([C@@:6]1([H:14])[C:2]([H:10])=[O+:3][C-:4]([H:11])[C:5]1([H:12])[H:13])([H:7])([H:8])[H:9]"
C       -1.36849646      -0.75027440       0.02970478
C       -0.64777922       0.82773736      -0.49801717
O       -0.11595168       1.59818721       0.43302639
C        1.25864648       1.18830574       0.47186966
C        1.32242633      -0.28935056       0.31854974
C        0.29586868      -0.21488250      -0.78504597
H       -1.84326855      -0.34307479       0.92116469
H       -0.86606048      -1.66118811       0.36788486
H       -2.10534692      -0.99434349      -0.73089677
H       -1.37407939       1.26462994      -1.16962412
H        1.78792452       1.70632287       1.26340032
H        2.29544245      -0.61397741      -0.05403406
H        1.02396242      -0.96455027       1.15413733
H        0.33671183      -0.75354159      -1.72211968
14
Frame=5 idx=003755 GeodesicLength=0.26623699799181233 rxn_smarts="[C:1]([C@@:2]1([H:10])[O:3][C@@:4]2([H:11])[C:5]([H:12])([H:13])[C@@:6]12[H:14])([H:7])([H:8])[H:9]>>[C:1]([C@@:6]1([H:14])[C:2]([H:10])=[O+:3][C-:4]([H:11])[C:5]1([H:12])[H:13])([H:7])([H:8])[H:9]"
C       -1.37250217      -0.75544435       0.02837354
C       -0.65353315       0.83122339      -0.49289826
O       -0.11646769       1.59483205       0.44657736
C        1.24996966       1.18064081       0.46730862
C        1.32314465      -0.29606449       0.32625730
C        0.29714805      -0.21121954      -0.77619024
H       -1.85643141      -0.35401373       0.91803586
H       -0.88101663      -1.67060217       0.37088439
H       -2.10385562      -0.99934502      -0.73811253
H       -1.37024107       1.27695674      -1.16867003
H        1.80597889       1.71796447       1.22649417
H        2.29595137      -0.61560499      -0.05186124
H        1.02766619      -0.96449435       1.16487475
H        0.35418894      -0.73482882      -1.72107368
14
Frame=6 idx=003755 GeodesicLength=0.31952296063428726 rxn_smarts="[C:1]([C@@:2]1([H:10])[O:3][C@@:4]2([H:11])[C:5]([H:12])([H:13])[C@@:6]12[H:14])([H:7])([H:8])[H:9]>>[C:1]([C@@:6]1([H:14])[C:2]([H:10])=[O+:3][C-:4]([H:11])[C:5]1([H:12])[H:13])([H:7])([H:8])[H:9]"
C       -1.37644979      -0.76059528       0.02711636
C       -0.65917512       0.83470442      -0.48774957
O       -0.11688319       1.59141004       0.46013308
C        1.24114637       1.17278372       0.46361663
C        1.32393168      -0.30275553       0.33395081
C        0.29843156      -0.20768956      -0.76726335
H       -1.86963526      -0.36483027       0.91475073
H       -0.89627612      -1.68004056       0.37391442
H       -2.10224380      -1.00425021      -0.74526091
H       -1.36603748       1.28943598      -1.16758704
H        1.82318200       1.72922703       1.18823792
H        2.29655489      -0.61695333      -0.04971465
H        1.03168567      -0.96463283       1.17547674
H        0.37176860      -0.71581362      -1.71962118
14
Frame=7 idx=003755 GeodesicLength=0.37286117676533276 rxn_smarts="[C:1]([C@@:2]1([H:10])[O:3][C@@:4]2([H:11])[C:5]([H:12])([H:13])[C@@:6]12[H:14])([H:7])([H:8])[H:9]>>[C:1]([C@@:6]1([H:14])[C:2]([H:10])=[O+:3][C-:4]([H:11])[C:5]1([H:12])[H:13])([H:7])([H:8])[H:9]"
C       -1.38034547      -0.76574426       0.02591047
C       -0.66470163       0.83818369      -0.48252052
O       -0.11721532       1.58788397       0.47378815
C        1.23219635       1.16472946       0.46082294
C        1.32478207      -0.30944183       0.34167152
C        0.29972921      -0.20428010      -0.75823831
H       -1.88292832      -0.37556478       0.91127008
H       -0.91186166      -1.68952085       0.37693590
H       -2.10049170      -1.00905615      -0.75239372
H       -1.36144410       1.30209950      -1.16631071
H        1.83955613       1.74018392       1.14835773
H        2.29724685      -0.61804980      -0.04753718
H        1.03599435      -0.96498147       1.18597974
H        0.38948322      -0.69644131      -1.71773607
14
Frame=8 idx=003755 GeodesicLength=0.4262271401009189 rxn_smarts="[C:1]([C@@:2]1([H:10])[O:3][C@@:4]2([H:11])[C:5]([H:12])([H:13])[C@@:6]12[H:14])([H:7])([H:8])[H:9]>>[C:1]([C@@:6]1([H:14])[C:2]([H:10])=[O+:3][C-:4]([H:11])[C:5]1([H:12])[H:13])([H:7])([H:8])[H:9]"
C       -1.38417269      -0.77087556       0.02476495
C       -0.67009652       0.84166774      -0.47722238
O       -0.11746649       1.58426803       0.48752269
C        1.22313853       1.15650145       0.45893355
C        1.32570397      -0.31611029       0.34941270
C        0.30106004      -0.20097370      -0.74911964
H       -1.89627978      -0.38619626       0.90759859
H       -0.92776580      -1.69902024       0.37993203
H       -2.09858914      -1.01374833      -0.75948633
H       -1.35644936       1.31493226      -1.16483592
H        1.85495606       1.75068506       1.10683576
H        2.29803715      -0.61887189      -0.04532475
H        1.04060078      -0.96553138       1.19637131
H        0.40732326      -0.67672689      -1.71538256
14
Frame=9 idx=003755 GeodesicLength=0.47964663131860585 rxn_smarts="[C:1]([C@@:2]1([H:10])[O:3][C@@:4]2([H:11])[C:5]([H:12])([H:13])[C@@:6]12[H:14])([H:7])([H:8])[H:9]>>[C:1]([C@@:6]1([H:14])[C:2]([H:10])=[O+:3][C-:4]([H:11])[C:5]1([H:12])[H:13])([H:7])([H:8])[H:9]"
C       -1.38793696      -0.77601147       0.02365182
C       -0.67536969       0.84518212      -0.47180520
O       -0.11765721       1.58055929       0.50145100
C        1.21399407       1.14811464       0.45800551
C        1.32670548      -0.32278845       0.35723397
C        0.30242996      -0.19776170      -0.73988557
H       -1.90974055      -0.39675811       0.90369904
H       -0.94399991      -1.70858085       0.38286513
H       -2.09651823      -1.01833412      -0.76661870
H       -1.35105573       1.32800190      -1.16310944
H        1.86939926       1.76079777       1.06335552
H        2.29893516      -0.61946899      -0.04300634
H        1.04550618      -0.96631969       1.20671807
H        0.42530817      -0.65663234      -1.71255480
14
Frame=10 idx=003755 GeodesicLength=0.5331522214039088 rxn_smarts="[C:1]([C@@:2]1([H:10])[O:3][C@@:4]2([H:11])[C:5]([H:12])([H:13])[C@@:6]12[H:14])([H:7])([H:8])[H:9]>>[C:1]([C@@:6]1([H:14])[C:2]([H:10])=[O+:3][C-:4]([H:11])[C:5]1([H:12])[H:13])([H:7])([H:8])[H:9]"
C       -1.39163523      -0.78115202       0.02255264
C       -0.68048053       0.84870835      -0.46618760
O       -0.11778860       1.57665815       0.51568074
C        1.20478320       1.13952962       0.45808332
C        1.32776545      -0.32948054       0.36517261
C        0.30387123      -0.19461481      -0.73047973
H       -1.92335549      -0.40730206       0.89951787
H       -0.96060742      -1.71818313       0.38567186
H       -2.09423046      -1.02277111      -0.77381434
H       -1.34516147       1.34131736      -1.16101286
H        1.88276750       1.77054358       1.01748000
H        2.29991975      -0.61983054      -0.04052355
H        1.05064264      -0.96735293       1.21702114
H        0.44350944      -0.63606991      -1.70916209
14
Frame=11 idx=003755 GeodesicLength=0.5867235322366208 rxn_smarts="[C:1]([C@@:2]1([H:10])[O:3][C@@:4]2([H:11])[C:5]([H:12])([H:13])[C@@:6]12[H:14])([H:7])([H:8])[H:9]>>[C:1]([C@@:6]1([H:14])[C:2]([H:10])=[O+:3][C-:4]([H:11])[C:5]1([H:12])[H:13])([H:7])([H:8])[H:9]"
C       -1.39522517      -0.78628164       0.02148867
C       -0.68542258       0.85228063      -0.46041345
O       -0.11784985       1.57263969       0.53014732
C        1.19553229       1.13081987       0.45913995
C        1.32889696      -0.33616404       0.37322313
C        0.30539288      -0.19151265      -0.72092840
H       -1.93704998      -0.41778402       0.89507635
H       -0.97753952      -1.72781911       0.38836788
H       -2.09169824      -1.02705954      -0.78104574
H       -1.33879847       1.35488700      -1.15857941
H        1.89483658       1.77961069       0.96929878
H        2.30099395      -0.61994504      -0.03787006
H        1.05605106      -0.96861194       1.22730174
H        0.46188009      -0.61505992      -1.70520674
14
Frame=12 idx=003755 GeodesicLength=0.6403790451230658 rxn_smarts="[C:1]([C@@:2]1([H:10])[O:3][C@@:4]2([H:11])[C:5]([H:12])([H:13])[C@@:6]12[H:14])([H:7])([H:8])[H:9]>>[C:1]([C@@:6]1([H:14])[C:2]([H:10])=[O+:3][C-:4]([H:11])[C:5]1([H:12])[H:13])([H:7])([H:8])[H:9]"
C       -1.39870800      -0.79139035       0.02044888
C       -0.69017754       0.85590771      -0.45444185
O       -0.11782811       1.56846688       0.54493481
C        1.18631158       1.12199653       0.46117583
C        1.33013157      -0.34284489       0.38140213
C        0.30702236      -0.18845069      -0.71121576
H       -1.95084840      -0.42819463       0.89035290
H       -0.99481587      -1.73747718       0.39091711
H       -2.08892036      -1.03117023      -0.78833490
H       -1.33192393       1.36874826      -1.15574940
H        1.90535924       1.78795640       0.91861287
H        2.30219654      -0.61984180      -0.03502383
H        1.06174733      -0.97009489       1.23757160
H        0.48045359      -0.59361110      -1.70065041
14
Frame=13 idx=003755 GeodesicLength=0.6941169131427454 rxn_smarts="[C:1]([C@@:2]1([H:10])[O:3][C@@:4]2([H:11])[C:5]([H:12])([H:13])[C@@:6]12[H:14])([H:7])([H:8])[H:9]>>[C:1]([C@@:6]1([H:14])[C:2]([H:10])=[O+:3][C-:4]([H:11])[C:5]1([H:12])[H:13])([H:7])([H:8])[H:9]"
C       -1.40205322      -0.79645537       0.01946080
C       -0.69473030       0.85960695      -0.44831428
O       -0.11768861       1.56418162       0.55996931
C        1.17719023       1.11313471       0.46407989
C        1.33149618      -0.34948381       0.38967465
C        0.30877327      -0.18541790      -0.70137137
H       -1.96469617      -0.43847984       0.88536502
H       -1.01240551      -1.74712464       0.39333944
H       -2.08588521      -1.03510072      -0.79563174
H       -1.32454890       1.38289029      -1.15254424
H        1.91403323       1.79525704       0.86564908
H        2.30354455      -0.61950749      -0.03201348
H        1.06777426      -0.97173625       1.24782375
H        0.49919621      -0.57176459      -1.69548683
14
Frame=14 idx=003755 GeodesicLength=0.7479454516886516 rxn_smarts="[C:1]([C@@:2]1([H:10])[O:3][C@@:4]2([H:11])[C:5]([H:12])([H:13])[C@@:6]12[H:14])([H:7])([H:8])[H:9]>>[C:1]([C@@:6]1([H:14])[C:2]([H:10])=[O+:3][C-:4]([H:11])[C:5]1([H:12])[H:13])([H:7])([H:8])[H:9]"
C       -1.40522642      -0.80144405       0.01856607
C       -0.69905925       0.86338212      -0.44209788
O       -0.11738205       1.55980764       0.57513859
C        1.16825074       1.10431074       0.46764377
C        1.33302013      -0.35603149       0.39796238
C        0.31065459      -0.18241764      -0.69145018
H       -1.97851787      -0.44856129       0.88015073
H       -1.03027615      -1.75670500       0.39568044
H       -2.08258982      -1.03884307      -0.80285007
H       -1.31667059       1.39728162      -1.14901258
H        1.92051010       1.80120054       0.81089677
H        2.30505023      -0.61892997      -0.02892059
H        1.07418156      -0.97343663       1.25802046
H        0.51805479      -0.54961351      -1.68972790
14
Frame=15 idx=003755 GeodesicLength=0.8018677880814977 rxn_smarts="[C:1]([C@@:2]1([H:10])[O:3][C@@:4]2([H:11])[C:5]([H:12])([H:13])[C@@:6]12[H:14])([H:7])([H:8])[H:9]>>[C:1]([C@@:6]1([H:14])[C:2]([H:10])=[O+:3][C-:4]([H:11])[C:5]1([H:12])[H:13])([H:7])([H:8])[H:9]"
C       -1.40820089      -0.80632450       0.01782375
C       -0.70315788       0.86722843      -0.43591062
O       -0.11684572       1.55539448       0.59025087
C        1.15958961       1.09562803       0.47153974
C        1.33474433      -0.36242071       0.40613776
C        0.31265824      -0.17947488      -0.68154831
H       -1.99222700      -0.45833300       0.87477216
H       -1.04839068      -1.76615274       0.39802582
H       -2.07906323      -1.04241746      -0.80986827
H       -1.30832625       1.41185836      -1.14526044
H        1.92450593       1.80546858       0.75525424
H        2.30673185      -0.61809729      -0.02588696
H        1.08104804      -0.97504509       1.26810269
H        0.53693365      -0.52731222      -1.68343242
14
Frame=16 idx=003755 GeodesicLength=0.8558793897315486 rxn_smarts="[C:1]([C@@:2]1([H:10])[O:3][C@@:4]2([H:11])[C:5]([H:12])([H:13])[C@@:6]12[H:14])([H:7])([H:8])[H:9]>>[C:1]([C@@:6]1([H:14])[C:2]([H:10])=[O+:3][C-:4]([H:11])[C:5]1([H:12])[H:13])([H:7])([H:8])[H:9]"
C       -1.41096085      -0.81107301       0.01730261
C       -0.70703503       0.87112873      -0.42990736
O       -0.11601926       1.55100462       0.60505847
C        1.15128625       1.08719022       0.47536739
C        1.33670550      -0.36857969       0.41403857
C        0.31475801      -0.17663186      -0.67179205
H       -2.00573636      -0.46768199       0.86930762
H       -1.06671561      -1.77540150       0.40048976
H       -2.07535796      -1.04587085      -0.81654413
H       -1.29958384       1.42652538      -1.14143972
H        1.92589868       1.80782938       0.69992711
H        2.30859910      -0.61699538      -0.02309920
H        1.08845883      -0.97638584       1.27799170
H        0.55570254      -0.50505819      -1.67670076
