15
Frame=0 idx=008842 GeodesicLength=0.0 rxn_smarts="[C:1]([C@@:2]1([C:3]([C:4]#[N:5])([H:11])[H:12])[C:6]([H:13])([H:14])[N:7]1[H:15])([H:8])([H:9])[H:10]>>[C:1]([C@:2]([C:3]([C:4]#[N:5])([H:11])[H:12])([N:7]([C:6][H:14])[H:15])[H:13])([H:8])([H:9])[H:10]"
C       -1.03645314       1.11595359      -0.14186525
C       -0.23967329      -0.16144104       0.03542759
C        1.18750648      -0.13114917      -0.49639867
C        2.03639872       0.81648685       0.22219299
N        2.67780814       1.57153922       0.79969268
C       -0.81272652      -1.68604388       0.94316491
N       -0.94355792      -1.35572049      -0.43600900
H       -0.49574067       1.97290982       0.26056517
H       -1.22330247       1.28815188      -1.20435751
H       -1.99262031       1.03802209       0.37630895
H        1.16344380       0.14790472      -1.55258065
H        1.62774023      -1.12663976      -0.43371631
H       -0.24676899      -0.28080034       1.20843302
H        0.20611802      -2.10681936       1.04145809
H       -1.90817209      -1.10235407      -0.62231595
15
Frame=1 idx=008842 GeodesicLength=0.0553336162997318 rxn_smarts="[C:1]([C@@:2]1([C:3]([C:4]#[N:5])([H:11])[H:12])[C:6]([H:13])([H:14])[N:7]1[H:15])([H:8])([H:9])[H:10]>>[C:1]([C@:2]([C:3]([C:4]#[N:5])([H:11])[H:12])([N:7]([C:6][H:14])[H:15])[H:13])([H:8])([H:9])[H:10]"
C       -1.03356742       1.11762279      -0.14068232
C       -0.23946474      -0.16103869       0.04028700
C        1.18635169      -0.12997040      -0.49699935
C        2.03600629       0.82037325       0.21695484
N        2.67995802       1.57823833       0.78791566
C       -0.81292933      -1.69142249       0.93787134
N       -0.94151261      -1.35444264      -0.43582773
H       -0.49347243       1.97374075       0.26446078
H       -1.21674820       1.29262758      -1.20339426
H       -1.99188915       1.04138488       0.37379177
H        1.16063934       0.14598672      -1.55404435
H        1.62975279      -1.12412107      -0.43459619
H       -0.26009278      -0.28724695       1.22739515
H        0.20188626      -2.11599407       1.04968079
H       -1.90491772      -1.10573800      -0.63281311
15
Frame=2 idx=008842 GeodesicLength=0.11062907362226246 rxn_smarts="[C:1]([C@@:2]1([C:3]([C:4]#[N:5])([H:11])[H:12])[C:6]([H:13])([H:14])[N:7]1[H:15])([H:8])([H:9])[H:10]>>[C:1]([C@:2]([C:3]([C:4]#[N:5])([H:11])[H:12])([N:7]([C:6][H:14])[H:15])[H:13])([H:8])([H:9])[H:10]"
C       -1.03064383       1.11929289      -0.13948882
C       -0.23919892      -0.16062153       0.04507344
C        1.18523156      -0.12876303      -0.49769419
C        2.03562513       0.82422192       0.21170014
N        2.68209474       1.58485910       0.77610511
C       -0.81296555      -1.69667316       0.93264190
N       -0.93942655      -1.35317190      -0.43557994
H       -0.49116249       1.97456017       0.26836745
H       -1.21020998       1.29711233      -1.20239007
H       -1.99107944       1.04474075       0.37131933
H        1.15785109       0.14416585      -1.55557023
H        1.63178143      -1.12157443      -0.43562625
H       -0.27398159      -0.29381918       1.24642875
H        0.19756094      -2.12514870       1.05803646
H       -1.90147653      -1.10918108      -0.64332309
15
Frame=3 idx=008842 GeodesicLength=0.16590863571860845 rxn_smarts="[C:1]([C@@:2]1([C:3]([C:4]#[N:5])([H:11])[H:12])[C:6]([H:13])([H:14])[N:7]1[H:15])([H:8])([H:9])[H:10]>>[C:1]([C@:2]([C:3]([C:4]#[N:5])([H:11])[H:12])([N:7]([C:6][H:14])[H:15])[H:13])([H:8])([H:9])[H:10]"
C       -1.02768048       1.12096420      -0.13828207
C       -0.23887190      -0.16018896       0.04978295
C        1.18414878      -0.12752672      -0.49848750
C        2.03525921       0.82803468       0.20642322
N        2.68422039       1.59140281       0.76425862
C       -0.81283097      -1.70179290       0.92748006
N       -0.93729819      -1.35190941      -0.43526534
H       -0.48880815       1.97536642       0.27229064
H       -1.20368744       1.30160928      -1.20134203
H       -1.99018938       1.04808769       0.36889488
H        1.15507935       0.14244234      -1.55716322
H        1.63382864      -1.11899951      -0.43681084
H       -0.28846494      -0.30052452       1.26553463
H        0.19313831      -2.13427895       1.06653146
H       -1.89784324      -1.11268646      -0.65384545
15
Frame=4 idx=008842 GeodesicLength=0.22117793472272268 rxn_smarts="[C:1]([C@@:2]1([C:3]([C:4]#[N:5])([H:11])[H:12])[C:6]([H:13])([H:14])[N:7]1[H:15])([H:8])([H:9])[H:10]>>[C:1]([C@:2]([C:3]([C:4]#[N:5])([H:11])[H:12])([N:7]([C:6][H:14])[H:15])[H:13])([H:8])([H:9])[H:10]"
C       -1.02467524       1.12263714      -0.13705964
C       -0.23847922      -0.15974001       0.05441465
C        1.18310570      -0.12626048      -0.49938371
C        2.03491281       0.83181454       0.20111675
N        2.68633925       1.59786920       0.75237606
C       -0.81252084      -1.70678093       0.92238997
N       -0.93512544      -1.35065556      -0.43488231
H       -0.48640677       1.97615869       0.27623469
H       -1.19717965       1.30612072      -1.20024771
H       -1.98921753       1.05142470       0.36652098
H        1.15232289       0.14081660      -1.55882824
H        1.63589687      -1.11639516      -0.43815469
H       -0.30357657      -0.30737133       1.28470936
H        0.18861673      -2.14338087       1.07517161
H       -1.89401298      -1.11625725      -0.66437775
15
Frame=5 idx=008842 GeodesicLength=0.2764442000647239 rxn_smarts="[C:1]([C@@:2]1([C:3]([C:4]#[N:5])([H:11])[H:12])[C:6]([H:13])([H:14])[N:7]1[H:15])([H:8])([H:9])[H:10]>>[C:1]([C@:2]([C:3]([C:4]#[N:5])([H:11])[H:12])([N:7]([C:6][H:14])[H:15])[H:13])([H:8])([H:9])[H:10]"
C       -1.02162609       1.12431181      -0.13581826
C       -0.23801637      -0.15927408       0.05896769
C        1.18210474      -0.12496344      -0.50038687
C        2.03459031       0.83556482       0.19577293
N        2.68845533       1.60425836       0.74045565
C       -0.81203051      -1.71163611       0.91737444
N       -0.93290574      -1.34941087      -0.43442977
H       -0.48395581       1.97693569       0.28020453
H       -1.19068586       1.31064885      -1.19910393
H       -1.98816226       1.05475013       0.36420082
H        1.14958036       0.13928885      -1.56056998
H        1.63798888      -1.11376012      -0.43966232
H       -0.31934892      -0.31436746       1.30394965
H        0.18399203      -2.15245016       1.08396419
H       -1.88998009      -1.11989629      -0.67491878
15
Frame=6 idx=008842 GeodesicLength=0.3317242713821297 rxn_smarts="[C:1]([C@@:2]1([C:3]([C:4]#[N:5])([H:11])[H:12])[C:6]([H:13])([H:14])[N:7]1[H:15])([H:8])([H:9])[H:10]>>[C:1]([C@:2]([C:3]([C:4]#[N:5])([H:11])[H:12])([N:7]([C:6][H:14])[H:15])[H:13])([H:8])([H:9])[H:10]"
C       -1.01853138       1.12598871      -0.13455567
C       -0.23747851      -0.15878970       0.06343959
C        1.18114849      -0.12363334      -0.50150245
C        2.03429575       0.83928910       0.19038484
N        2.69057470       1.61056512       0.72849682
C       -0.81135261      -1.71635396       0.91243893
N       -0.93063588      -1.34817611      -0.43390566
H       -0.48145301       1.97769665       0.28420427
H       -1.18420666       1.31519576      -1.19790806
H       -1.98702188       1.05806229       0.36193761
H        1.14685064       0.13786185      -1.56239418
H        1.64010751      -1.11109261      -0.44134065
H       -0.33582116      -0.32152502       1.32325257
H        0.17926128      -2.16148097       1.09291764
H       -1.88573728      -1.12360776      -0.68546560
15
Frame=7 idx=008842 GeodesicLength=0.3870220303310228 rxn_smarts="[C:1]([C@@:2]1([C:3]([C:4]#[N:5])([H:11])[H:12])[C:6]([H:13])([H:14])[N:7]1[H:15])([H:8])([H:9])[H:10]>>[C:1]([C@:2]([C:3]([C:4]#[N:5])([H:11])[H:12])([N:7]([C:6][H:14])[H:15])[H:13])([H:8])([H:9])[H:10]"
C       -1.01538855       1.12766827      -0.13326820
C       -0.23686012      -0.15828568       0.06783016
C        1.18023986      -0.12226855      -0.50273490
C        2.03403390       0.84299137       0.18494446
N        2.69270394       1.61678876       0.71649501
C       -0.81048022      -1.72093432       0.90758754
N       -0.92831265      -1.34695143      -0.43330761
H       -0.47889559       1.97844059       0.28823977
H       -1.17774074       1.31976407      -1.19665610
H       -1.98579455       1.06136002       0.35973449
H        1.14413226       0.13653645      -1.56430570
H        1.64225608      -1.10839086      -0.44319481
H       -0.35303725      -0.32885594       1.34261069
H        0.17442111      -2.17046794       1.10204013
H       -1.88127748      -1.12739482      -0.69601494
15
Frame=8 idx=008842 GeodesicLength=0.4423417952199303 rxn_smarts="[C:1]([C@@:2]1([C:3]([C:4]#[N:5])([H:11])[H:12])[C:6]([H:13])([H:14])[N:7]1[H:15])([H:8])([H:9])[H:10]>>[C:1]([C@:2]([C:3]([C:4]#[N:5])([H:11])[H:12])([N:7]([C:6][H:14])[H:15])[H:13])([H:8])([H:9])[H:10]"
C       -1.01219464       1.12935096      -0.13195149
C       -0.23615567      -0.15776109       0.07213915
C        1.17938178      -0.12086835      -0.50408810
C        2.03380967       0.84667536       0.17944258
N        2.69484905       1.62293547       0.70444414
C       -0.80941081      -1.72537511       0.90282579
N       -0.92593266      -1.34573737      -0.43263466
H       -0.47627998       1.97916608       0.29231829
H       -1.17128559       1.32435721      -1.19534392
H       -1.98447836       1.06464173       0.35759558
H        1.14142399       0.13531151      -1.56630907
H        1.64443787      -1.10565374      -0.44522794
H       -0.37103667      -0.33637444       1.36201680
H        0.16946729      -2.17940772       1.11133825
H       -1.87659527      -1.13126050      -0.70656542
15
Frame=9 idx=008842 GeodesicLength=0.49770445929671475 rxn_smarts="[C:1]([C@@:2]1([C:3]([C:4]#[N:5])([H:11])[H:12])[C:6]([H:13])([H:14])[N:7]1[H:15])([H:8])([H:9])[H:10]>>[C:1]([C@:2]([C:3]([C:4]#[N:5])([H:11])[H:12])([N:7]([C:6][H:14])[H:15])[H:13])([H:8])([H:9])[H:10]"
C       -1.00894713       1.13103662      -0.13060012
C       -0.23535958      -0.15721570       0.07636410
C        1.17857743      -0.11943132      -0.50556699
C        2.03362743       0.85034467       0.17387183
N        2.69701630       1.62900571       0.69233252
C       -0.80813616      -1.72967204       0.89815669
N       -0.92349209      -1.34453488      -0.43188761
H       -0.47360339       1.97987014       0.29644982
H       -1.16484009       1.32897941      -1.19396500
H       -1.98307071       1.06790363       0.35552568
H        1.13872495       0.13418802      -1.56840951
H        1.64665650      -1.10287998      -0.44744507
H       -0.38986413      -0.34409335       1.38146694
H        0.16438982      -2.18829190       1.12082496
H       -1.87167916      -1.13520902      -0.71711824
15
Frame=10 idx=008842 GeodesicLength=0.5530935719298251 rxn_smarts="[C:1]([C@@:2]1([C:3]([C:4]#[N:5])([H:11])[H:12])[C:6]([H:13])([H:14])[N:7]1[H:15])([H:8])([H:9])[H:10]>>[C:1]([C@:2]([C:3]([C:4]#[N:5])([H:11])[H:12])([N:7]([C:6][H:14])[H:15])[H:13])([H:8])([H:9])[H:10]"
C       -1.00564176       1.13272608      -0.12920807
C       -0.23446487      -0.15664797       0.08050901
C        1.17782999      -0.11795658      -0.50717470
C        2.03349320       0.85400391       0.16822103
N        2.69921384       1.63500865       0.68014971
C       -0.80665558      -1.73382579       0.89358745
N       -0.92098665      -1.34334349      -0.43106177
H       -0.47086138       1.98055202       0.30064287
H       -1.15839959       1.33363410      -1.19251371
H       -1.98156976       1.07114554       0.35352879
H        1.13603236       0.13316393      -1.57061088
H        1.64891560      -1.10006792      -0.44984885
H       -0.40957120      -0.35203213       1.40094383
H        0.15918741      -2.19711789       1.13050663
H       -1.86652161      -1.13924246      -0.72767134
15
Frame=11 idx=008842 GeodesicLength=0.6085083063859907 rxn_smarts="[C:1]([C@@:2]1([C:3]([C:4]#[N:5])([H:11])[H:12])[C:6]([H:13])([H:14])[N:7]1[H:15])([H:8])([H:9])[H:10]>>[C:1]([C@:2]([C:3]([C:4]#[N:5])([H:11])[H:12])([N:7]([C:6][H:14])[H:15])[H:13])([H:8])([H:9])[H:10]"
C       -1.00227454       1.13442018      -0.12776913
C       -0.23346392      -0.15605612       0.08457681
C        1.17714332      -0.11644105      -0.50891493
C        2.03341278       0.85765923       0.16248161
N        2.70145093       1.64094531       0.66787836
C       -0.80495884      -1.73783373       0.88912492
N       -0.91841039      -1.34216252      -0.43015294
H       -0.46805016       1.98121063       0.30490715
H       -1.15196064       1.33832500      -1.19098308
H       -1.97997239       1.07436629       0.35160936
H        1.13334404       0.13224060      -1.57291727
H        1.65122003      -1.09721457      -0.45244397
H       -0.43022185      -0.36021404       1.42042946
H        0.15385205      -2.20588076       1.14039415
H       -1.86111041      -1.14336444      -0.73822051
15
Frame=12 idx=008842 GeodesicLength=0.6639428074974323 rxn_smarts="[C:1]([C@@:2]1([C:3]([C:4]#[N:5])([H:11])[H:12])[C:6]([H:13])([H:14])[N:7]1[H:15])([H:8])([H:9])[H:10]>>[C:1]([C@:2]([C:3]([C:4]#[N:5])([H:11])[H:12])([N:7]([C:6][H:14])[H:15])[H:13])([H:8])([H:9])[H:10]"
C       -0.99884082       1.13611943      -0.12627573
C       -0.23234958      -0.15543932       0.08856965
C        1.17652074      -0.11488470      -0.51079132
C        2.03339214       0.86131452       0.15664117
N        2.70373496       1.64683028       0.65550485
C       -0.80304618      -1.74169266       0.88477691
N       -0.91575882      -1.34099231      -0.42915838
H       -0.46516445       1.98184365       0.30925434
H       -1.14551862       1.34305679      -1.18936545
H       -1.97827550       1.07756396       0.34977338
H        1.13065760       0.13141473      -1.57533296
H        1.65357338      -1.09431922      -0.45523249
H       -0.45186592      -0.36866133       1.43990532
H        0.14837730      -2.21457614       1.15049699
H       -1.85543623      -1.14757768      -0.74876630
15
Frame=13 idx=008842 GeodesicLength=0.7193945369208248 rxn_smarts="[C:1]([C@@:2]1([C:3]([C:4]#[N:5])([H:11])[H:12])[C:6]([H:13])([H:14])[N:7]1[H:15])([H:8])([H:9])[H:10]>>[C:1]([C@:2]([C:3]([C:4]#[N:5])([H:11])[H:12])([N:7]([C:6][H:14])[H:15])[H:13])([H:8])([H:9])[H:10]"
C       -0.99533602       1.13782401      -0.12471897
C       -0.23111351      -0.15479662       0.09249122
C        1.17596627      -0.11328516      -0.51280718
C        2.03343743       0.86497627       0.15068909
N        2.70607523       1.65266929       0.64300596
C       -0.80090971      -1.74540010       0.88054904
N       -0.91302543      -1.33983245      -0.42807475
H       -0.46219986       1.98244865       0.31369786
H       -1.13906910       1.34783428      -1.18765102
H       -1.97647564       1.08073598       0.34802781
H        1.12797032       0.13068558      -1.57786176
H        1.65598081      -1.09137962      -0.45821734
H       -0.47456848      -0.37739760       1.45934856
H        0.14275170      -2.22319706       1.16082958
H       -1.84948400      -1.15188544      -0.75930809
15
Frame=14 idx=008842 GeodesicLength=0.7748417208500308 rxn_smarts="[C:1]([C@@:2]1([C:3]([C:4]#[N:5])([H:11])[H:12])[C:6]([H:13])([H:14])[N:7]1[H:15])([H:8])([H:9])[H:10]>>[C:1]([C@:2]([C:3]([C:4]#[N:5])([H:11])[H:12])([N:7]([C:6][H:14])[H:15])[H:13])([H:8])([H:9])[H:10]"
C       -0.99175405       1.13953502      -0.12308973
C       -0.22974706      -0.15412653       0.09634778
C        1.17548378      -0.11164139      -0.51496482
C        2.03355551       0.86865079       0.14461161
N        2.70847944       1.65847726       0.63036074
C       -0.79854783      -1.74895267       0.87645183
N       -0.91020399      -1.33868219      -0.42689624
H       -0.45915013       1.98302410       0.31825080
H       -1.13260555       1.35266220      -1.18583042
H       -1.97456873       1.08388174       0.34637929
H        1.12527871       0.13004927      -1.58050676
H        1.65844709      -1.08839346      -0.46139913
H       -0.49839236      -0.38645387       1.47872610
H        0.13696788      -2.23174053       1.17140192
H       -1.84324271      -1.15628974      -0.76984297
15
Frame=15 idx=008842 GeodesicLength=0.8302762950671392 rxn_smarts="[C:1]([C@@:2]1([C:3]([C:4]#[N:5])([H:11])[H:12])[C:6]([H:13])([H:14])[N:7]1[H:15])([H:8])([H:9])[H:10]>>[C:1]([C@:2]([C:3]([C:4]#[N:5])([H:11])[H:12])([N:7]([C:6][H:14])[H:15])[H:13])([H:8])([H:9])[H:10]"
C       -0.98808907       1.14125294      -0.12137696
C       -0.22824049      -0.15342785       0.10014477
C        1.17507789      -0.10995109      -0.51726704
C        2.03375341       0.87234529       0.13839644
N        2.71095721       1.66426519       0.61753962
C       -0.79595387      -1.75234568       0.87249442
N       -0.90728673      -1.33754104      -0.42561758
H       -0.45600931       1.98356742       0.32292889
H       -1.12612227       1.35754604      -1.18389149
H       -1.97255004       1.08699889       0.34483677
H        1.12257958       0.12950392      -1.58327121
H        1.66097796      -1.08535824      -0.46477976
H       -0.52341059      -0.39586202       1.49800331
H        0.13101168      -2.24019990       1.18222968
H       -1.83669538      -1.16079387      -0.78036987
15
Frame=16 idx=008842 GeodesicLength=0.8856798828692835 rxn_smarts="[C:1]([C@@:2]1([C:3]([C:4]#[N:5])([H:11])[H:12])[C:6]([H:13])([H:14])[N:7]1[H:15])([H:8])([H:9])[H:10]>>[C:1]([C@:2]([C:3]([C:4]#[N:5])([H:11])[H:12])([N:7]([C:6][H:14])[H:15])[H:13])([H:8])([H:9])[H:10]"
C       -0.98433420       1.14297832      -0.11956856
C       -0.22658382      -0.15269958       0.10388883
C        1.17475294      -0.10821335      -0.51971643
C        2.03403845       0.87606664       0.13202773
N        2.71351657       1.67005153       0.60451496
C       -0.79312589      -1.75557447       0.86868781
N       -0.90426633      -1.33640854      -0.42423273
H       -0.45277013       1.98407581       0.32774902
H       -1.11961235       1.36249159      -1.18182139
H       -1.97041432       1.09008531       0.34341021
H        1.11986892       0.12904445      -1.58615833
H        1.66357886      -1.08227221      -0.46835916
H       -0.54969205      -0.40565541       1.51713849
H        0.12486970      -2.24856970       1.19332730
H       -1.82982634      -1.16540040      -0.79088775
