11
Frame=0 idx=001626 GeodesicLength=0.0 rxn_smarts="[N:1]([C:2](=[O:3])[C@@:4]1([H:9])[C:5]([H:10])([H:11])[O:6]1)([H:7])[H:8]>>[H:7][H:8].[N:1]1=[C:2]([C@@:4]2([H:9])[C:5]([H:10])([H:11])[O:6]2)[O:3]1"
N       -1.87739947       0.31322689       0.42111462
C       -1.06806481      -0.63973923       0.09620360
O       -1.88581437      -1.52737315      -0.22972602
C        0.40865770      -0.78962179       0.05487578
C        1.23913507       0.17189900      -0.67248717
O        1.20345936       0.15051470       0.74132852
H       -1.10812536       1.75800449       0.61190544
H       -0.56063746       1.53247742       1.10981887
H        0.71821504      -1.82870400       0.12674521
H        2.16456514      -0.17194664      -1.12158501
H        0.76600916       1.03126233      -1.13819389
11
Frame=1 idx=001626 GeodesicLength=0.07466368282563765 rxn_smarts="[N:1]([C:2](=[O:3])[C@@:4]1([H:9])[C:5]([H:10])([H:11])[O:6]1)([H:7])[H:8]>>[H:7][H:8].[N:1]1=[C:2]([C@@:4]2([H:9])[C:5]([H:10])([H:11])[O:6]2)[O:3]1"
N       -1.86010398       0.32302142       0.42366021
C       -1.06321831      -0.63979952       0.09661644
O       -1.89072451      -1.52011163      -0.22384863
C        0.41277103      -0.79278736       0.05156616
C        1.24255958       0.16830748      -0.67705443
O        1.20631745       0.14976691       0.73674987
H       -1.10886931       1.76531343       0.59457987
H       -0.59895378       1.52676192       1.14302977
H        0.72199685      -1.83177175       0.12449536
H        2.16873076      -0.17521912      -1.12493518
H        0.76949422       1.02651823      -1.14485944
11
Frame=2 idx=001626 GeodesicLength=0.14934256229279697 rxn_smarts="[N:1]([C:2](=[O:3])[C@@:4]1([H:9])[C:5]([H:10])([H:11])[O:6]1)([H:7])[H:8]>>[H:7][H:8].[N:1]1=[C:2]([C@@:4]2([H:9])[C:5]([H:10])([H:11])[O:6]2)[O:3]1"
N       -1.84307238       0.33334437       0.42389614
C       -1.05833771      -0.63959676       0.09700764
O       -1.89524955      -1.51283490      -0.21777222
C        0.41691808      -0.79568153       0.04840640
C        1.24611724       0.16441502      -0.68211818
O        1.20928784       0.14965902       0.73168482
H       -1.10903496       1.77196525       0.58103017
H       -0.63862102       1.52112275       1.17571581
H        0.72583772      -1.83450758       0.12315057
H        2.17300208      -0.17914388      -1.12855434
H        0.77315265       1.02125825      -1.15244682
11
Frame=3 idx=001626 GeodesicLength=0.2240554729585534 rxn_smarts="[N:1]([C:2](=[O:3])[C@@:4]1([H:9])[C:5]([H:10])([H:11])[O:6]1)([H:7])[H:8]>>[H:7][H:8].[N:1]1=[C:2]([C@@:4]2([H:9])[C:5]([H:10])([H:11])[O:6]2)[O:3]1"
N       -1.82622828       0.34414428       0.42215965
C       -1.05340259      -0.63913823       0.09742491
O       -1.89942374      -1.50548274      -0.21152525
C        0.42111802      -0.79833269       0.04538617
C        1.24980526       0.16024102      -0.68764455
O        1.21240197       0.15012495       0.72616296
H       -1.10851914       1.77816082       0.57071119
H       -0.67983809       1.51538952       1.20805998
H        0.72974853      -1.83694914       0.12260432
H        2.17736569      -0.18367443      -1.13245435
H        0.77697238       1.01551665      -1.16088502
11
Frame=4 idx=001626 GeodesicLength=0.2988127600882416 rxn_smarts="[N:1]([C:2](=[O:3])[C@@:4]1([H:9])[C:5]([H:10])([H:11])[O:6]1)([H:7])[H:8]>>[H:7][H:8].[N:1]1=[C:2]([C@@:4]2([H:9])[C:5]([H:10])([H:11])[O:6]2)[O:3]1"
N       -1.80948678       0.35540191       0.41869422
C       -1.04839265      -0.63841151       0.09787433
O       -1.90328075      -1.49800212      -0.20510135
C        0.42538974      -0.80075918       0.04249147
C        1.25363534       0.15579150      -0.69362408
O        1.21569434       0.15112548       0.72019264
H       -1.10726640       1.78405907       0.56332835
H       -0.72281652       1.50940114       1.24013468
H        0.73373413      -1.83912413       0.12280329
H        2.18182669      -0.18879412      -1.13664730
H        0.78096286       1.00931197      -1.17014625
11
Frame=5 idx=001626 GeodesicLength=0.3735864063110386 rxn_smarts="[N:1]([C:2](=[O:3])[C@@:4]1([H:9])[C:5]([H:10])([H:11])[O:6]1)([H:7])[H:8]>>[H:7][H:8].[N:1]1=[C:2]([C@@:4]2([H:9])[C:5]([H:10])([H:11])[O:6]2)[O:3]1"
N       -1.79272950       0.36691018       0.41430776
C       -1.04327118      -0.63745213       0.09855378
O       -1.90683668      -1.49016819      -0.19885420
C        0.42975532      -0.80300243       0.03974907
C        1.25759197       0.15107606      -0.69996510
O        1.21920922       0.15252617       0.71383436
H       -1.10526418       1.78961953       0.55834409
H       -0.76767130       1.50334569       1.27166159
H        0.73778809      -1.84107201       0.12354300
H        2.18634823      -0.19443536      -1.14112301
H        0.78508002       1.00265247      -1.18005134
11
Frame=6 idx=001626 GeodesicLength=0.4483826034255969 rxn_smarts="[N:1]([C:2](=[O:3])[C@@:4]1([H:9])[C:5]([H:10])([H:11])[O:6]1)([H:7])[H:8]>>[H:7][H:8].[N:1]1=[C:2]([C@@:4]2([H:9])[C:5]([H:10])([H:11])[O:6]2)[O:3]1"
N       -1.77588451       0.37882777       0.40873796
C       -1.03802230      -0.63617303       0.09929750
O       -1.91011730      -1.48202407      -0.19250792
C        0.43423475      -0.80503891       0.03711873
C        1.26172713       0.14606541      -0.70675220
O        1.22299302       0.15438252       0.70701157
H       -1.10256779       1.79506513       0.55601749
H       -0.81466354       1.49682619       1.30275595
H        0.74191668      -1.84277166       0.12496266
H        2.19098366      -0.20068020      -1.14592313
H        0.78940020       0.99552085      -1.19071859
11
Frame=7 idx=001626 GeodesicLength=0.52320051107844 rxn_smarts="[N:1]([C:2](=[O:3])[C@@:4]1([H:9])[C:5]([H:10])([H:11])[O:6]1)([H:7])[H:8]>>[H:7][H:8].[N:1]1=[C:2]([C@@:4]2([H:9])[C:5]([H:10])([H:11])[O:6]2)[O:3]1"
N       -1.75884277       0.39105297       0.40250769
C       -1.03261221      -0.63459162       0.10023779
O       -1.91313705      -1.47343044      -0.18625732
C        0.43885285      -0.80690600       0.03461428
C        1.26603501       0.14076377      -0.71393538
O        1.22711011       0.15659272       0.69976612
H       -1.09916188       1.80038621       0.55607846
H       -0.86396494       1.48996014       1.33316157
H        0.74612261      -1.84427282       0.12692562
H        2.19570302      -0.20749618      -1.15106835
H        0.79389525       0.98794125      -1.20203047
11
Frame=8 idx=001626 GeodesicLength=0.598034466345172 rxn_smarts="[N:1]([C:2](=[O:3])[C@@:4]1([H:9])[C:5]([H:10])([H:11])[O:6]1)([H:7])[H:8]>>[H:7][H:8].[N:1]1=[C:2]([C@@:4]2([H:9])[C:5]([H:10])([H:11])[O:6]2)[O:3]1"
N       -1.74150504       0.40358489       0.39584930
C       -1.02701071      -0.63268254       0.10141773
O       -1.91590482      -1.46429588      -0.18012836
C        0.44363272      -0.80861174       0.03223429
C        1.27052749       0.13515972      -0.72151498
O        1.23162408       0.15911015       0.69208677
H       -1.09503939       1.80560899       0.55850972
H       -0.91580257       1.48269503       1.36269377
H        0.75040889      -1.84558471       0.12939767
H        2.20049824      -0.21489669      -1.15659590
H        0.79857111       0.97991278      -1.21395001
11
Frame=9 idx=001626 GeodesicLength=0.6728679822045277 rxn_smarts="[N:1]([C:2](=[O:3])[C@@:4]1([H:9])[C:5]([H:10])([H:11])[O:6]1)([H:7])[H:8]>>[H:7][H:8].[N:1]1=[C:2]([C@@:4]2([H:9])[C:5]([H:10])([H:11])[O:6]2)[O:3]1"
N       -1.72377201       0.41634340       0.38922166
C       -1.02118147      -0.63045815       0.10296524
O       -1.91841792      -1.45449904      -0.17428593
C        0.44859987      -0.81019091       0.02998992
C        1.27519663       0.12925168      -0.72945358
O        1.23661565       0.16182739       0.68400216
H       -1.09023200       1.81071700       0.56318127
H       -0.97031892       1.47515961       1.39101583
H        0.75478137      -1.84675250       0.13226338
H        2.20533348      -0.22286027      -1.16254371
H        0.80339532       0.97146178      -1.22635624
11
Frame=10 idx=001626 GeodesicLength=0.747694768881546 rxn_smarts="[N:1]([C:2](=[O:3])[C@@:4]1([H:9])[C:5]([H:10])([H:11])[O:6]1)([H:7])[H:8]>>[H:7][H:8].[N:1]1=[C:2]([C@@:4]2([H:9])[C:5]([H:10])([H:11])[O:6]2)[O:3]1"
N       -1.70555136       0.42935039       0.38280703
C       -1.01509137      -0.62788848       0.10491444
O       -1.92067172      -1.44396876      -0.16873429
C        0.45377917      -0.81164979       0.02788147
C        1.28005174       0.12302424      -0.73776527
O        1.24216160       0.16470358       0.67549354
H       -1.08474246       1.81573155       0.57019935
H       -1.02774251       1.46731023       1.41788230
H        0.75924684      -1.84778699       0.13551282
H        2.21019189      -0.23141683      -1.16896759
H        0.80836818       0.96259087      -1.23922380
11
Frame=11 idx=001626 GeodesicLength=0.8225210261114638 rxn_smarts="[N:1]([C:2](=[O:3])[C@@:4]1([H:9])[C:5]([H:10])([H:11])[O:6]1)([H:7])[H:8]>>[H:7][H:8].[N:1]1=[C:2]([C@@:4]2([H:9])[C:5]([H:10])([H:11])[O:6]2)[O:3]1"
N       -1.68674437       0.44261145       0.37684156
C       -1.00870126      -0.62496388       0.10736630
O       -1.92265133      -1.43262288      -0.16349838
C        0.45919821      -0.81300580       0.02591426
C        1.28508608       0.11647180      -0.74644591
O        1.24834821       0.16766516       0.66655872
H       -1.07848610       1.82061735       0.57964559
H       -1.08836352       1.45919301       1.44296338
H        0.76381938      -1.84871282       0.13907826
H        2.21503069      -0.24057224      -1.17593873
H        0.81346401       0.95331885      -1.25248507
11
Frame=12 idx=001626 GeodesicLength=0.8973437484695771 rxn_smarts="[N:1]([C:2](=[O:3])[C@@:4]1([H:9])[C:5]([H:10])([H:11])[O:6]1)([H:7])[H:8]>>[H:7][H:8].[N:1]1=[C:2]([C@@:4]2([H:9])[C:5]([H:10])([H:11])[O:6]2)[O:3]1"
N       -1.66725385       0.45609678       0.37165323
C       -1.00196976      -0.62169556       0.11046165
O       -1.92433476      -1.42037643      -0.15865072
C        0.46488536      -0.81428970       0.02409798
C        1.29028111       0.10959577      -0.75547977
O        1.25527370       0.17061127       0.65721199
H       -1.07139071       1.82531893       0.59160704
H       -1.15243341       1.45094153       1.46581056
H        0.76851577      -1.84957375       0.14286012
H        2.21979196      -0.25031217      -1.18353553
H        0.81863459       0.94368333      -1.26603654
11
Frame=13 idx=001626 GeodesicLength=0.9721078072455446 rxn_smarts="[N:1]([C:2](=[O:3])[C@@:4]1([H:9])[C:5]([H:10])([H:11])[O:6]1)([H:7])[H:8]>>[H:7][H:8].[N:1]1=[C:2]([C@@:4]2([H:9])[C:5]([H:10])([H:11])[O:6]2)[O:3]1"
N       -1.64699972       0.46970979       0.36773645
C       -0.99485451      -0.61811107       0.11432952
O       -1.92568163      -1.40714473      -0.15433776
C        0.47086285      -0.81554575       0.02243842
C        1.29560253       0.10240122      -0.76482971
O        1.26302331       0.17340910       0.64748646
H       -1.06356345       1.82980367       0.60612953
H       -1.21995476       1.44276879       1.48583974
H        0.77334977      -1.85043011       0.14673414
H        2.22440832      -0.26060349      -1.19181070
H        0.82380730       0.93374258      -1.27971609
11
Frame=14 idx=001626 GeodesicLength=1.0468530705197905 rxn_smarts="[N:1]([C:2](=[O:3])[C@@:4]1([H:9])[C:5]([H:10])([H:11])[O:6]1)([H:7])[H:8]>>[H:7][H:8].[N:1]1=[C:2]([C@@:4]2([H:9])[C:5]([H:10])([H:11])[O:6]2)[O:3]1"
N       -1.62586656       0.48351371       0.36518512
C       -0.98730630      -0.61419797       0.11909202
O       -1.92666245      -1.39287509      -0.15045639
C        0.47716644      -0.81678605       0.02094061
C        1.30103712       0.09488681      -0.77452623
O        1.27170923       0.17600189       0.63735776
H       -1.05474082       1.83396511       0.62363097
H       -1.29144156       1.43473733       1.50251600
H        0.77834918      -1.85130590       0.15065413
H        2.22881207      -0.27146535      -1.20089791
H        0.82894365       0.92352552      -1.29349608
11
Frame=15 idx=001626 GeodesicLength=1.121608411278015 rxn_smarts="[N:1]([C:2](=[O:3])[C@@:4]1([H:9])[C:5]([H:10])([H:11])[O:6]1)([H:7])[H:8]>>[H:7][H:8].[N:1]1=[C:2]([C@@:4]2([H:9])[C:5]([H:10])([H:11])[O:6]2)[O:3]1"
N       -1.60370582       0.49760762       0.36410152
C       -0.97925106      -0.60989614       0.12483478
O       -1.92721128      -1.37745683      -0.14689244
C        0.48384561      -0.81799820       0.01960945
C        1.30657421       0.08701968      -0.78463192
O        1.28144573       0.17836679       0.62674606
H       -1.04472902       1.83765626       0.64482132
H       -1.36745460       1.42686085       1.51510736
H        0.78355675      -1.85218576       0.15464265
H        2.23292859      -0.28298371      -1.21094719
H        0.83400088       0.91300946      -1.30739158
11
Frame=16 idx=001626 GeodesicLength=1.196372563513346 rxn_smarts="[N:1]([C:2](=[O:3])[C@@:4]1([H:9])[C:5]([H:10])([H:11])[O:6]1)([H:7])[H:8]>>[H:7][H:8].[N:1]1=[C:2]([C@@:4]2([H:9])[C:5]([H:10])([H:11])[O:6]2)[O:3]1"
N       -1.58037710       0.51185460       0.36504948
C       -0.97061871      -0.60531406       0.13186811
O       -1.92726897      -1.36085885      -0.14361652
C        0.49093443      -0.81927503       0.01843760
C        1.31213147       0.07886201      -0.79508871
O        1.29237696       0.18026525       0.61572633
H       -1.03327012       1.84061490       0.67010684
H       -1.44834704       1.41970950       1.52237209
H        0.78900755      -1.85320678       0.15837977
H        2.23659772      -0.29501966      -1.22211500
H        0.83883380       0.90236813      -1.32111999
