12
Frame=0 idx=000720 GeodesicLength=0.0 rxn_smarts="[C:1]([C:2](=[O:3])[C:4]([C:5]#[C:6][H:12])([H:10])[H:11])([H:7])([H:8])[H:9]>>[C:1]([C:2]1=[O+:3][C-:5]=[C:6]([H:12])[C:4]1([H:10])[H:11])([H:7])([H:8])[H:9]"
C       -1.53300728       0.91678559      -0.22932291
C       -0.72454993      -0.26371669       0.22798660
O       -1.11488700      -1.07098731       1.02881544
C        0.66082208      -0.41280127      -0.38456518
C        1.60570042       0.61869157       0.61640487
C        2.09198932      -0.52764356       0.73426586
H       -2.44019098       0.99780166       0.36431437
H       -1.79915122       0.78617364      -1.28185960
H       -0.93721315       1.82683670      -0.14824725
H        0.78478477       0.07539592      -1.34755718
H        0.82862120      -1.48885613      -0.52748549
H        2.57708180      -1.45768013       0.94725047
12
Frame=1 idx=000720 GeodesicLength=0.07242520094188684 rxn_smarts="[C:1]([C:2](=[O:3])[C:4]([C:5]#[C:6][H:12])([H:10])[H:11])([H:7])([H:8])[H:9]>>[C:1]([C:2]1=[O+:3][C-:5]=[C:6]([H:12])[C:4]1([H:10])[H:11])([H:7])([H:8])[H:9]"
C       -1.54235781       0.91924670      -0.24278474
C       -0.73293486      -0.25603778       0.22386591
O       -1.10720053      -1.03121482       1.06416464
C        0.65684867      -0.41770075      -0.37273858
C        1.57585628       0.58535280       0.69231820
C        2.12136267      -0.53900528       0.71179704
H       -2.45687967       0.99729924       0.33979585
H       -1.79260769       0.78544930      -1.29867777
H       -0.95338043       1.83334833      -0.15625339
H        0.79001713       0.07297788      -1.33380250
H        0.80287995      -1.49415534      -0.53455170
H        2.63839628      -1.45556027       0.90686702
12
Frame=2 idx=000720 GeodesicLength=0.1449264224721421 rxn_smarts="[C:1]([C:2](=[O:3])[C:4]([C:5]#[C:6][H:12])([H:10])[H:11])([H:7])([H:8])[H:9]>>[C:1]([C:2]1=[O+:3][C-:5]=[C:6]([H:12])[C:4]1([H:10])[H:11])([H:7])([H:8])[H:9]"
C       -1.54997454       0.92278545      -0.25523118
C       -0.74246628      -0.24946670       0.22029543
O       -1.10559017      -0.99469207       1.09306706
C        0.65150225      -0.42543869      -0.35991233
C        1.54483877       0.54543961       0.76757386
C        2.14944033      -0.54471464       0.68923031
H       -2.47208315       0.99873972       0.31547169
H       -1.78368342       0.78800349      -1.31464843
H       -0.96625881       1.83967179      -0.16150618
H        0.79331304       0.06510131      -1.32042410
H        0.77712485      -1.50194127      -0.53725331
H        2.70383712      -1.44348801       0.86333719
12
Frame=3 idx=000720 GeodesicLength=0.21685954139460722 rxn_smarts="[C:1]([C:2](=[O:3])[C:4]([C:5]#[C:6][H:12])([H:10])[H:11])([H:7])([H:8])[H:9]>>[C:1]([C:2]1=[O+:3][C-:5]=[C:6]([H:12])[C:4]1([H:10])[H:11])([H:7])([H:8])[H:9]"
C       -1.55568321       0.92733974      -0.26635761
C       -0.75253561      -0.24406823       0.21678402
O       -1.10841708      -0.96175921       1.11633451
C        0.64507082      -0.43587902      -0.34716914
C        1.51337789       0.49915262       0.84061321
C        2.17576007      -0.54455724       0.66653138
H       -2.48540143       1.00175949       0.29199499
H       -1.77262979       0.79395888      -1.32937311
H       -0.97583263       1.84582222      -0.16362322
H        0.79446517       0.05191621      -1.30857754
H        0.75179625      -1.51224104      -0.53683811
H        2.77002956      -1.42144442       0.81968063
12
Frame=4 idx=000720 GeodesicLength=0.2882570391813356 rxn_smarts="[C:1]([C:2](=[O:3])[C:4]([C:5]#[C:6][H:12])([H:10])[H:11])([H:7])([H:8])[H:9]>>[C:1]([C:2]1=[O+:3][C-:5]=[C:6]([H:12])[C:4]1([H:10])[H:11])([H:7])([H:8])[H:9]"
C       -1.55934268       0.93304728      -0.27637119
C       -0.76324843      -0.23979389       0.21326126
O       -1.11565174      -0.93225026       1.13483485
C        0.63743863      -0.44928051      -0.33434226
C        1.48118978       0.44595153       0.91196281
C        2.19946916      -0.53874918       0.64483138
H       -2.49678995       1.00673482       0.26894562
H       -1.75911261       0.80332083      -1.34306360
H       -0.98186840       1.85185356      -0.16275565
H        0.79361533       0.03302003      -1.29812982
H        0.72659787      -1.52553456      -0.53306663
H        2.83770304      -1.38831965       0.77389324
12
Frame=5 idx=000720 GeodesicLength=0.3592823519738918 rxn_smarts="[C:1]([C:2](=[O:3])[C:4]([C:5]#[C:6][H:12])([H:10])[H:11])([H:7])([H:8])[H:9]>>[C:1]([C:2]1=[O+:3][C-:5]=[C:6]([H:12])[C:4]1([H:10])[H:11])([H:7])([H:8])[H:9]"
C       -1.56063103       0.94002843      -0.28530349
C       -0.77464294      -0.23677560       0.20956454
O       -1.12723444      -0.90621024       1.14905174
C        0.62847018      -0.46605239      -0.32150214
C        1.44793088       0.38487077       0.98194997
C        2.22012573      -0.52699894       0.62431935
H       -2.50590486       1.01412952       0.24623075
H       -1.74275439       0.81625817      -1.35572438
H       -0.98384647       1.85769913      -0.15885600
H        0.79067518       0.00781683      -1.28919327
H        0.70131494      -1.54241730      -0.52582367
H        2.90649723      -1.34234838       0.72528661
12
Frame=6 idx=000720 GeodesicLength=0.4296764819015264 rxn_smarts="[C:1]([C:2](=[O:3])[C:4]([C:5]#[C:6][H:12])([H:10])[H:11])([H:7])([H:8])[H:9]>>[C:1]([C:2]1=[O+:3][C-:5]=[C:6]([H:12])[C:4]1([H:10])[H:11])([H:7])([H:8])[H:9]"
C       -1.55917353       0.94822889      -0.29289825
C       -0.78637270      -0.23524134       0.20533416
O       -1.14209403      -0.88370599       1.15938740
C        0.61824507      -0.48641318      -0.30946060
C        1.41386913       0.31552682       1.04946903
C        2.23699406      -0.50889761       0.60505884
H       -2.51207770       1.02411214       0.22454861
H       -1.72357642       0.83281081      -1.36698500
H       -0.98127935       1.86316228      -0.15178244
H        0.78546249      -0.02398773      -1.28257179
H        0.67599602      -1.56320309      -0.51593761
H        2.97400696      -1.28239201       0.67583765
12
Frame=7 idx=000720 GeodesicLength=0.49920396897728236 rxn_smarts="[C:1]([C:2](=[O:3])[C:4]([C:5]#[C:6][H:12])([H:10])[H:11])([H:7])([H:8])[H:9]>>[C:1]([C:2]1=[O+:3][C-:5]=[C:6]([H:12])[C:4]1([H:10])[H:11])([H:7])([H:8])[H:9]"
C       -1.55471556       0.95745199      -0.29915019
C       -0.79788439      -0.23491559       0.20089040
O       -1.15896631      -0.86417248       1.16685336
C        0.60692270      -0.51018719      -0.29858161
C        1.37984515       0.23748574       1.11390231
C        2.24917633      -0.48449623       0.58758651
H       -2.51509872       1.03636856       0.20380118
H       -1.70136701       0.85221635      -1.37672304
H       -0.97408902       1.86810772      -0.14186642
H        0.77813586      -0.06196690      -1.27838883
H        0.65035428      -1.58770866      -0.50428996
H        3.03768669      -1.20818332       0.62596629
12
Frame=8 idx=000720 GeodesicLength=0.5679044961003059 rxn_smarts="[C:1]([C:2](=[O:3])[C:4]([C:5]#[C:6][H:12])([H:10])[H:11])([H:7])([H:8])[H:9]>>[C:1]([C:2]1=[O+:3][C-:5]=[C:6]([H:12])[C:4]1([H:10])[H:11])([H:7])([H:8])[H:9]"
C       -1.54685495       0.96752367      -0.30392195
C       -0.80877817      -0.23585553       0.19621626
O       -1.17665245      -0.84718931       1.17219018
C        0.59455608      -0.53758242      -0.28947265
C        1.34640745       0.15054644       1.17405830
C        2.25554388      -0.45364139       0.57237444
H       -2.51436962       1.05089975       0.18440939
H       -1.67596673       0.87407558      -1.38469115
H       -0.96183451       1.87228040      -0.12928408
H        0.76873904      -0.10605112      -1.27698730
H        0.62408222      -1.61609995      -0.49185125
H        3.09512778      -1.11890612       0.57695982
12
Frame=9 idx=000720 GeodesicLength=0.6355317005870059 rxn_smarts="[C:1]([C:2](=[O:3])[C:4]([C:5]#[C:6][H:12])([H:10])[H:11])([H:7])([H:8])[H:9]>>[C:1]([C:2]1=[O+:3][C-:5]=[C:6]([H:12])[C:4]1([H:10])[H:11])([H:7])([H:8])[H:9]"
C       -1.53577719       0.97793365      -0.30689091
C       -0.81816183      -0.23796645       0.19115501
O       -1.19218574      -0.83190036       1.17660467
C        0.58163717      -0.56810962      -0.28364995
C        1.31525120       0.05728878       1.22661717
C        2.25521362      -0.41729359       0.55969365
H       -2.50959970       1.06690585       0.16775779
H       -1.64844673       0.89741790      -1.39042376
H       -0.94511393       1.87550748      -0.11454231
H        0.75756011      -0.15475599      -1.27936921
H        0.59707712      -1.64769527      -0.48122089
H        3.14254590      -1.01733237       0.53426875
12
Frame=10 idx=000720 GeodesicLength=0.7030283519756608 rxn_smarts="[C:1]([C:2](=[O:3])[C:4]([C:5]#[C:6][H:12])([H:10])[H:11])([H:7])([H:8])[H:9]>>[C:1]([C:2]1=[O+:3][C-:5]=[C:6]([H:12])[C:4]1([H:10])[H:11])([H:7])([H:8])[H:9]"
C       -1.52122243       0.98856327      -0.30832697
C       -0.82606710      -0.24108552       0.18622742
O       -1.20525673      -0.81716660       1.18143049
C        0.56797262      -0.60225535      -0.28066892
C        1.28690581      -0.04255615       1.27190261
C        2.24720733      -0.37634136       0.55040518
H       -2.50112253       1.08414971       0.15259525
H       -1.61753194       0.92199155      -1.39437088
H       -0.92380837       1.87761783      -0.09752640
H        0.74500157      -0.20799378      -1.28468680
H        0.56832077      -1.68281063      -0.47259979
H        3.17960099      -0.90211298       0.49561881
12
Frame=11 idx=000720 GeodesicLength=0.7705336090003376 rxn_smarts="[C:1]([C:2](=[O:3])[C:4]([C:5]#[C:6][H:12])([H:10])[H:11])([H:7])([H:8])[H:9]>>[C:1]([C:2]1=[O+:3][C-:5]=[C:6]([H:12])[C:4]1([H:10])[H:11])([H:7])([H:8])[H:9]"
C       -1.50362769       0.99861528      -0.30800369
C       -0.83147582      -0.24536393       0.18070990
O       -1.21217408      -0.80265943       1.18696319
C        0.55414104      -0.63886098      -0.28219447
C        1.26230232      -0.14418446       1.30608782
C        2.23096430      -0.33268053       0.54407748
H       -2.48743070       1.10253718       0.14250409
H       -1.58676107       0.94552622      -1.39565412
H       -0.89835918       1.87834000      -0.08098742
H        0.73146578      -0.26276505      -1.29368539
H        0.53789560      -1.72001303      -0.46881388
H        3.20305950      -0.77849127       0.46899648
12
Frame=12 idx=000720 GeodesicLength=0.8396297974452092 rxn_smarts="[C:1]([C:2](=[O:3])[C:4]([C:5]#[C:6][H:12])([H:10])[H:11])([H:7])([H:8])[H:9]>>[C:1]([C:2]1=[O+:3][C-:5]=[C:6]([H:12])[C:4]1([H:10])[H:11])([H:7])([H:8])[H:9]"
C       -1.48311351       1.00798931      -0.30656971
C       -0.83452185      -0.25015153       0.17591715
O       -1.21323300      -0.78712465       1.19496070
C        0.54017135      -0.67780604      -0.28676806
C        1.24258683      -0.24826152       1.33164759
C        2.20670375      -0.28646423       0.54141285
H       -2.47030746       1.12079456       0.13432914
H       -1.55392298       0.96783581      -1.39552801
H       -0.86949125       1.87789245      -0.06432801
H        0.71783411      -0.31826657      -1.30479281
H        0.50505576      -1.75899942      -0.46921016
H        3.21223825      -0.64743818       0.44892934
12
Frame=13 idx=000720 GeodesicLength=0.9114009960587881 rxn_smarts="[C:1]([C:2](=[O:3])[C:4]([C:5]#[C:6][H:12])([H:10])[H:11])([H:7])([H:8])[H:9]>>[C:1]([C:2]1=[O+:3][C-:5]=[C:6]([H:12])[C:4]1([H:10])[H:11])([H:7])([H:8])[H:9]"
C       -1.46024141       1.01633989      -0.30419518
C       -0.83498972      -0.25544107       0.17151950
O       -1.20669432      -0.77003800       1.20562661
C        0.52630095      -0.71830919      -0.29482379
C        1.22820415      -0.35217476       1.34753640
C        2.17460033      -0.23983291       0.54228522
H       -2.44937732       1.13907162       0.12970222
H       -1.52134482       0.98758531      -1.39397638
H       -0.83758187       1.87625495      -0.04947626
H        0.70448288      -0.37282571      -1.31812097
H        0.46963095      -1.79877265      -0.47468926
H        3.20701020      -0.51185746       0.43861187
12
Frame=14 idx=000720 GeodesicLength=0.9865459215317968 rxn_smarts="[C:1]([C:2](=[O:3])[C:4]([C:5]#[C:6][H:12])([H:10])[H:11])([H:7])([H:8])[H:9]>>[C:1]([C:2]1=[O+:3][C-:5]=[C:6]([H:12])[C:4]1([H:10])[H:11])([H:7])([H:8])[H:9]"
C       -1.43591358       1.02339263      -0.30129771
C       -0.83278350      -0.26079841       0.16782850
O       -1.19141304      -0.75073461       1.21945542
C        0.51282597      -0.75910830      -0.30591269
C        1.21976832      -0.45333765       1.35425877
C        2.13583376      -0.19472865       0.54661383
H       -2.42577262       1.15625244       0.12803909
H       -1.48980007       1.00410358      -1.39156356
H       -0.80416723       1.87385564      -0.03714482
H        0.69195558      -0.42466475      -1.33314850
H        0.43173840      -1.83789990      -0.48507067
H        3.18772800      -0.37633201       0.43794234
12
Frame=15 idx=000720 GeodesicLength=1.065102846096952 rxn_smarts="[C:1]([C:2](=[O:3])[C:4]([C:5]#[C:6][H:12])([H:10])[H:11])([H:7])([H:8])[H:9]>>[C:1]([C:2]1=[O+:3][C-:5]=[C:6]([H:12])[C:4]1([H:10])[H:11])([H:7])([H:8])[H:9]"
C       -1.41139754       1.02902160      -0.29829964
C       -0.82798491      -0.26574280       0.16496038
O       -1.16670501      -0.72875966       1.23628149
C        0.50005087      -0.79875146      -0.31951659
C        1.21735256      -0.54902086       1.35264479
C        2.09246501      -0.15338222       0.55397240
H       -2.40088959       1.17140810       0.12892619
H       -1.46061712       1.01694339      -1.38878929
H       -0.77120484       1.87128587      -0.02805477
H        0.68060911      -0.47226364      -1.34942261
H        0.39196105      -1.87480370      -0.49970478
H        3.15636041      -0.24593462       0.44700243
12
Frame=16 idx=000720 GeodesicLength=1.1462243300158304 rxn_smarts="[C:1]([C:2](=[O:3])[C:4]([C:5]#[C:6][H:12])([H:10])[H:11])([H:7])([H:8])[H:9]>>[C:1]([C:2]1=[O+:3][C-:5]=[C:6]([H:12])[C:4]1([H:10])[H:11])([H:7])([H:8])[H:9]"
C       -1.38817216       1.03325487      -0.29559418
C       -0.82082280      -0.26969642       0.16293975
O       -1.13273896      -0.70398362       1.25529861
C        0.48824058      -0.83577047      -0.33502762
C        1.22046267      -0.63674171       1.34399876
C        2.04738893      -0.11775767       0.56354233
H       -2.37634120       1.18376658       0.13202004
H       -1.43537606       1.02588800      -1.38610182
H       -0.74082105       1.86925729      -0.02279089
H        0.67054726      -0.51451865      -1.36655017
H        0.35121761      -1.90797185      -0.51750252
H        3.11641519      -0.12572634       0.46576771
