11
Frame=0 idx=011502 GeodesicLength=0.0 rxn_smarts="[N:1](=[c:2]1/[c:3]([H:9])[n:4][c:5]([H:10])[c:6]([H:11])[o:7]1)\[H:8]>>[N:1](=[C:2]1/[C:3]([H:9])=[N:4][C:5]([H:10])([H:11])[C-:6]=[O+:7]1)\[H:8]"
N        2.34940326       0.17738558       0.06387235
C        1.09417713       0.14009496       0.03959223
C        0.38855679      -1.15537457      -0.01777291
N       -0.87354180      -1.29000781       0.01693042
C       -1.58156289      -0.06823242       0.14511267
C       -1.04139689       1.21813491       0.21550396
O        0.31565925       1.26985314       0.03299161
H        2.69081131       1.13663814       0.08841765
H        1.02569545      -2.03181566      -0.10714073
H       -2.63968471      -0.17026829       0.36015490
H       -1.72811688       0.77359206      -0.83766210
11
Frame=1 idx=011502 GeodesicLength=0.03105508694707371 rxn_smarts="[N:1](=[c:2]1/[c:3]([H:9])[n:4][c:5]([H:10])[c:6]([H:11])[o:7]1)\[H:8]>>[N:1](=[C:2]1/[C:3]([H:9])=[N:4][C:5]([H:10])([H:11])[C-:6]=[O+:7]1)\[H:8]"
N        2.35096625       0.17804539       0.06378943
C        1.09589465       0.13786252       0.04376774
C        0.39000001      -1.15694832      -0.01805848
N       -0.87252056      -1.29007314       0.00015907
C       -1.58351275      -0.07073646       0.13379059
C       -1.03920035       1.21319941       0.22002604
O        0.31603102       1.26814128       0.04209184
H        2.69080867       1.13806596       0.07561248
H        1.02772827      -2.03476796      -0.08702854
H       -2.63768064      -0.17506047       0.36649457
H       -1.73851456       0.79227180      -0.84064475
11
Frame=2 idx=011502 GeodesicLength=0.0620834144663158 rxn_smarts="[N:1](=[c:2]1/[c:3]([H:9])[n:4][c:5]([H:10])[c:6]([H:11])[o:7]1)\[H:8]>>[N:1](=[C:2]1/[C:3]([H:9])=[N:4][C:5]([H:10])([H:11])[C-:6]=[O+:7]1)\[H:8]"
N        2.35254627       0.17874385       0.06200387
C        1.09762760       0.13558915       0.04837068
C        0.39145452      -1.15855726      -0.01771820
N       -0.87129286      -1.28998280      -0.01664377
C       -1.58542162      -0.07316469       0.12221895
C       -1.03705081       1.20817650       0.22430232
O        0.31638938       1.26635057       0.05133639
H        2.69062865       1.13942815       0.06361561
H        1.02932461      -2.03758113      -0.06667366
H       -2.63530417      -0.18017926       0.37254798
H       -1.74890157       0.81117692      -0.84336018
11
Frame=3 idx=011502 GeodesicLength=0.09308540660049408 rxn_smarts="[N:1](=[c:2]1/[c:3]([H:9])[n:4][c:5]([H:10])[c:6]([H:11])[o:7]1)\[H:8]>>[N:1](=[C:2]1/[C:3]([H:9])=[N:4][C:5]([H:10])([H:11])[C-:6]=[O+:7]1)\[H:8]"
N        2.35413464       0.17940105       0.05906680
C        1.09941112       0.13333254       0.05161290
C        0.39288046      -1.16019997      -0.01673337
N       -0.86988786      -1.28977381      -0.03186932
C       -1.58718899      -0.07536543       0.11109784
C       -1.03475004       1.20336748       0.22701956
O        0.31679491       1.26456371       0.05823245
H        2.69035448       1.14070142       0.05598971
H        1.03047248      -2.04017900      -0.04832391
H       -2.63224661      -0.18514123       0.37996100
H       -1.75997460       0.82929324      -0.84605366
11
Frame=4 idx=011502 GeodesicLength=0.12408639851636544 rxn_smarts="[N:1](=[c:2]1/[c:3]([H:9])[n:4][c:5]([H:10])[c:6]([H:11])[o:7]1)\[H:8]>>[N:1](=[C:2]1/[C:3]([H:9])=[N:4][C:5]([H:10])([H:11])[C-:6]=[O+:7]1)\[H:8]"
N        2.35568413       0.18002996       0.05660125
C        1.10118801       0.13103843       0.05587067
C        0.39427046      -1.16187375      -0.01477392
N       -0.86831001      -1.28946016      -0.04679112
C       -1.58896090      -0.07749605       0.09976328
C       -1.03254498       1.19853016       0.22947462
O        0.31717965       1.26272895       0.06554590
H        2.68996964       1.14195131       0.04711672
H        1.03131751      -2.04261709      -0.03099711
H       -2.62891861      -0.19035313       0.38681631
H       -1.77087489       0.84752136      -0.84862659
11
Frame=5 idx=011502 GeodesicLength=0.15508783124979464 rxn_smarts="[N:1](=[c:2]1/[c:3]([H:9])[n:4][c:5]([H:10])[c:6]([H:11])[o:7]1)\[H:8]>>[N:1](=[C:2]1/[C:3]([H:9])=[N:4][C:5]([H:10])([H:11])[C-:6]=[O+:7]1)\[H:8]"
N        2.35717287       0.18067038       0.05366873
C        1.10296123       0.12869424       0.06118173
C        0.39563416      -1.16355715      -0.01246966
N       -0.86651271      -1.28900130      -0.06229377
C       -1.59072156      -0.07961182       0.08799265
C       -1.03045167       1.19354136       0.23220032
O        0.31753028       1.26082166       0.07393918
H        2.68941559       1.14315012       0.03670156
H        1.03186636      -2.04499369      -0.01287050
H       -2.62534193      -0.19604702       0.39272688
H       -1.78155263       0.86633323      -0.85077712
11
Frame=6 idx=011502 GeodesicLength=0.18606899887148953 rxn_smarts="[N:1](=[c:2]1/[c:3]([H:9])[n:4][c:5]([H:10])[c:6]([H:11])[o:7]1)\[H:8]>>[N:1](=[C:2]1/[C:3]([H:9])=[N:4][C:5]([H:10])([H:11])[C-:6]=[O+:7]1)\[H:8]"
N        2.35862229       0.18124551       0.05115866
C        1.10474227       0.12634726       0.06623954
C        0.39693423      -1.16524702      -0.00956211
N       -0.86456195      -1.28845951      -0.07664701
C       -1.59240695      -0.08156988       0.07646864
C       -1.02831323       1.18871254       0.23390106
O        0.31788886       1.25892299       0.08112449
H        2.68878360       1.14427738       0.02764987
H        1.03216936      -2.04724208       0.00337741
H       -2.62127467      -0.20167762       0.39915200
H       -1.79258381       0.88469042      -0.85286256
11
Frame=7 idx=011502 GeodesicLength=0.21705955954278336 rxn_smarts="[N:1](=[c:2]1/[c:3]([H:9])[n:4][c:5]([H:10])[c:6]([H:11])[o:7]1)\[H:8]>>[N:1](=[C:2]1/[C:3]([H:9])=[N:4][C:5]([H:10])([H:11])[C-:6]=[O+:7]1)\[H:8]"
N        2.36002396       0.18176462       0.04865206
C        1.10652576       0.12399571       0.07133610
C        0.39815701      -1.16693765      -0.00606109
N       -0.86247572      -1.28784118      -0.09015774
C       -1.59404974      -0.08340681       0.06509680
C       -1.02616150       1.18401617       0.23478864
O        0.31824866       1.25703798       0.08749228
H        2.68810221       1.14533725       0.01963188
H        1.03231118      -2.04942371       0.01823977
H       -2.61678168      -0.20729846       0.40582375
H       -1.80390015       0.90275609      -0.85484245
11
Frame=8 idx=011502 GeodesicLength=0.24808392006351093 rxn_smarts="[N:1](=[c:2]1/[c:3]([H:9])[n:4][c:5]([H:10])[c:6]([H:11])[o:7]1)\[H:8]>>[N:1](=[C:2]1/[C:3]([H:9])=[N:4][C:5]([H:10])([H:11])[C-:6]=[O+:7]1)\[H:8]"
N        2.36135065       0.18229550       0.04721747
C        1.10829425       0.12159231       0.07786599
C        0.39936744      -1.16860750      -0.00259927
N       -0.86011631      -1.28705215      -0.10465410
C       -1.59565428      -0.08525420       0.05317844
C       -1.02415077       1.17912048       0.23630044
O        0.31855664       1.25507696       0.09554825
H        2.68711980       1.14628759       0.00800502
H        1.03222178      -2.05159258       0.03423574
H       -2.61212278      -0.21352496       0.41112394
H       -1.81486643       0.92165855      -0.85622192
11
Frame=9 idx=011502 GeodesicLength=0.2790381013128475 rxn_smarts="[N:1](=[c:2]1/[c:3]([H:9])[n:4][c:5]([H:10])[c:6]([H:11])[o:7]1)\[H:8]>>[N:1](=[C:2]1/[C:3]([H:9])=[N:4][C:5]([H:10])([H:11])[C-:6]=[O+:7]1)\[H:8]"
N        2.36262990       0.18286532       0.04562849
C        1.11010142       0.11913291       0.08507356
C        0.40063017      -1.17026199       0.00022550
N       -0.85740099      -1.28602718      -0.12032680
C       -1.59712541      -0.08709271       0.04077762
C       -1.02218969       1.17398182       0.23833738
O        0.31883869       1.25299722       0.10478916
H        2.68578943       1.14711816      -0.00550472
H        1.03160195      -2.05366996       0.05235193
H       -2.60711323      -0.22040095       0.41539627
H       -1.82576223       0.94135736      -0.85674838
11
Frame=10 idx=011502 GeodesicLength=0.31004975196508694 rxn_smarts="[N:1](=[c:2]1/[c:3]([H:9])[n:4][c:5]([H:10])[c:6]([H:11])[o:7]1)\[H:8]>>[N:1](=[C:2]1/[C:3]([H:9])=[N:4][C:5]([H:10])([H:11])[C-:6]=[O+:7]1)\[H:8]"
N        2.36389191       0.18331672       0.04478268
C        1.11189086       0.11671893       0.09145735
C        0.40175893      -1.17189726       0.00390599
N       -0.85466667      -1.28500137      -0.13412100
C       -1.59856348      -0.08874761       0.02903665
C       -1.02011218       1.16923979       0.23867680
O        0.31915294       1.25104198       0.11158275
H        2.68457761       1.14780974      -0.01607651
H        1.03103741      -2.05570144       0.06721681
H       -2.60154206      -0.22684805       0.42094920
H       -1.83742527       0.96006856      -0.85741073
11
Frame=11 idx=011502 GeodesicLength=0.34108991526540955 rxn_smarts="[N:1](=[c:2]1/[c:3]([H:9])[n:4][c:5]([H:10])[c:6]([H:11])[o:7]1)\[H:8]>>[N:1](=[C:2]1/[C:3]([H:9])=[N:4][C:5]([H:10])([H:11])[C-:6]=[O+:7]1)\[H:8]"
N        2.36516795       0.18367971       0.04445666
C        1.11368179       0.11433783       0.09710868
C        0.40281509      -1.17350516       0.00741233
N       -0.85185816      -1.28391592      -0.14722987
C       -1.59994969      -0.09030612       0.01766630
C       -1.01792593       1.16469761       0.23797918
O        0.31949673       1.24916117       0.11669479
H        2.68347063       1.14836890      -0.02474040
H        1.03033416      -2.05767899       0.08104210
H       -2.59537550      -0.23321160       0.42734889
H       -1.84985707       0.97837257      -0.85773866
11
Frame=12 idx=011502 GeodesicLength=0.3721710683186911 rxn_smarts="[N:1](=[c:2]1/[c:3]([H:9])[n:4][c:5]([H:10])[c:6]([H:11])[o:7]1)\[H:8]>>[N:1](=[C:2]1/[C:3]([H:9])=[N:4][C:5]([H:10])([H:11])[C-:6]=[O+:7]1)\[H:8]"
N        2.36645094       0.18397098       0.04446329
C        1.11547915       0.11197005       0.10235598
C        0.40384552      -1.17507558       0.01047424
N       -0.84892737      -1.28273579      -0.16028426
C       -1.60128946      -0.09181964       0.00645122
C       -1.01567160       1.16023956       0.23668168
O        0.31986142       1.24732003       0.12083972
H        2.68243264       1.14881182      -0.03247427
H        1.02939385      -2.05960133       0.09489972
H       -2.58866756      -0.23970460       0.43410487
H       -1.86290753       0.99662452      -0.85751218
11
Frame=13 idx=011502 GeodesicLength=0.403263884909531 rxn_smarts="[N:1](=[c:2]1/[c:3]([H:9])[n:4][c:5]([H:10])[c:6]([H:11])[o:7]1)\[H:8]>>[N:1](=[C:2]1/[C:3]([H:9])=[N:4][C:5]([H:10])([H:11])[C-:6]=[O+:7]1)\[H:8]"
N        2.36773343       0.18425991       0.04536175
C        1.11727601       0.10959818       0.10804340
C        0.40488382      -1.17660857       0.01324414
N       -0.84576449      -1.28140245      -0.17377092
C       -1.60255926      -0.09331097      -0.00489029
C       -1.01342787       1.15576493       0.23525910
O        0.32021354       1.24548173       0.12505649
H        2.68125332       1.14905086      -0.04135548
H        1.02817641      -2.06146342       0.10919795
H       -2.58155569      -0.24652286       0.44046701
H       -1.87622922       1.01515267      -0.85661316
11
Frame=14 idx=011502 GeodesicLength=0.4343760471268042 rxn_smarts="[N:1](=[c:2]1/[c:3]([H:9])[n:4][c:5]([H:10])[c:6]([H:11])[o:7]1)\[H:8]>>[N:1](=[C:2]1/[C:3]([H:9])=[N:4][C:5]([H:10])([H:11])[C-:6]=[O+:7]1)\[H:8]"
N        2.36904095       0.18451554       0.04689591
C        1.11907844       0.10724208       0.11370884
C        0.40592720      -1.17809787       0.01562154
N       -0.84242989      -1.27994027      -0.18737565
C       -1.60377517      -0.09476932      -0.01616473
C       -1.01114854       1.15135146       0.23339141
O        0.32057871       1.24368150       0.12871329
H        2.68007442       1.14910120      -0.05019526
H        1.02668727      -2.06325517       0.12363390
H       -2.57397468      -0.25352968       0.44684989
H       -1.89005870       1.03370053      -0.85507914
11
Frame=15 idx=011502 GeodesicLength=0.4655347071080653 rxn_smarts="[N:1](=[c:2]1/[c:3]([H:9])[n:4][c:5]([H:10])[c:6]([H:11])[o:7]1)\[H:8]>>[N:1](=[C:2]1/[C:3]([H:9])=[N:4][C:5]([H:10])([H:11])[C-:6]=[O+:7]1)\[H:8]"
N        2.37037547       0.18477609       0.04943729
C        1.12087174       0.10491162       0.11947146
C        0.40701268      -1.17954981       0.01751287
N       -0.83890034      -1.27834547      -0.20121315
C       -1.60493317      -0.09620309      -0.02740191
C       -1.00885734       1.14699504       0.23118495
O        0.32093518       1.24193576       0.13202755
H        2.67885179       1.14888789      -0.05958821
H        1.02492572      -2.06498136       0.13832959
H       -2.56595269      -0.26077014       0.45308654
H       -1.90432904       1.05234349      -0.85284697
11
Frame=16 idx=011502 GeodesicLength=0.49660101445613575 rxn_smarts="[N:1](=[c:2]1/[c:3]([H:9])[n:4][c:5]([H:10])[c:6]([H:11])[o:7]1)\[H:8]>>[N:1](=[C:2]1/[C:3]([H:9])=[N:4][C:5]([H:10])([H:11])[C-:6]=[O+:7]1)\[H:8]"
N        2.37171907       0.18493364       0.05214269
C        1.12263264       0.10263223       0.12442850
C        0.40798625      -1.18093312       0.01932373
N       -0.83546772      -1.27677703      -0.21395744
C       -1.60611384      -0.09761419      -0.03806180
C       -1.00640911       1.14289111       0.22765642
O        0.32137990       1.24027319       0.13331611
H        2.67795884       1.14862021      -0.06627780
H        1.02307709      -2.06659314       0.15148311
H       -2.55737488      -0.26767938       0.46029214
H       -1.91938824       1.07024648      -0.85034566
