15
Frame=0 idx=008648 GeodesicLength=0.0 rxn_smarts="[C:1]([C@@:2]1([H:11])[O:3][C:4]12[C:5]([H:12])([H:13])[O:6][C:7]2([H:14])[H:15])([H:8])([H:9])[H:10]>>[C:1]([C@@:2]1([H:11])[O:3][C:4]12[C-:5]([H:13])[O+:6]=[C:7]2[H:14])([H:8])([H:9])[H:10].[H:12][H:15]"
C        1.98277475      -0.35871189       0.45187077
C        0.93105932       0.69398078       0.27766192
O        0.68075631       1.14998692      -1.04974553
C       -0.32528851       0.41422891      -0.39462232
C       -1.76323465       0.86066772      -0.24309000
O       -2.13711564      -0.22755293      -1.00235109
C       -0.96875402      -0.83115708      -0.90807463
H        1.86680440      -0.84613699       1.42142992
H        1.90453607      -1.11372068      -0.33095474
H        2.97854150       0.08510642       0.40702531
H        0.91368896       1.49086077       1.01782638
H       -1.70752568      -0.29714336       1.16073354
H       -2.22324019       1.80851420      -0.48934861
H       -0.76322106      -1.80069389      -1.32922728
H       -1.36978163      -1.02822890       1.01086643
15
Frame=1 idx=008648 GeodesicLength=0.08057886841450276 rxn_smarts="[C:1]([C@@:2]1([H:11])[O:3][C:4]12[C:5]([H:12])([H:13])[O:6][C:7]2([H:14])[H:15])([H:8])([H:9])[H:10]>>[C:1]([C@@:2]1([H:11])[O:3][C:4]12[C-:5]([H:13])[O+:6]=[C:7]2[H:14])([H:8])([H:9])[H:10].[H:12][H:15]"
C        1.98127962      -0.35835890       0.45117156
C        0.93138954       0.69560572       0.27404422
O        0.68331943       1.15100405      -1.05372710
C       -0.32447176       0.41739592      -0.40161222
C       -1.76207704       0.85803690      -0.23560787
O       -2.13688304      -0.22477359      -1.00505424
C       -0.96801623      -0.83668845      -0.89722533
H        1.86256472      -0.84517586       1.42073574
H        1.90324097      -1.11389645      -0.33115159
H        2.97767201       0.08418715       0.40781998
H        0.91331424       1.49235149       1.01437228
H       -1.71586077      -0.28889582       1.16195261
H       -2.21863495       1.80798016      -0.48151805
H       -0.75486073      -1.80040750      -1.32807989
H       -1.37197600      -1.03836481       1.00387992
15
Frame=2 idx=008648 GeodesicLength=0.16115785019559975 rxn_smarts="[C:1]([C@@:2]1([H:11])[O:3][C:4]12[C:5]([H:12])([H:13])[O:6][C:7]2([H:14])[H:15])([H:8])([H:9])[H:10]>>[C:1]([C@@:2]1([H:11])[O:3][C:4]12[C-:5]([H:13])[O+:6]=[C:7]2[H:14])([H:8])([H:9])[H:10].[H:12][H:15]"
C        1.97974707      -0.35802633       0.45045340
C        0.93165476       0.69717645       0.27043718
O        0.68586988       1.15204758      -1.05767072
C       -0.32369171       0.42050585      -0.40866791
C       -1.76080966       0.85545109      -0.22825823
O       -2.13667123      -0.22209220      -1.00748886
C       -0.96723051      -0.84204560      -0.88653946
H        1.85826681      -0.84429914       1.41997968
H        1.90196242      -1.11404254      -0.33142033
H        2.97674612       0.08328692       0.40866366
H        0.91284320       1.49374772       1.01097110
H       -1.72433385      -0.28021135       1.16333128
H       -2.21401366       1.80741498      -0.47387905
H       -0.74649325      -1.79995429      -1.32672480
H       -1.37384637      -1.04895915       0.99681307
15
Frame=3 idx=008648 GeodesicLength=0.24173426105415521 rxn_smarts="[C:1]([C@@:2]1([H:11])[O:3][C:4]12[C:5]([H:12])([H:13])[O:6][C:7]2([H:14])[H:15])([H:8])([H:9])[H:10]>>[C:1]([C@@:2]1([H:11])[O:3][C:4]12[C-:5]([H:13])[O+:6]=[C:7]2[H:14])([H:8])([H:9])[H:10].[H:12][H:15]"
C        1.97818282      -0.35771242       0.44971804
C        0.93185510       0.69869119       0.26685056
O        0.68840476       1.15311805      -1.06156548
C       -0.32294936       0.42355891      -0.41577640
C       -1.75943383       0.85291675      -0.22104329
O       -2.13649563      -0.21951321      -1.00964790
C       -0.96639149      -0.84722948      -0.87602073
H        1.85392987      -0.84350178       1.41916680
H        1.90070018      -1.11416057      -0.33175553
H        2.97576787       0.08240994       0.40954550
H        0.91227837       1.49504654       1.00763382
H       -1.73296350      -0.27104667       1.16487657
H       -2.20937467       1.80682371      -0.46645181
H       -0.73813975      -1.79934734      -1.32517596
H       -1.37537074      -1.06005361       0.98964582
15
Frame=4 idx=008648 GeodesicLength=0.3223056439454555 rxn_smarts="[C:1]([C@@:2]1([H:11])[O:3][C:4]12[C:5]([H:12])([H:13])[O:6][C:7]2([H:14])[H:15])([H:8])([H:9])[H:10]>>[C:1]([C@@:2]1([H:11])[O:3][C:4]12[C-:5]([H:13])[O+:6]=[C:7]2[H:14])([H:8])([H:9])[H:10].[H:12][H:15]"
C        1.97659189      -0.35741553       0.44896788
C        0.93199061       0.70014827       0.26329354
O        0.69092113       1.15421502      -1.06540120
C       -0.32224587       0.42655515      -0.42292492
C       -1.75795139       0.85043998      -0.21396464
O       -2.13637193      -0.21704123      -1.01152342
C       -0.96549460      -0.85224129      -0.86567279
H        1.84957189      -0.84277783       1.41830321
H        1.89945315      -1.11425277      -0.33215036
H        2.97474096       0.08155969       0.41045529
H        0.91162239       1.49624573       1.00436999
H       -1.74176625      -0.26135206       1.16659953
H       -2.20471688       1.80621083      -0.45925581
H       -0.72981977      -1.79859837      -1.32344975
H       -1.37652532      -1.07169559       0.98235347
15
Frame=5 idx=008648 GeodesicLength=0.4028733195846301 rxn_smarts="[C:1]([C@@:2]1([H:11])[O:3][C:4]12[C:5]([H:12])([H:13])[O:6][C:7]2([H:14])[H:15])([H:8])([H:9])[H:10]>>[C:1]([C@@:2]1([H:11])[O:3][C:4]12[C-:5]([H:13])[O+:6]=[C:7]2[H:14])([H:8])([H:9])[H:10].[H:12][H:15]"
C        1.97497325      -0.35713557       0.44820825
C        0.93206280       0.70155044       0.25976727
O        0.69341554       1.15533040      -1.06917978
C       -0.32158249       0.42949390      -0.43010380
C       -1.75636395       0.84802405      -0.20702063
O       -2.13631539      -0.21468422      -1.01310335
C       -0.96453641      -0.85708764      -0.85549149
H        1.84518919      -0.84212392       1.41739574
H        1.89821945      -1.11432229      -0.33259645
H        2.97366557       0.08073287       0.41139515
H        0.91088480       1.49735736       1.00117096
H       -1.75076234      -0.25107228       1.16851428
H       -2.20003949       1.80558155      -0.45229131
H       -0.72153262      -1.79770571      -1.32158273
H       -1.37727789      -1.08393894       0.97491789
15
Frame=6 idx=008648 GeodesicLength=0.48343539411910236 rxn_smarts="[C:1]([C@@:2]1([H:11])[O:3][C:4]12[C:5]([H:12])([H:13])[O:6][C:7]2([H:14])[H:15])([H:8])([H:9])[H:10]>>[C:1]([C@@:2]1([H:11])[O:3][C:4]12[C-:5]([H:13])[O+:6]=[C:7]2[H:14])([H:8])([H:9])[H:10].[H:12][H:15]"
C        1.97333161      -0.35687120       0.44744296
C        0.93207154       0.70289543       0.25627925
O        0.69588434       1.15646170      -1.07289316
C       -0.32096083       0.43237386      -0.43730132
C       -1.75467368       0.84567520      -0.20021187
O       -2.13634334      -0.21244829      -1.01437504
C       -0.96351470      -0.86177138      -0.84547946
H        1.84079785      -0.84153268       1.41645286
H        1.89699777      -1.11437272      -0.33308465
H        2.97254501       0.07993339       0.41235835
H        0.91006622       1.49837851       0.99804482
H       -1.75996751      -0.24014177       1.17063878
H       -2.19534084       1.80494002      -0.44558025
H       -0.71329831      -1.79667529      -1.31960220
H       -1.37759512      -1.09684479       0.96731094
15
Frame=7 idx=008648 GeodesicLength=0.5639911941628788 rxn_smarts="[C:1]([C@@:2]1([H:11])[O:3][C:4]12[C:5]([H:12])([H:13])[O:6][C:7]2([H:14])[H:15])([H:8])([H:9])[H:10]>>[C:1]([C@@:2]1([H:11])[O:3][C:4]12[C-:5]([H:13])[O+:6]=[C:7]2[H:14])([H:8])([H:9])[H:10].[H:12][H:15]"
C        1.97166839      -0.35662248       0.44667692
C        0.93201696       0.70418261       0.25283435
O        0.69832325       1.15760251      -1.07653781
C       -0.32038296       0.43519294      -0.44450612
C       -1.75288328       0.84339860      -0.19353894
O       -2.13647324      -0.21034343      -1.01532172
C       -0.96242774      -0.86629905      -0.83563336
H        1.83640362      -0.84100009       1.41548225
H        1.89578638      -1.11440781      -0.33360624
H        2.97138063       0.07916091       0.41334327
H        0.90917094       1.49931266       0.99499206
H       -1.76940482      -0.22848490       1.17299314
H       -2.19062068       1.80429014      -0.43913858
H       -0.70512402      -1.79550303      -1.31754863
H       -1.37743344      -1.11047957       0.95950941
15
Frame=8 idx=008648 GeodesicLength=0.644540314833042 rxn_smarts="[C:1]([C@@:2]1([H:11])[O:3][C:4]12[C:5]([H:12])([H:13])[O:6][C:7]2([H:14])[H:15])([H:8])([H:9])[H:10]>>[C:1]([C@@:2]1([H:11])[O:3][C:4]12[C-:5]([H:13])[O+:6]=[C:7]2[H:14])([H:8])([H:9])[H:10].[H:12][H:15]"
C        1.96998437      -0.35638977       0.44591553
C        0.93189874       0.70541110       0.24943750
O        0.70072779       1.15874616      -1.08011012
C       -0.31985129       0.43794879      -0.45170703
C       -1.75099579       0.84119962      -0.18700249
O       -2.13672365      -0.20838134      -1.01592310
C       -0.96127413      -0.87067714      -0.82595062
H        1.83201111      -0.84052248       1.41449205
H        1.89458317      -1.11443149      -0.33415210
H        2.97017321       0.07841477       0.41434931
H        0.90820257       1.50016293       0.99201332
H       -1.77909551      -0.21601342       1.17560256
H       -2.18587938       1.80363519      -0.43298483
H       -0.69701625      -1.79418248      -1.31546416
H       -1.37674496      -1.12492044       0.95148418
15
Frame=9 idx=008648 GeodesicLength=0.7250823870039387 rxn_smarts="[C:1]([C@@:2]1([H:11])[O:3][C:4]12[C:5]([H:12])([H:13])[O:6][C:7]2([H:14])[H:15])([H:8])([H:9])[H:10]>>[C:1]([C@@:2]1([H:11])[O:3][C:4]12[C-:5]([H:13])[O+:6]=[C:7]2[H:14])([H:8])([H:9])[H:10].[H:12][H:15]"
C        1.96827965      -0.35617394       0.44516491
C        0.93171604       0.70657956       0.24609389
O        0.70309317       1.15988528      -1.08360642
C       -0.31936870       0.44063845      -0.45889281
C       -1.74901466       0.83908413      -0.18060363
O       -2.13711475      -0.20657615      -1.01615430
C       -0.96005296      -0.87491270      -0.81642856
H        1.82762404      -0.84009638       1.41349131
H        1.89338540      -1.11444840      -0.33471217
H        2.96892291       0.07769370       0.41537671
H        0.90716406       1.50093213       0.98910940
H       -1.78906261      -0.20262487       1.17849621
H       -2.18111801       1.80297795      -0.42714076
H       -0.68898104      -1.79270307      -1.31339621
H       -1.37547253      -1.14025569       0.94320242
15
Frame=10 idx=008648 GeodesicLength=0.8056173024650991 rxn_smarts="[C:1]([C@@:2]1([H:11])[O:3][C:4]12[C:5]([H:12])([H:13])[O:6][C:7]2([H:14])[H:15])([H:8])([H:9])[H:10]>>[C:1]([C@@:2]1([H:11])[O:3][C:4]12[C-:5]([H:13])[O+:6]=[C:7]2[H:14])([H:8])([H:9])[H:10].[H:12][H:15]"
C        1.96655377      -0.35597656       0.44443160
C        0.93146732       0.70768594       0.24280958
O        0.70541412       1.16101222      -1.08702204
C       -0.31893861       0.44325832      -0.46605165
C       -1.74694379       0.83705879      -0.17434447
O       -2.13766850      -0.20494516      -1.01598483
C       -0.95876361      -0.87901340      -0.80706384
H        1.82324549      -0.83971980       1.41248907
H        1.89219001      -1.11446335      -0.33527650
H        2.96762932       0.07699588       0.41642648
H        0.90605741       1.50162180       0.98628252
H       -1.79933480      -0.18820017       1.18170623
H       -2.17633843       1.80232068      -0.42163340
H       -0.68102469      -1.79104994      -1.31139716
H       -1.37354500      -1.15658527       0.93462840
15
Frame=11 idx=008648 GeodesicLength=0.8861465150321494 rxn_smarts="[C:1]([C@@:2]1([H:11])[O:3][C:4]12[C:5]([H:12])([H:13])[O:6][C:7]2([H:14])[H:15])([H:8])([H:9])[H:10]>>[C:1]([C@@:2]1([H:11])[O:3][C:4]12[C-:5]([H:13])[O+:6]=[C:7]2[H:14])([H:8])([H:9])[H:10].[H:12][H:15]"
C        1.96480823      -0.35579906       0.44371766
C        0.93115088       0.70872756       0.23959277
O        0.70768302       1.16212183      -1.09034883
C       -0.31856496       0.44580380      -0.47316885
C       -1.74478846       0.83513114      -0.16823005
O       -2.13840598      -0.20350989      -1.01538109
C       -0.95740458      -0.88298887      -0.79784781
H        1.81887582      -0.83940501       1.41148203
H        1.89100217      -1.11447237      -0.33584876
H        2.96629270       0.07632332       0.41750598
H        0.90488260       1.50223007       0.98354000
H       -1.80994721      -0.17259339       1.18527157
H       -2.17154032       1.80166635      -0.41649858
H       -0.67314617      -1.78921117      -1.30950503
H       -1.37089774      -1.17402429       0.92571897
15
Frame=12 idx=008648 GeodesicLength=0.9666725977162056 rxn_smarts="[C:1]([C@@:2]1([H:11])[O:3][C:4]12[C:5]([H:12])([H:13])[O:6][C:7]2([H:14])[H:15])([H:8])([H:9])[H:10]>>[C:1]([C@@:2]1([H:11])[O:3][C:4]12[C-:5]([H:13])[O+:6]=[C:7]2[H:14])([H:8])([H:9])[H:10].[H:12][H:15]"
C        1.96303879      -0.35564294       0.44303538
C        0.93076454       0.70970380       0.23644663
O        0.70989429       1.16319952      -1.09358799
C       -0.31825212       0.44826884      -0.48023383
C       -1.74255196       0.83330739      -0.16225852
O       -2.13935536      -0.20229421      -1.01429524
C       -0.95597646      -0.88684806      -0.78878034
H        1.81451033      -0.83913880       1.41049005
H        1.88981044      -1.11448924      -0.33640412
H        2.96491091       0.07566904       0.41861478
H        0.90364076       1.50276473       0.98087617
H       -1.82093079      -0.15564713       1.18923556
H       -2.16672261       1.80101715      -0.41176001
H       -0.66534933      -1.78715547      -1.30779750
H       -1.36743141      -1.19271462       0.91641898
15
Frame=13 idx=008648 GeodesicLength=1.0471985795003598 rxn_smarts="[C:1]([C@@:2]1([H:11])[O:3][C:4]12[C:5]([H:12])([H:13])[O:6][C:7]2([H:14])[H:15])([H:8])([H:9])[H:10]>>[C:1]([C@@:2]1([H:11])[O:3][C:4]12[C-:5]([H:13])[O+:6]=[C:7]2[H:14])([H:8])([H:9])[H:10].[H:12][H:15]"
C        1.96123898      -0.35551136       0.44239859
C        0.93030469       0.71061284       0.23337431
O        0.71204331       1.16423080      -1.09674065
C       -0.31800545       0.45064858      -0.48723786
C       -1.74023740       0.83159607      -0.15642758
O       -2.14055028      -0.20132652      -1.01266616
C       -0.95447987      -0.89059847      -0.77986412
H        1.81013910      -0.83891399       1.40953183
H        1.88860554      -1.11452474      -0.33692100
H        2.96347842       0.07502775       0.41976250
H        0.90233120       1.50323104       0.97828685
H       -1.83231436      -0.13717523       1.19364913
H       -2.16188685       1.80037330      -0.40745220
H       -0.65764496      -1.78485011      -1.30635335
H       -1.36302208      -1.21281996       0.90665971
15
Frame=14 idx=008648 GeodesicLength=1.1277234727842544 rxn_smarts="[C:1]([C@@:2]1([H:11])[O:3][C:4]12[C:5]([H:12])([H:13])[O:6][C:7]2([H:14])[H:15])([H:8])([H:9])[H:10]>>[C:1]([C@@:2]1([H:11])[O:3][C:4]12[C-:5]([H:13])[O+:6]=[C:7]2[H:14])([H:8])([H:9])[H:10].[H:12][H:15]"
C        1.95939935      -0.35541198       0.44182158
C        0.92976448       0.71144891       0.23038583
O        0.71412377       1.16520874      -1.09979746
C       -0.31783239       0.45293939      -0.49417018
C       -1.73785078       0.83000826      -0.15074136
O       -2.14202856      -0.20064588      -1.01041976
C       -0.95291336      -0.89424821      -0.77110007
H        1.80576147      -0.83872836       1.40862821
H        1.88737458      -1.11459127      -0.33738002
H        2.96198685       0.07438936       0.42095668
H        0.90095379       1.50362756       0.97577763
H       -1.84412405      -0.11694784       1.19856979
H       -2.15704907       1.79972782      -0.40363296
H       -0.65004631      -1.78225332      -1.30526281
H       -1.35751977      -1.23452318       0.89636489
15
Frame=15 idx=008648 GeodesicLength=1.2082526729545577 rxn_smarts="[C:1]([C@@:2]1([H:11])[O:3][C:4]12[C:5]([H:12])([H:13])[O:6][C:7]2([H:14])[H:15])([H:8])([H:9])[H:10]>>[C:1]([C@@:2]1([H:11])[O:3][C:4]12[C-:5]([H:13])[O+:6]=[C:7]2[H:14])([H:8])([H:9])[H:10].[H:12][H:15]"
C        1.95751020      -0.35534985       0.44131938
C        0.92913868       0.71220950       0.22748491
O        0.71612666       1.16611733      -1.10275892
C       -0.31774081       0.45513335      -0.50101937
C       -1.73539624       0.82855431      -0.14519793
O       -2.14383135      -0.20029632      -1.00746537
C       -0.95127642      -0.89780909      -0.76248608
H        1.80134709      -0.83859371       1.40778782
H        1.88611845      -1.11468933      -0.33777163
H        2.96042720       0.07374800       0.42223132
H        0.89950986       1.50396224       0.97334146
H       -1.85639410      -0.09469646       1.20406475
H       -2.15221507       1.79907628      -0.40035322
H       -0.64256519      -1.77932225      -1.30461328
H       -1.35075898      -1.25804400       0.88543616
15
Frame=16 idx=008648 GeodesicLength=1.2887890296084625 rxn_smarts="[C:1]([C@@:2]1([H:11])[O:3][C:4]12[C:5]([H:12])([H:13])[O:6][C:7]2([H:14])[H:15])([H:8])([H:9])[H:10]>>[C:1]([C@@:2]1([H:11])[O:3][C:4]12[C-:5]([H:13])[O+:6]=[C:7]2[H:14])([H:8])([H:9])[H:10].[H:12][H:15]"
C        1.95556368      -0.35533196       0.44090854
C        0.92841811       0.71288632       0.22468605
O        0.71804171       1.16694325      -1.10561250
C       -0.31774091       0.45722073      -0.50776791
C       -1.73288066       0.82724795      -0.13979939
O       -2.14600570      -0.20033239      -1.00369369
C       -0.94956825      -0.90129420      -0.75401874
H        1.79688998      -0.83851379       1.40702924
H        1.88482808      -1.11482915      -0.33807608
H        2.95879147       0.07309700       0.42359954
H        0.89799367       1.50423057       0.97098909
H       -1.86917036      -0.07010013       1.21020204
H       -2.14739647       1.79840976      -0.39769089
H       -0.63522369      -1.77600186      -1.30451100
H       -1.34254068      -1.28363210       0.87375571
