18
Frame=0 idx=010232 GeodesicLength=0.0 rxn_smarts="[C:1]([C:2]([C:3]([H:12])([H:13])[H:14])([N:4]([C:5]([H:15])([H:16])[H:17])[C:6](=[O:7])[H:18])[H:11])([H:8])([H:9])[H:10]>>[C:1]([C:2](=[N+:4]([C-:5]([H:15])[H:16])[C:6](=[O:7])[H:18])[H:11])([H:8])([H:9])[H:10].[C:3]([H:12])([H:13])([H:14])[H:17]"
C       -1.07676397      -1.36393118      -0.81578023
C       -0.36987058      -0.05443673      -0.87580942
C       -1.11596921       0.71970614       1.29811428
N        0.91563339       0.07126549      -0.50841251
C        1.29455227      -0.46654126       0.73310818
C        1.63644866       1.19063505      -0.97271721
O        1.29911678       1.87885147      -1.88761581
H       -0.92583100      -1.88854832       0.12589860
H       -2.14722984      -1.20982575      -0.94999000
H       -0.73378565      -2.01362716      -1.63022164
H       -0.67660575       0.65245795      -1.63838282
H       -0.96321132       1.78329334       1.11158689
H       -2.08328437       0.42018696       0.89949818
H       -1.16042866       0.56293112       2.38086106
H        1.15477077      -1.53943802       0.81815490
H        2.28775900      -0.15480547       1.04360417
H        0.09764694       0.07331474       1.27269159
H        2.56705257       1.33851159      -0.40458815
18
Frame=1 idx=010232 GeodesicLength=0.07760786294204132 rxn_smarts="[C:1]([C:2]([C:3]([H:12])([H:13])[H:14])([N:4]([C:5]([H:15])([H:16])[H:17])[C:6](=[O:7])[H:18])[H:11])([H:8])([H:9])[H:10]>>[C:1]([C:2](=[N+:4]([C-:5]([H:15])[H:16])[C:6](=[O:7])[H:18])[H:11])([H:8])([H:9])[H:10].[C:3]([H:12])([H:13])([H:14])[H:17]"
C       -1.07296337      -1.36803739      -0.81702314
C       -0.37780796      -0.05139243      -0.86506524
C       -1.11764847       0.72858464       1.29041580
N        0.91505055       0.06783157      -0.50945866
C        1.30579998      -0.47765889       0.72471815
C        1.63015704       1.19119274      -0.97223580
O        1.28608150       1.88407414      -1.88149711
H       -0.93427358      -1.89061814       0.12818456
H       -2.14255483      -1.22427086      -0.96845399
H       -0.70895044      -2.01747238      -1.62240985
H       -0.68425513       0.65418294      -1.62882048
H       -0.96104481       1.79175521       1.10452090
H       -2.09115579       0.44096041       0.89670663
H       -1.17736823       0.57101498       2.37229810
H        1.13990546      -1.54488203       0.83064358
H        2.31876432      -0.20534264       1.00651652
H        0.12544005       0.08849892       1.29865701
H        2.54682371       1.36157920      -0.38769697
18
Frame=2 idx=010232 GeodesicLength=0.15515682757076565 rxn_smarts="[C:1]([C:2]([C:3]([H:12])([H:13])[H:14])([N:4]([C:5]([H:15])([H:16])[H:17])[C:6](=[O:7])[H:18])[H:11])([H:8])([H:9])[H:10]>>[C:1]([C:2](=[N+:4]([C-:5]([H:15])[H:16])[C:6](=[O:7])[H:18])[H:11])([H:8])([H:9])[H:10].[C:3]([H:12])([H:13])([H:14])[H:17]"
C       -1.06883535      -1.37214332      -0.81844850
C       -0.38574016      -0.04839011      -0.85436038
C       -1.11955209       0.73704330       1.28293087
N        0.91424431       0.06464663      -0.51035152
C        1.31647873      -0.48800437       0.71670663
C        1.62415293       1.19167636      -0.97155865
O        1.27300366       1.88983214      -1.87454003
H       -0.94244814      -1.89281852       0.13005659
H       -2.13714818      -1.23882153      -0.98732847
H       -0.68380340      -2.02102475      -1.61437216
H       -0.69183632       0.65597508      -1.61922105
H       -0.95969070       1.79991706       1.09787620
H       -2.09911214       0.46140990       0.89420295
H       -1.19347868       0.57824651       2.36373953
H        1.12496929      -1.54847004       0.84461571
H        2.34732973      -0.25614965       0.96766426
H        0.15396340       0.10526683       1.32433703
H        2.52750311       1.38180848      -0.37194900
18
Frame=3 idx=010232 GeodesicLength=0.23265460092616408 rxn_smarts="[C:1]([C:2]([C:3]([H:12])([H:13])[H:14])([N:4]([C:5]([H:15])([H:16])[H:17])[C:6](=[O:7])[H:18])[H:11])([H:8])([H:9])[H:10]>>[C:1]([C:2](=[N+:4]([C-:5]([H:15])[H:16])[C:6](=[O:7])[H:18])[H:11])([H:8])([H:9])[H:10].[C:3]([H:12])([H:13])([H:14])[H:17]"
C       -1.06434926      -1.37627172      -0.82005659
C       -0.39369268      -0.04543647      -0.84369740
C       -1.12174699       0.74511413       1.27564755
N        0.91318523       0.06178453      -0.51104098
C        1.32657853      -0.49754409       0.70912023
C        1.61827185       1.19227279      -0.97056662
O        1.25972134       1.89634193      -1.86651979
H       -0.95031146      -1.89518642       0.13150471
H       -2.13096680      -1.25352748      -1.00661268
H       -0.65828824      -2.02428909      -1.60609067
H       -0.69939360       0.65781166      -1.60959469
H       -0.95911899       1.80779405       1.09160915
H       -2.10720170       0.48150734       0.89198348
H       -1.20880688       0.58465335       2.35521285
H        1.11008327      -1.55014381       0.85995237
H        2.37312521      -0.30714033       0.92741449
H        0.18311653       0.12347539       1.34969870
H        2.50979464       1.39878424      -0.35796413
18
Frame=4 idx=010232 GeodesicLength=0.3101091384177514 rxn_smarts="[C:1]([C:2]([C:3]([H:12])([H:13])[H:14])([N:4]([C:5]([H:15])([H:16])[H:17])[C:6](=[O:7])[H:18])[H:11])([H:8])([H:9])[H:10]>>[C:1]([C:2](=[N+:4]([C-:5]([H:15])[H:16])[C:6](=[O:7])[H:18])[H:11])([H:8])([H:9])[H:10].[C:3]([H:12])([H:13])([H:14])[H:17]"
C       -1.05949518      -1.38044821      -0.82183368
C       -0.40167393      -0.04256032      -0.83309174
C       -1.12425428       0.75284329       1.26852268
N        0.91186577       0.05926522      -0.51151133
C        1.33612002      -0.50630387       0.70195414
C        1.61241071       1.19307256      -0.96920746
O        1.24606823       1.90378279      -1.85722259
H       -0.95782882      -1.89776029       0.13253000
H       -2.12399151      -1.26840648      -1.02624845
H       -0.63242944      -2.02728476      -1.59755107
H       -0.70694543       0.65964744      -1.59996898
H       -0.95921350       1.81540342       1.08565006
H       -2.11544154       0.50128015       0.89001558
H       -1.22337534       0.59028890       2.34671364
H        1.09537794      -1.54995131       0.87648526
H        2.39583107      -0.35817923       0.88615587
H        0.21282737       0.14292549       1.37470904
H        2.49414786       1.41238521      -0.34610097
18
Frame=5 idx=010232 GeodesicLength=0.38751128073083596 rxn_smarts="[C:1]([C:2]([C:3]([H:12])([H:13])[H:14])([N:4]([C:5]([H:15])([H:16])[H:17])[C:6](=[O:7])[H:18])[H:11])([H:8])([H:9])[H:10]>>[C:1]([C:2](=[N+:4]([C-:5]([H:15])[H:16])[C:6](=[O:7])[H:18])[H:11])([H:8])([H:9])[H:10].[C:3]([H:12])([H:13])([H:14])[H:17]"
C       -1.05429886      -1.38468335      -0.82376789
C       -0.40969353      -0.03980502      -0.82254760
C       -1.12706212       0.76028410       1.26154280
N        0.91028917       0.05705133      -0.51174313
C        1.34513975      -0.51439680       0.69520740
C        1.60653503       1.19405379      -0.96746807
O        1.23208488       1.91208235      -1.84665017
H       -0.96503992      -1.90055036       0.13316160
H       -2.11622865      -1.28344804      -1.04623517
H       -0.60628400      -2.03003384      -1.58875223
H       -0.71448717       0.66142417      -1.59036698
H       -0.95978262       1.82277788       1.07994809
H       -2.12382438       0.52081812       0.88827655
H       -1.23719059       0.59523609       2.33822563
H        1.08092977      -1.54799867       0.89400115
H        2.41551681      -0.40918254       0.84406459
H        0.24304899       0.16342343       1.39933870
H        2.48034745       1.42294739      -0.33623530
18
Frame=6 idx=010232 GeodesicLength=0.4649206472007366 rxn_smarts="[C:1]([C:2]([C:3]([H:12])([H:13])[H:14])([N:4]([C:5]([H:15])([H:16])[H:17])[C:6](=[O:7])[H:18])[H:11])([H:8])([H:9])[H:10]>>[C:1]([C:2](=[N+:4]([C-:5]([H:15])[H:16])[C:6](=[O:7])[H:18])[H:11])([H:8])([H:9])[H:10].[C:3]([H:12])([H:13])([H:14])[H:17]"
C       -1.04878344      -1.38899708      -0.82583124
C       -0.41775446      -0.03720203      -0.81209734
C       -1.13012304       0.76749923       1.25464278
N        0.90847085       0.05512762      -0.51178034
C        1.35369512      -0.52188614       0.68879333
C        1.60061608       1.19519930      -0.96545108
O        1.21772993       1.92116076      -1.83487304
H       -0.97193216      -1.90357965       0.13340985
H       -2.10769901      -1.29863505      -1.06646869
H       -0.57993027      -2.03257371      -1.57965463
H       -0.72203338       0.66309644      -1.58083071
H       -0.96063680       1.82994066       1.07443576
H       -2.13231518       0.54019357       0.88674096
H       -1.25021552       0.59954722       2.32974273
H        1.06687227      -1.54439837       0.91229480
H        2.43185970      -0.46024202       0.80144128
H        0.27381771       0.18474897       1.42355124
H        2.46836160       1.43100029      -0.32806567
18
Frame=7 idx=010232 GeodesicLength=0.5423535199100938 rxn_smarts="[C:1]([C:2]([C:3]([H:12])([H:13])[H:14])([N:4]([C:5]([H:15])([H:16])[H:17])[C:6](=[O:7])[H:18])[H:11])([H:8])([H:9])[H:10]>>[C:1]([C:2](=[N+:4]([C-:5]([H:15])[H:16])[C:6](=[O:7])[H:18])[H:11])([H:8])([H:9])[H:10].[C:3]([H:12])([H:13])([H:14])[H:17]"
C       -1.04297544      -1.39339336      -0.82800271
C       -0.42586129      -0.03478041      -0.80175336
C       -1.13340968       0.77453669       1.24778709
N        0.90642413       0.05346548      -0.51164024
C        1.36183531      -0.52886672       0.68266151
C        1.59463593       1.19648254      -0.96320736
O        1.20304527       1.93088000      -1.82199501
H       -0.97852441      -1.90685122       0.13330106
H       -2.09842187      -1.31393987      -1.08689846
H       -0.55343455      -2.03492190      -1.57024225
H       -0.72958332       0.66462163      -1.57138640
H       -0.96159602       1.83691119       1.06907535
H       -2.14089205       0.55949515       0.88538063
H       -1.26245213       0.60327525       2.32124645
H        1.05330298      -1.53927770       0.93115673
H        2.44481415      -0.51136283       0.75849713
H        0.30515963       0.20670906       1.44732937
H        2.45793335       1.43701703      -0.32130954
18
Frame=8 idx=010232 GeodesicLength=0.6198456832561184 rxn_smarts="[C:1]([C:2]([C:3]([H:12])([H:13])[H:14])([N:4]([C:5]([H:15])([H:16])[H:17])[C:6](=[O:7])[H:18])[H:11])([H:8])([H:9])[H:10]>>[C:1]([C:2](=[N+:4]([C-:5]([H:15])[H:16])[C:6](=[O:7])[H:18])[H:11])([H:8])([H:9])[H:10].[C:3]([H:12])([H:13])([H:14])[H:17]"
C       -1.03689551      -1.39787324      -0.83025841
C       -0.43401410      -0.03255637      -0.79152251
C       -1.13690379       0.78143900       1.24093938
N        0.90416344       0.05204822      -0.51133589
C        1.36961977      -0.53542039       0.67674771
C        1.58858060       1.19789536      -0.96076912
O        1.18808656       1.94108328      -1.80817392
H       -0.98482082      -1.91036524       0.13285940
H       -2.08841601      -1.32933554      -1.10746225
H       -0.52685959      -2.03709173      -1.56049624
H       -0.73713583       0.66597086      -1.56205412
H       -0.96250655       1.84370482       1.06384081
H       -2.14954107       0.57880845       0.88416361
H       -1.27392290       0.60645846       2.31271519
H        1.04031678      -1.53276925       0.95039049
H        2.45432202      -0.56255920       0.71540169
H        0.33712132       0.22912122       1.47068146
H        2.44880569       1.44144133      -0.31566727
18
Frame=9 idx=010232 GeodesicLength=0.6974050127734837 rxn_smarts="[C:1]([C:2]([C:3]([H:12])([H:13])[H:14])([N:4]([C:5]([H:15])([H:16])[H:17])[C:6](=[O:7])[H:18])[H:11])([H:8])([H:9])[H:10]>>[C:1]([C:2](=[N+:4]([C-:5]([H:15])[H:16])[C:6](=[O:7])[H:18])[H:11])([H:8])([H:9])[H:10].[C:3]([H:12])([H:13])([H:14])[H:17]"
C       -1.03058682      -1.40242780      -0.83258440
C       -0.44221569      -0.03055200      -0.78139686
C       -1.14059196       0.78823362       1.23408196
N        0.90170039       0.05082090      -0.51086558
C        1.37710403      -0.54168582       0.67100440
C        1.58245384       1.19938613      -0.95814124
O        1.17296222       1.95157511      -1.79355724
H       -0.99087552      -1.91411421       0.13210936
H       -2.07771776      -1.34478235      -1.12814239
H       -0.50029988      -2.03908812      -1.55043226
H       -0.74467515       0.66711739      -1.55283759
H       -0.96320608       1.85033098       1.05872276
H       -2.15825205       0.59824039       0.88305789
H       -1.28466510       0.60911752       2.30411333
H        1.02793945      -1.52504643       0.96979486
H        2.46056947      -0.61357822       0.67231679
H        0.36977385       0.25181322       1.49361835
H        2.44058276       1.44463970      -0.31086213
18
Frame=10 idx=010232 GeodesicLength=0.7750611411057151 rxn_smarts="[C:1]([C:2]([C:3]([H:12])([H:13])[H:14])([N:4]([C:5]([H:15])([H:16])[H:17])[C:6](=[O:7])[H:18])[H:11])([H:8])([H:9])[H:10]>>[C:1]([C:2](=[N+:4]([C-:5]([H:15])[H:16])[C:6](=[O:7])[H:18])[H:11])([H:8])([H:9])[H:10].[C:3]([H:12])([H:13])([H:14])[H:17]"
C       -1.02404300      -1.40705934      -0.83495592
C       -0.45046723      -0.02876655      -0.77138860
C       -1.14447744       0.79495179       1.22717032
N        0.89904974       0.04980487      -0.51025241
C        1.38433857      -0.54766682       0.66536862
C        1.57623552       1.20098691      -0.95536997
O        1.15765855       1.96230925      -1.77823561
H       -0.99665295      -1.91809638       0.13107140
H       -2.06632480      -1.36026841      -1.14886503
H       -0.47376388      -2.04092319      -1.54002218
H       -0.75221162       0.66804601      -1.54376022
H       -0.96362432       1.85679613       1.05370154
H       -2.16702124       0.61783240       0.88203456
H       -1.29472621       0.61127278       2.29542924
H        1.01629354      -1.51618023       0.98924628
H        2.46334496      -0.66460495       0.62941682
H        0.40319868       0.27466572       1.51615558
H        2.43319314       1.44689999      -0.30674443
18
Frame=11 idx=010232 GeodesicLength=0.8528317834751306 rxn_smarts="[C:1]([C:2]([C:3]([H:12])([H:13])[H:14])([N:4]([C:5]([H:15])([H:16])[H:17])[C:6](=[O:7])[H:18])[H:11])([H:8])([H:9])[H:10]>>[C:1]([C:2](=[N+:4]([C-:5]([H:15])[H:16])[C:6](=[O:7])[H:18])[H:11])([H:8])([H:9])[H:10].[C:3]([H:12])([H:13])([H:14])[H:17]"
C       -1.01727754      -1.41176291      -0.83735648
C       -0.45876704      -0.02720753      -0.76149632
C       -1.14856908       0.80161014       1.22017233
N        0.89622491       0.04898608      -0.50950390
C        1.39136533      -0.55342428       0.65979273
C        1.56991611       1.20269616      -0.95246757
O        1.14219995       1.97319782      -1.76229928
H       -1.00216070      -1.92230620       0.12976606
H       -2.05425365      -1.37576694      -1.16958797
H       -0.44729553      -2.04259924      -1.52926352
H       -0.75974117       0.66873953      -1.53483056
H       -0.96368467       1.86310066       1.04877038
H       -2.17585163       0.63764551       0.88105807
H       -1.30416777       0.61292852       2.28663219
H        1.00542188      -1.50628407       1.00862022
H        2.46267629      -0.71558396       0.58684103
H        0.43749612       0.29757497       1.53831729
H        2.42646820       1.44845574      -0.30316471
18
Frame=12 idx=010232 GeodesicLength=0.9307385951049695 rxn_smarts="[C:1]([C:2]([C:3]([H:12])([H:13])[H:14])([N:4]([C:5]([H:15])([H:16])[H:17])[C:6](=[O:7])[H:18])[H:11])([H:8])([H:9])[H:10]>>[C:1]([C:2](=[N+:4]([C-:5]([H:15])[H:16])[C:6](=[O:7])[H:18])[H:11])([H:8])([H:9])[H:10].[C:3]([H:12])([H:13])([H:14])[H:17]"
C       -1.01030117      -1.41653067      -0.83977475
C       -0.46711615      -0.02587828      -0.75171680
C       -1.15288104       0.80821720       1.21306488
N        0.89323528       0.04835289      -0.50862486
C        1.39822827      -0.55901794       0.65422946
C        1.56348442       1.20451493      -0.94943892
O        1.12660949       1.98416858      -1.74583248
H       -1.00740556      -1.92673654       0.12821110
H       -2.04151674      -1.39125318      -1.19027989
H       -0.42092569      -2.04411470      -1.51815994
H       -0.76726208       0.66918643      -1.52605385
H       -0.96332287       1.86924124       1.04392687
H       -2.18474830       0.65773092       0.88009836
H       -1.31305269       0.61408180       2.27768894
H        0.99536023      -1.49545690       1.02781685
H        2.45857775      -0.76645564       0.54473431
H        0.47278724       0.32045853       1.56012290
H        2.42024958       1.44949133      -0.30001219
18
Frame=13 idx=010232 GeodesicLength=1.0088077824831334 rxn_smarts="[C:1]([C:2]([C:3]([H:12])([H:13])[H:14])([N:4]([C:5]([H:15])([H:16])[H:17])[C:6](=[O:7])[H:18])[H:11])([H:8])([H:9])[H:10]>>[C:1]([C:2](=[N+:4]([C-:5]([H:15])[H:16])[C:6](=[O:7])[H:18])[H:11])([H:8])([H:9])[H:10].[C:3]([H:12])([H:13])([H:14])[H:17]"
C       -1.00314808      -1.42136168      -0.84219996
C       -0.47551234      -0.02478942      -0.74204229
C       -1.15742680       0.81478430       1.20581667
N        0.89009090       0.04787228      -0.50761991
C        1.40496371      -0.56453784       0.64862145
C        1.55693867       1.20642435      -0.94627883
O        1.11090285       1.99517196      -1.72887719
H       -1.01243035      -1.93138553       0.12641699
H       -2.02815362      -1.40670495      -1.21092061
H       -0.39472737      -2.04548487      -1.50672330
H       -0.77476531       0.66937158      -1.51743018
H       -0.96247596       1.87519878       1.03917567
H       -2.19371446       0.67815795       0.87911214
H       -1.32146320       0.61471278       2.26854695
H        0.98605929      -1.48381464       1.04675752
H        2.45125629      -0.81696286       0.50322842
H        0.50921540       0.34323730       1.58160351
H        2.41439040       1.45011049      -0.29718704
18
Frame=14 idx=010232 GeodesicLength=1.0870601107141686 rxn_smarts="[C:1]([C:2]([C:3]([H:12])([H:13])[H:14])([N:4]([C:5]([H:15])([H:16])[H:17])[C:6](=[O:7])[H:18])[H:11])([H:8])([H:9])[H:10]>>[C:1]([C:2](=[N+:4]([C-:5]([H:15])[H:16])[C:6](=[O:7])[H:18])[H:11])([H:8])([H:9])[H:10].[C:3]([H:12])([H:13])([H:14])[H:17]"
C       -0.99579366      -1.42625600      -0.84462048
C       -0.48396088      -0.02393594      -0.73247989
C       -1.16223361       0.82131534       1.19840146
N        0.88679959       0.04757072      -0.50649611
C        1.41160322      -0.56996416       0.64294059
C        1.55025806       1.20846010      -0.94300972
O        1.09503703       2.00624602      -1.71140154
H       -1.01719948      -1.93624585       0.12440377
H       -2.01413829      -1.42212426      -1.23148186
H       -0.36865916      -2.04671110      -1.49493161
H       -0.78226192       0.66928482      -1.50897724
H       -0.96114434       1.88097216       1.03450094
H       -2.20276097       0.69893429       0.87807777
H       -1.32947338       0.61482993       2.25918651
H        0.97759941      -1.47136367       1.06541051
H        2.44051843      -0.86731624       0.46240988
H        0.54691929       0.36588563       1.60275577
H        2.40889067       1.45041820      -0.29468875
18
Frame=15 idx=010232 GeodesicLength=1.1655223703680582 rxn_smarts="[C:1]([C:2]([C:3]([H:12])([H:13])[H:14])([N:4]([C:5]([H:15])([H:16])[H:17])[C:6](=[O:7])[H:18])[H:11])([H:8])([H:9])[H:10]>>[C:1]([C:2](=[N+:4]([C-:5]([H:15])[H:16])[C:6](=[O:7])[H:18])[H:11])([H:8])([H:9])[H:10].[C:3]([H:12])([H:13])([H:14])[H:17]"
C       -0.98824620      -1.43121406      -0.84702904
C       -0.49246100      -0.02332328      -0.72302872
C       -1.16732489       0.82781068       1.19079105
N        0.88336833       0.04743770      -0.50525606
C        1.41817206      -0.57534030       0.63714647
C        1.54342874       1.21062848      -0.93962559
O        1.07898590       2.01739635      -1.69338479
H       -1.02172600      -1.94131558       0.12218150
H       -1.99948320      -1.43750045      -1.25194526
H       -0.34274074      -2.04780182      -1.48278428
H       -0.78974995       0.66891368      -1.50070202
H       -0.95930401       1.88654330       1.02990266
H       -2.21189475       0.72009898       0.87695605
H       -1.33717289       0.61442046       2.24956436
H        0.96995983      -1.45815560       1.08374885
H        2.42642823      -0.91743818       0.42236896
H        0.58605971       0.38836834       1.62359084
H        2.40370084       1.45047128      -0.29249496
18
Frame=16 idx=010232 GeodesicLength=1.244228184238661 rxn_smarts="[C:1]([C:2]([C:3]([H:12])([H:13])[H:14])([N:4]([C:5]([H:15])([H:16])[H:17])[C:6](=[O:7])[H:18])[H:11])([H:8])([H:9])[H:10]>>[C:1]([C:2](=[N+:4]([C-:5]([H:15])[H:16])[C:6](=[O:7])[H:18])[H:11])([H:8])([H:9])[H:10].[C:3]([H:12])([H:13])([H:14])[H:17]"
C       -0.98051341      -1.43623851      -0.84941898
C       -0.50101749      -0.02295636      -0.71368953
C       -1.17272636       0.83426820       1.18295934
N        0.87979893       0.04746721      -0.50390394
C        1.42469081      -0.58070847       0.63119553
C        1.53643134       1.21294033      -0.93612004
O        1.06271231       2.02864982      -1.67478520
H       -1.02602677      -1.94659172       0.11976112
H       -1.98419474      -1.45283184      -1.27230652
H       -0.31698531      -2.04876864      -1.47027437
H       -0.79723346       0.66824532      -1.49261271
H       -0.95693543       1.89189092       1.02538205
H       -2.22112259       0.74168787       0.87570884
H       -1.34465303       0.61346933       2.23963573
H        0.96311857      -1.44421860       1.10175773
H        2.40904063      -0.96726228       0.38320209
H        0.62681472       0.41065698       1.64410787
H        2.39880129       1.45030044      -0.29059902
