14
Frame=0 idx=006196 GeodesicLength=0.0 rxn_smarts="[C:1]1([H:7])([H:8])[C:2]([H:9])([H:10])[C:3]1([C@@:4]1([H:12])[C:5]([H:13])([H:14])[O:6]1)[H:11]>>[C:1]1([H:7])([H:8])[C:2]([H:9])([H:10])[C:3]1([C:4]([O+:6]=[C-:5][H:13])([H:12])[H:14])[H:11]"
C       -1.64230624      -0.32233084      -0.29090909
C       -1.26536295       1.12942627      -0.26644641
C       -0.42994441       0.12420321       0.46485685
C        0.91701188      -0.23180583      -0.07312937
C        2.46945155      -0.81567840       0.83808891
O        1.35296584      -1.50447764       0.38901241
H       -1.48896488      -0.86949914      -1.21247900
H       -2.50175641      -0.64294487       0.28173538
H       -1.86525848       1.81019194       0.32169462
H       -0.86336535       1.55975139      -1.17554629
H       -0.48240608       0.11145902       1.54639939
H        1.02057583      -0.15583374      -1.15728025
H        3.13204468      -0.71709174      -0.06526633
H        1.64731503       0.52463034       0.39926921
14
Frame=1 idx=006196 GeodesicLength=0.05811915376508775 rxn_smarts="[C:1]1([H:7])([H:8])[C:2]([H:9])([H:10])[C:3]1([C@@:4]1([H:12])[C:5]([H:13])([H:14])[O:6]1)[H:11]>>[C:1]1([H:7])([H:8])[C:2]([H:9])([H:10])[C:3]1([C:4]([O+:6]=[C-:5][H:13])([H:12])[H:14])[H:11]"
C       -1.64400948      -0.32294828      -0.28892772
C       -1.26601915       1.12857485      -0.26900477
C       -0.42923415       0.12441316       0.46280890
C        0.91749523      -0.23076479      -0.07579118
C        2.46198623      -0.82353476       0.83326065
O        1.35056976      -1.50910346       0.37664535
H       -1.49233185      -0.87346610      -1.20891874
H       -2.50227058      -0.64130377       0.28693502
H       -1.86388487       1.81147715       0.31887198
H       -0.86619210       1.55636918      -1.18040636
H       -0.47989108       0.11463167       1.54467436
H        1.01604883      -0.15304512      -1.16048281
H        3.13774767      -0.70696537      -0.05621882
H        1.65998554       0.52566564       0.41655414
14
Frame=2 idx=006196 GeodesicLength=0.11618479468897958 rxn_smarts="[C:1]1([H:7])([H:8])[C:2]([H:9])([H:10])[C:3]1([C@@:4]1([H:12])[C:5]([H:13])([H:14])[O:6]1)[H:11]>>[C:1]1([H:7])([H:8])[C:2]([H:9])([H:10])[C:3]1([C:4]([O+:6]=[C-:5][H:13])([H:12])[H:14])[H:11]"
C       -1.64571602      -0.32355990      -0.28693462
C       -1.26669590       1.12771999      -0.27160186
C       -0.42850625       0.12464016       0.46070376
C        0.91797921      -0.22969662      -0.07857465
C        2.45467592      -0.83124427       0.82807409
O        1.34822538      -1.51355169       0.36424950
H       -1.49573890      -0.87744071      -1.20532674
H       -2.50275343      -0.63963832       0.29217879
H       -1.86251139       1.81276704       0.31600706
H       -0.86909038       1.55296039      -1.18532033
H       -0.47733560       0.11784821       1.54288323
H        1.01143068      -0.15032778      -1.16379944
H        3.14336543      -0.69694641      -0.04699386
H        1.67267126       0.52646991       0.43445506
14
Frame=3 idx=006196 GeodesicLength=0.17420248459795315 rxn_smarts="[C:1]1([H:7])([H:8])[C:2]([H:9])([H:10])[C:3]1([C@@:4]1([H:12])[C:5]([H:13])([H:14])[O:6]1)[H:11]>>[C:1]1([H:7])([H:8])[C:2]([H:9])([H:10])[C:3]1([C:4]([O+:6]=[C-:5][H:13])([H:12])[H:14])[H:11]"
C       -1.64742522      -0.32416449      -0.28492875
C       -1.26739196       1.12686229      -0.27423900
C       -0.42775816       0.12488492       0.45853846
C        0.91846419      -0.22860240      -0.08148656
C        2.44752058      -0.83879652       0.82253034
O        1.34593443      -1.51782482       0.35182786
H       -1.49918859      -0.88142236      -1.20170170
H       -2.50320286      -0.63794596       0.29746964
H       -1.86113455       1.81406314       0.31309945
H       -0.87206078       1.54952449      -1.19029024
H       -0.47473536       0.12110964       1.54102272
H        1.00671563      -0.14769237      -1.16723765
H        3.14889802      -0.68702523      -0.03759838
H        1.68536463       0.52702968       0.45299378
14
Frame=4 idx=006196 GeodesicLength=0.2322034976114667 rxn_smarts="[C:1]1([H:7])([H:8])[C:2]([H:9])([H:10])[C:3]1([C@@:4]1([H:12])[C:5]([H:13])([H:14])[O:6]1)[H:11]>>[C:1]1([H:7])([H:8])[C:2]([H:9])([H:10])[C:3]1([C:4]([O+:6]=[C-:5][H:13])([H:12])[H:14])[H:11]"
C       -1.64913709      -0.32476035      -0.28290811
C       -1.26810509       1.12600242      -0.27691887
C       -0.42698654       0.12514799       0.45630865
C        0.91894990      -0.22748552      -0.08453785
C        2.44052437      -0.84618074       0.81661291
O        1.34370003      -1.52192310       0.33938254
H       -1.50268651      -0.88541103      -1.19804089
H       -2.50361693      -0.63622155       0.30281315
H       -1.85974845       1.81536837       0.31014721
H       -0.87510431       1.54605946      -1.19532037
H       -0.47208460       0.12441818       1.53908833
H        1.00189554      -0.14515387      -1.17080887
H        3.15434306      -0.67718234      -0.02802709
H        1.69805662       0.52732208       0.47220929
14
Frame=5 idx=006196 GeodesicLength=0.29021135517170565 rxn_smarts="[C:1]1([H:7])([H:8])[C:2]([H:9])([H:10])[C:3]1([C@@:4]1([H:12])[C:5]([H:13])([H:14])[O:6]1)[H:11]>>[C:1]1([H:7])([H:8])[C:2]([H:9])([H:10])[C:3]1([C:4]([O+:6]=[C-:5][H:13])([H:12])[H:14])[H:11]"
C       -1.65085174      -0.32534592      -0.28087104
C       -1.26883426       1.12514103      -0.27964311
C       -0.42618844       0.12543007       0.45400999
C        0.91943498      -0.22634855      -0.08773926
C        2.43369014      -0.85337901       0.81031613
O        1.34152484      -1.52584896       0.32691509
H       -1.50623785      -0.88940584      -1.19434248
H       -2.50399342      -0.63446139       0.30821423
H       -1.85834896       1.81668449       0.30714972
H       -0.87822338       1.54256416      -1.20041383
H       -0.46937702       0.12777472       1.53707530
H        0.99696420      -0.14272301      -1.17452369
H        3.15970028      -0.66740941      -0.01827884
H        1.71074063       0.52732764       0.49213180
14
Frame=6 idx=006196 GeodesicLength=0.34825114380319233 rxn_smarts="[C:1]1([H:7])([H:8])[C:2]([H:9])([H:10])[C:3]1([C@@:4]1([H:12])[C:5]([H:13])([H:14])[O:6]1)[H:11]>>[C:1]1([H:7])([H:8])[C:2]([H:9])([H:10])[C:3]1([C:4]([O+:6]=[C-:5][H:13])([H:12])[H:14])[H:11]"
C       -1.65256864      -0.32591940      -0.27881464
C       -1.26957735       1.12427902      -0.28241567
C       -0.42535964       0.12573304       0.45163729
C        0.91991937      -0.22519368      -0.09110390
C        2.42702499      -0.86038241       0.80362445
O        1.33941259      -1.52960318       0.31442656
H       -1.50984817      -0.89340797      -1.19060207
H       -2.50432905      -0.63266012       0.31368040
H       -1.85693022       1.81801524       0.30410327
H       -0.88142065       1.53903583      -1.20557727
H       -0.46660537       0.13118354       1.53497839
H        0.99191407      -0.14041270      -1.17839487
H        3.16496304      -0.65768341      -0.00835157
H        1.72340504       0.52701620       0.51280964
14
Frame=7 idx=006196 GeodesicLength=0.4063226048404463 rxn_smarts="[C:1]1([H:7])([H:8])[C:2]([H:9])([H:10])[C:3]1([C@@:4]1([H:12])[C:5]([H:13])([H:14])[O:6]1)[H:11]>>[C:1]1([H:7])([H:8])[C:2]([H:9])([H:10])[C:3]1([C:4]([O+:6]=[C-:5][H:13])([H:12])[H:14])[H:11]"
C       -1.65428728      -0.32647909      -0.27673767
C       -1.27033448       1.12341708      -0.28523870
C       -0.42449760       0.12605880       0.44918614
C        0.92040155      -0.22402018      -0.09464103
C        2.42052870      -0.86716798       0.79655106
O        1.33736746      -1.53318742       0.30191949
H       -1.51352096      -0.89741634      -1.18681782
H       -2.50462067      -0.63081461       0.31921533
H       -1.85549036       1.81936186       0.30100637
H       -0.88470021       1.53547371      -1.21081388
H       -0.46376407       0.13464623       1.53279259
H        0.98673903      -0.13823043      -1.18243200
H        3.17013300      -0.64799962       0.00173586
H        1.73604590       0.52635801       0.53427425
14
Frame=8 idx=006196 GeodesicLength=0.46445119074740976 rxn_smarts="[C:1]1([H:7])([H:8])[C:2]([H:9])([H:10])[C:3]1([C@@:4]1([H:12])[C:5]([H:13])([H:14])[O:6]1)[H:11]>>[C:1]1([H:7])([H:8])[C:2]([H:9])([H:10])[C:3]1([C:4]([O+:6]=[C-:5][H:13])([H:12])[H:14])[H:11]"
C       -1.65600726      -0.32702297      -0.27463561
C       -1.27110404       1.12255647      -0.28811720
C       -0.42359714       0.12641069       0.44665002
C        0.92088182      -0.22282877      -0.09836770
C        2.41421105      -0.87372111       0.78907269
O        1.33539482      -1.53660101       0.28938880
H       -1.51726343      -0.90143339      -1.18298269
H       -2.50486376      -0.62891810       0.32483040
H       -1.85402304       1.82072911       0.29785411
H       -0.88806776       1.53187373      -1.21613301
H       -0.46084311       0.13816901       1.53051116
H        0.98143019      -0.13618817      -1.18665134
H        3.17520247      -0.63833336       0.01199740
H        1.74864920       0.52530788       0.55658298
14
Frame=9 idx=006196 GeodesicLength=0.5226296087431407 rxn_smarts="[C:1]1([H:7])([H:8])[C:2]([H:9])([H:10])[C:3]1([C@@:4]1([H:12])[C:5]([H:13])([H:14])[O:6]1)[H:11]>>[C:1]1([H:7])([H:8])[C:2]([H:9])([H:10])[C:3]1([C:4]([O+:6]=[C-:5][H:13])([H:12])[H:14])[H:11]"
C       -1.65772739      -0.32754994      -0.27250611
C       -1.27188582       1.12169755      -0.29105379
C       -0.42265483       0.12679074       0.44402445
C        0.92135839      -0.22161952      -0.10229217
C        2.40806713      -0.88002876       0.78121087
O        1.33349577      -1.53985131       0.27683173
H       -1.52107835      -0.90545987      -1.17909303
H       -2.50505362      -0.62696793       0.33053153
H       -1.85252573       1.82211843       0.29464426
H       -0.89152820       1.52823364      -1.22153910
H       -0.45783470       0.14175402       1.52812925
H        0.97598457      -0.13428610      -1.19106144
H        3.18017251      -0.62867578       0.02241361
H        1.76121027       0.52384483       0.57975996
14
Frame=10 idx=006196 GeodesicLength=0.5808416967782387 rxn_smarts="[C:1]1([H:7])([H:8])[C:2]([H:9])([H:10])[C:3]1([C@@:4]1([H:12])[C:5]([H:13])([H:14])[O:6]1)[H:11]>>[C:1]1([H:7])([H:8])[C:2]([H:9])([H:10])[C:3]1([C:4]([O+:6]=[C-:5][H:13])([H:12])[H:14])[H:11]"
C       -1.65944716      -0.32806051      -0.27034526
C       -1.27267989       1.12084294      -0.29405437
C       -0.42166693       0.12720479       0.44130537
C        0.92183247      -0.22038474      -0.10642422
C        2.40209796      -0.88607957       0.77297161
O        1.33166809      -1.54294188       0.26424242
H       -1.52496925      -0.90950330      -1.17514365
H       -2.50518613      -0.62496277       0.33633017
H       -1.85099625       1.82353617       0.29137186
H       -0.89508836       1.52455148      -1.22704447
H       -0.45473213       0.14540989       1.52564537
H        0.97039637      -0.13252430      -1.19567865
H        3.18504346      -0.61900137       0.03297430
H        1.77372775       0.52191318       0.60384951
14
Frame=11 idx=006196 GeodesicLength=0.6402463186639814 rxn_smarts="[C:1]1([H:7])([H:8])[C:2]([H:9])([H:10])[C:3]1([C@@:4]1([H:12])[C:5]([H:13])([H:14])[O:6]1)[H:11]>>[C:1]1([H:7])([H:8])[C:2]([H:9])([H:10])[C:3]1([C:4]([O+:6]=[C-:5][H:13])([H:12])[H:14])[H:11]"
C       -1.66120527      -0.32852991      -0.26810385
C       -1.27345468       1.11997204      -0.29716464
C       -0.42061902       0.12763539       0.43846289
C        0.92224974      -0.21924994      -0.11087661
C        2.39626606      -0.89175620       0.76408648
O        1.32994926      -1.54593148       0.25153996
H       -1.52903275      -0.91359410      -1.17105844
H       -2.50526077      -0.62282768       0.34225583
H       -1.84931065       1.82503626       0.28798937
H       -0.89872435       1.52076353      -1.23269166
H       -0.45147683       0.14914636       1.52301256
H        0.96455418      -0.13100702      -1.20066408
H        3.18980380      -0.60901603       0.04382998
H        1.78626127       0.51935878       0.62938223
14
Frame=12 idx=006196 GeodesicLength=0.6973916856168173 rxn_smarts="[C:1]1([H:7])([H:8])[C:2]([H:9])([H:10])[C:3]1([C@@:4]1([H:12])[C:5]([H:13])([H:14])[O:6]1)[H:11]>>[C:1]1([H:7])([H:8])[C:2]([H:9])([H:10])[C:3]1([C:4]([O+:6]=[C-:5][H:13])([H:12])[H:14])[H:11]"
C       -1.66287486      -0.32902143      -0.26586701
C       -1.27431300       1.11914531      -0.30029266
C       -0.41951327       0.12818996       0.43554089
C        0.92280005      -0.21779719      -0.11544550
C        2.39072651      -0.89736122       0.75507505
O        1.32830774      -1.54855308       0.23881635
H       -1.53300156      -0.91768025      -1.16695446
H       -2.50523106      -0.62074035       0.34833881
H       -1.84781796       1.82648890       0.28456186
H       -0.90257682       1.51700402      -1.23843849
H       -0.44815889       0.15303728       1.52031257
H        0.95874699      -0.12942934      -1.20560009
H        3.19445909      -0.59947834       0.05478420
H        1.79844705       0.51619573       0.65516847
14
Frame=13 idx=006196 GeodesicLength=0.7556688282113369 rxn_smarts="[C:1]1([H:7])([H:8])[C:2]([H:9])([H:10])[C:3]1([C@@:4]1([H:12])[C:5]([H:13])([H:14])[O:6]1)[H:11]>>[C:1]1([H:7])([H:8])[C:2]([H:9])([H:10])[C:3]1([C:4]([O+:6]=[C-:5][H:13])([H:12])[H:14])[H:11]"
C       -1.66457592      -0.32946004      -0.26357479
C       -1.27515025       1.11830528      -0.30351823
C       -0.41835120       0.12874708       0.43249173
C        0.92327633      -0.21645770      -0.12031509
C        2.38533689      -0.90248786       0.74555785
O        1.32677882      -1.55108872       0.22610441
H       -1.53714354      -0.92176928      -1.16275680
H       -2.50513648      -0.61852001       0.35450161
H       -1.84617553       1.82800590       0.28105103
H       -0.90649655       1.51315947      -1.24428883
H       -0.44470033       0.15697411       1.51745480
H        0.95266149      -0.12815674      -1.21091172
H        3.19898851      -0.58963952       0.06585167
H        1.81068777       0.51238805       0.68235237
14
Frame=14 idx=006196 GeodesicLength=0.8139228584683983 rxn_smarts="[C:1]1([H:7])([H:8])[C:2]([H:9])([H:10])[C:3]1([C@@:4]1([H:12])[C:5]([H:13])([H:14])[O:6]1)[H:11]>>[C:1]1([H:7])([H:8])[C:2]([H:9])([H:10])[C:3]1([C:4]([O+:6]=[C-:5][H:13])([H:12])[H:14])[H:11]"
C       -1.66626806      -0.32987244      -0.26123207
C       -1.27600145       1.11747725      -0.30682544
C       -0.41712406       0.12936251       0.42932424
C        0.92375237      -0.21507766      -0.12545970
C        2.38015621      -0.90724424       0.73561718
O        1.32537053      -1.55343176       0.21336596
H       -1.54137579      -0.92587729      -1.15846983
H       -2.50495874      -0.61622309       0.36080243
H       -1.84449145       1.82956784       0.27745572
H       -0.91054381       1.50926449      -1.25026801
H       -0.44110871       0.16102064       1.51446700
H        0.94639480      -0.12707324      -1.21648471
H        3.20339357      -0.57970193       0.07707113
H        1.82280458       0.50780892       0.71063609
14
Frame=15 idx=006196 GeodesicLength=0.8721586235654885 rxn_smarts="[C:1]1([H:7])([H:8])[C:2]([H:9])([H:10])[C:3]1([C@@:4]1([H:12])[C:5]([H:13])([H:14])[O:6]1)[H:11]>>[C:1]1([H:7])([H:8])[C:2]([H:9])([H:10])[C:3]1([C:4]([O+:6]=[C-:5][H:13])([H:12])[H:14])[H:11]"
C       -1.66794829      -0.33025453      -0.25883012
C       -1.27686903       1.11666116      -0.31022239
C       -0.41582454       0.13004518       0.42602849
C        0.92422681      -0.21364959      -0.13090020
C        2.37518665      -0.91160036       0.72524600
O        1.32409378      -1.55557462       0.20059063
H       -1.54570397      -0.93000646      -1.15407760
H       -2.50468567      -0.61383875       0.36725802
H       -1.84276350       1.83117789       0.27376476
H       -0.91473584       1.50530943      -1.25638793
H       -0.43736705       0.16519142       1.51133650
H        0.93993637      -0.12618085      -1.22233680
H        3.20767140      -0.56963278       0.08845358
H        1.83478288       0.50235285       0.74007706
14
Frame=16 idx=006196 GeodesicLength=0.930338439200667 rxn_smarts="[C:1]1([H:7])([H:8])[C:2]([H:9])([H:10])[C:3]1([C@@:4]1([H:12])[C:5]([H:13])([H:14])[O:6]1)[H:11]>>[C:1]1([H:7])([H:8])[C:2]([H:9])([H:10])[C:3]1([C:4]([O+:6]=[C-:5][H:13])([H:12])[H:14])[H:11]"
C       -1.66961233      -0.33060428      -0.25636050
C       -1.27775661       1.11585856      -0.31371595
C       -0.41444630       0.13080633       0.42259725
C        0.92470145      -0.21216114      -0.13665282
C        2.37042863      -0.91552797       0.71444636
O        1.32295981      -1.55750764       0.18776788
H       -1.55012835      -0.93416169      -1.14956530
H       -2.50430540      -0.61136158       0.37388512
H       -1.84099361       1.83283995       0.26996806
H       -0.91908783       1.50128790      -1.26266042
H       -0.43346097       0.16950431       1.50805440
H        0.93327864      -0.12547641      -1.22848148
H        3.21181881      -0.55940691       0.10000716
H        1.84660406       0.49591060       0.77071024
