14
Frame=0 idx=007753 GeodesicLength=0.0 rxn_smarts="[C:1]([C:2]1=[C:3]([H:11])/[C:4](=[N:5]/[H:12])[O:6][C:7]1([H:13])[H:14])([H:8])([H:9])[H:10]>>[C:1]([c:2]1[c:3]([H:11])[c:4]([N:5]([H:12])[H:13])[o:6][c:7]1[H:14])([H:8])([H:9])[H:10]"
C       -1.98951466      -0.20129429      -0.36567847
C       -0.51518747       0.02468635      -0.37525408
C        0.47541234      -0.81415186      -0.81548861
C        1.64303976      -0.20712701      -0.28065435
N        2.11012038      -0.64693208       0.88409310
O        1.45629607       1.15472738      -0.22588751
C        0.14875317       1.11074738       0.27837267
H       -2.42841929       0.15613226       0.56684512
H       -2.46368900       0.34419440      -1.18494821
H       -2.23417876      -1.25734725      -0.47800243
H        0.38610376      -1.84996964      -1.10116806
H        2.77504029       0.02484140       1.26302106
H        0.94582285       0.08760071       1.35979681
H       -0.30959945       2.07389219       0.47495292
14
Frame=1 idx=007753 GeodesicLength=0.05626857201131759 rxn_smarts="[C:1]([C:2]1=[C:3]([H:11])/[C:4](=[N:5]/[H:12])[O:6][C:7]1([H:13])[H:14])([H:8])([H:9])[H:10]>>[C:1]([c:2]1[c:3]([H:11])[c:4]([N:5]([H:12])[H:13])[o:6][c:7]1[H:14])([H:8])([H:9])[H:10]"
C       -1.99540485      -0.19880874      -0.37309973
C       -0.52084519       0.02336193      -0.36700937
C        0.47281951      -0.81228601      -0.81001880
C        1.64368463      -0.20446854      -0.28221980
N        2.13188116      -0.64597025       0.87369821
O        1.44547460       1.15538913      -0.22086953
C        0.14154698       1.10534388       0.29514978
H       -2.44764907       0.17382818       0.54702946
H       -2.45726082       0.33507891      -1.20694178
H       -2.24191513      -1.25581087      -0.47201677
H        0.38485891      -1.84987125      -1.09019430
H        2.80313146       0.02406696       1.24340979
H        0.95504603       0.07851401       1.38315946
H       -0.31536820       2.07163266       0.47992338
14
Frame=2 idx=007753 GeodesicLength=0.11243840059169527 rxn_smarts="[C:1]([C:2]1=[C:3]([H:11])/[C:4](=[N:5]/[H:12])[O:6][C:7]1([H:13])[H:14])([H:8])([H:9])[H:10]>>[C:1]([c:2]1[c:3]([H:11])[c:4]([N:5]([H:12])[H:13])[o:6][c:7]1[H:14])([H:8])([H:9])[H:10]"
C       -2.00120062      -0.19624301      -0.38063229
C       -0.52656286       0.02204999      -0.35898287
C        0.47020063      -0.81054848      -0.80440926
C        1.64424125      -0.20182892      -0.28372736
N        2.15341060      -0.64468471       0.86310683
O        1.43459908       1.15590770      -0.21566571
C        0.13430093       1.09979482       0.31183989
H       -2.46638971       0.19156172       0.52668347
H       -2.45055615       0.32586063      -1.22865533
H       -2.24990685      -1.25393671      -0.46615136
H        0.38359674      -1.84994020      -1.07881273
H        2.83094964       0.02367286       1.22322960
H        0.96443502       0.06933475       1.40673243
H       -0.32111770       2.06899957       0.48544471
14
Frame=3 idx=007753 GeodesicLength=0.16852917959469327 rxn_smarts="[C:1]([C:2]1=[C:3]([H:11])/[C:4](=[N:5]/[H:12])[O:6][C:7]1([H:13])[H:14])([H:8])([H:9])[H:10]>>[C:1]([c:2]1[c:3]([H:11])[c:4]([N:5]([H:12])[H:13])[o:6][c:7]1[H:14])([H:8])([H:9])[H:10]"
C       -2.00689739      -0.19360137      -0.38827354
C       -0.53233591       0.02076876      -0.35120755
C        0.46756377      -0.80893267      -0.79867076
C        1.64471359      -0.19920871      -0.28517064
N        2.17469274      -0.64308413       0.85233744
O        1.42368392       1.15628295      -0.21026942
C        0.12701358       1.09410619       0.32842682
H       -2.48460827       0.20930739       0.50584673
H       -2.44361314       0.31654305      -1.25006725
H       -2.25813689      -1.25173118      -0.46041270
H        0.38232384      -1.85016597      -1.06703029
H        2.85849084       0.02362614       1.20248846
H        0.97396005       0.06006641       1.43052770
H       -0.32685074       2.06602314       0.49147502
14
Frame=4 idx=007753 GeodesicLength=0.2245718935820683 rxn_smarts="[C:1]([C:2]1=[C:3]([H:11])/[C:4](=[N:5]/[H:12])[O:6][C:7]1([H:13])[H:14])([H:8])([H:9])[H:10]>>[C:1]([c:2]1[c:3]([H:11])[c:4]([N:5]([H:12])[H:13])[o:6][c:7]1[H:14])([H:8])([H:9])[H:10]"
C       -2.01249622      -0.19088482      -0.39602410
C       -0.53816464       0.01952779      -0.34369268
C        0.46491125      -0.80743525      -0.79280212
C        1.64510206      -0.19660503      -0.28654972
N        2.19573318      -0.64116998       0.84139150
O        1.41273139       1.15651552      -0.20466472
C        0.11967913       1.08827392       0.34491820
H       -2.50230030       0.22707747       0.48452706
H       -2.43643853       0.30710846      -1.27120561
H       -2.26660054      -1.24919500      -0.45479206
H        0.38104250      -1.85054051      -1.05483799
H        2.88577119       0.02390933       1.18115442
H        0.98360466       0.05069815       1.45456856
H       -0.33257512       2.06271995       0.49800925
14
Frame=5 idx=007753 GeodesicLength=0.28056202339889136 rxn_smarts="[C:1]([C:2]1=[C:3]([H:11])/[C:4](=[N:5]/[H:12])[O:6][C:7]1([H:13])[H:14])([H:8])([H:9])[H:10]>>[C:1]([c:2]1[c:3]([H:11])[c:4]([N:5]([H:12])[H:13])[o:6][c:7]1[H:14])([H:8])([H:9])[H:10]"
C       -2.01799215      -0.18809699      -0.40388358
C       -0.54404073       0.01834713      -0.33647540
C        0.46225273      -0.80604758      -0.78682229
C        1.64541441      -0.19402022      -0.28785899
N        2.21651312      -0.63896227       0.83028238
O        1.40176400       1.15660495      -0.19885383
C        0.11229975       1.08230678       0.36128998
H       -2.51942397       0.24483540       0.46277285
H       -2.42908901       0.29756415      -1.29202741
H       -2.27527125      -1.24633693      -0.44929021
H        0.37975810      -1.85105186      -1.04225977
H        2.91275898       0.02449506       1.15927602
H        0.99334551       0.04123917       1.47885725
H       -0.33828949       2.05912321       0.50499299
14
Frame=6 idx=007753 GeodesicLength=0.3365324266802887 rxn_smarts="[C:1]([C:2]1=[C:3]([H:11])/[C:4](=[N:5]/[H:12])[O:6][C:7]1([H:13])[H:14])([H:8])([H:9])[H:10]>>[C:1]([c:2]1[c:3]([H:11])[c:4]([N:5]([H:12])[H:13])[o:6][c:7]1[H:14])([H:8])([H:9])[H:10]"
C       -2.02338717      -0.18524068      -0.41185326
C       -0.54996485       0.01723353      -0.32955553
C        0.45959040      -0.80476460      -0.78072617
C        1.64565007      -0.19144902      -0.28909508
N        2.23704628      -0.63645626       0.81900926
O        1.39077800       1.15655321      -0.19281192
C        0.10486600       1.07619773       0.37755909
H       -2.53599623       0.26261070       0.44056936
H       -2.42155935       0.28788460      -1.31257304
H       -2.28414893      -1.24315556      -0.44389077
H        0.37847410      -1.85168805      -1.02927834
H        2.93948398       0.02536615       1.13679170
H        1.00317140       0.03166693       1.50342678
H       -0.34400369       2.05524133       0.51242792
14
Frame=7 idx=007753 GeodesicLength=0.3924680118931637 rxn_smarts="[C:1]([C:2]1=[C:3]([H:11])/[C:4](=[N:5]/[H:12])[O:6][C:7]1([H:13])[H:14])([H:8])([H:9])[H:10]>>[C:1]([c:2]1[c:3]([H:11])[c:4]([N:5]([H:12])[H:13])[o:6][c:7]1[H:14])([H:8])([H:9])[H:10]"
C       -2.02868101      -0.18231886      -0.41992643
C       -0.55593143       0.01620314      -0.32295586
C        0.45692949      -0.80357643      -0.77452843
C        1.64581490      -0.18888927      -0.29026134
N        2.25732043      -0.63366441       0.80758176
O        1.37979080       1.15636257      -0.18653444
C        0.09737626       1.06995082       0.39371549
H       -2.55199392       0.28038714       0.41793929
H       -2.41388599       0.27806029      -1.33282518
H       -2.29321329      -1.23965755      -0.43858470
H        0.37719218      -1.85243498      -1.01591176
H        2.96592404       0.02649438       1.11373084
H        1.01307571       0.02198649       1.52828289
H       -0.34971816       2.05109666       0.52027787
14
Frame=8 idx=007753 GeodesicLength=0.44840408663101256 rxn_smarts="[C:1]([C:2]1=[C:3]([H:11])/[C:4](=[N:5]/[H:12])[O:6][C:7]1([H:13])[H:14])([H:8])([H:9])[H:10]>>[C:1]([c:2]1[c:3]([H:11])[c:4]([N:5]([H:12])[H:13])[o:6][c:7]1[H:14])([H:8])([H:9])[H:10]"
C       -2.03387335      -0.17933265      -0.42811573
C       -0.56193870       0.01526177      -0.31667884
C        0.45427393      -0.80248048      -0.76822420
C        1.64591018      -0.18633769      -0.29135156
N        2.27734977      -0.63058293       0.79599634
O        1.36880085       1.15603254      -0.18000119
C        0.08982311       1.06355970       0.40976953
H       -2.56742455       0.29817903       0.39488239
H       -2.40607280       0.26807781      -1.35280522
H       -2.30246536      -1.23583698      -0.43336854
H        0.37591681      -1.85328476      -1.00214037
H        2.99210073       0.02787135       1.09004132
H        1.02304052       0.01217483       1.55346080
H       -0.35544112       2.04669847       0.52853528
14
Frame=9 idx=007753 GeodesicLength=0.5043077972691924 rxn_smarts="[C:1]([C:2]1=[C:3]([H:11])/[C:4](=[N:5]/[H:12])[O:6][C:7]1([H:13])[H:14])([H:8])([H:9])[H:10]>>[C:1]([c:2]1[c:3]([H:11])[c:4]([N:5]([H:12])[H:13])[o:6][c:7]1[H:14])([H:8])([H:9])[H:10]"
C       -2.03896517      -0.17628250      -0.43641341
C       -0.56797939       0.01442238      -0.31074300
C        0.45162776      -0.80147134      -0.76182683
C        1.64594285      -0.18379454      -0.29236956
N        2.29713076      -0.62722966       0.78425912
O        1.35782990       1.15556407      -0.17321771
C        0.08220624       1.05702743       0.42570942
H       -2.58226491       0.31595814       0.37142400
H       -2.39816446       0.25794348      -1.37248669
H       -2.31188134      -1.23170058      -0.42824632
H        0.37464663      -1.85423026      -0.98798061
H        3.01798003       0.02947833       1.06577050
H        1.03306360       0.00224928       1.57895304
H       -0.36117250       2.04206574       0.53716805
14
Frame=10 idx=007753 GeodesicLength=0.5602085322699304 rxn_smarts="[C:1]([C:2]1=[C:3]([H:11])/[C:4](=[N:5]/[H:12])[O:6][C:7]1([H:13])[H:14])([H:8])([H:9])[H:10]>>[C:1]([c:2]1[c:3]([H:11])[c:4]([N:5]([H:12])[H:13])[o:6][c:7]1[H:14])([H:8])([H:9])[H:10]"
C       -2.04395707      -0.17317099      -0.44482333
C       -0.57405213       0.01369236      -0.30514603
C        0.44899390      -0.80053889      -0.75533504
C        1.64591272      -0.18125378      -0.29330884
N        2.31667183      -0.62359773       0.77236479
O        1.34687396       1.15495832      -0.16615336
C        0.07451599       1.05034855       0.44155006
H       -2.59653043       0.33375462       0.34754184
H       -2.39014970       0.24761796      -1.39190422
H       -2.32146441      -1.22724007      -0.42319202
H        0.37338577      -1.85525022      -0.97342075
H        3.04357928       0.03130099       1.04085275
H        1.04313965      -0.00782554       1.60480476
H       -0.36691937       2.03720442       0.54616939
14
Frame=11 idx=007753 GeodesicLength=0.6160903760347155 rxn_smarts="[C:1]([C:2]1=[C:3]([H:11])/[C:4](=[N:5]/[H:12])[O:6][C:7]1([H:13])[H:14])([H:8])([H:9])[H:10]>>[C:1]([c:2]1[c:3]([H:11])[c:4]([N:5]([H:12])[H:13])[o:6][c:7]1[H:14])([H:8])([H:9])[H:10]"
C       -2.04884763      -0.17000047      -0.45334087
C       -0.58014986       0.01308134      -0.29989759
C        0.44637725      -0.79967747      -0.74875497
C        1.64582588      -0.17871398      -0.29416694
N        2.33596964      -0.61969430       0.76032285
O        1.33594733       1.15421611      -0.15880598
C        0.06674956       1.04352539       0.45728481
H       -2.61020927       0.35154832       0.32326560
H       -2.38205537       0.23710250      -1.41105337
H       -2.33120284      -1.22245782      -0.41821677
H        0.37213570      -1.85633568      -0.95846809
H        3.06888051       0.03331961       1.01529199
H        1.05326235      -0.01804434       1.63102909
H       -0.37268323       2.03213079       0.55551022
14
Frame=12 idx=007753 GeodesicLength=0.6719594538589406 rxn_smarts="[C:1]([C:2]1=[C:3]([H:11])/[C:4](=[N:5]/[H:12])[O:6][C:7]1([H:13])[H:14])([H:8])([H:9])[H:10]>>[C:1]([c:2]1[c:3]([H:11])[c:4]([N:5]([H:12])[H:13])[o:6][c:7]1[H:14])([H:8])([H:9])[H:10]"
C       -2.05363688      -0.16677202      -0.46197196
C       -0.58626906       0.01259512      -0.29499793
C        0.44377969      -0.79887832      -0.74209285
C        1.64568342      -0.17617177      -0.29494608
N        2.35503499      -0.61552306       0.74811795
O        1.32505307       1.15333578      -0.15115216
C        0.05889941       1.03655117       0.47292243
H       -2.62330721       0.36936638       0.29856413
H       -2.37388581       0.22636065      -1.42993845
H       -2.34109385      -1.21734390      -0.41329162
H        0.37089753      -1.85746810      -0.94312179
H        3.09387338       0.03553422       0.98907150
H        1.06344040      -0.02843316       1.65765385
H       -0.37846908       2.02684701       0.56518297
14
Frame=13 idx=007753 GeodesicLength=0.7277957585456214 rxn_smarts="[C:1]([C:2]1=[C:3]([H:11])/[C:4](=[N:5]/[H:12])[O:6][C:7]1([H:13])[H:14])([H:8])([H:9])[H:10]>>[C:1]([c:2]1[c:3]([H:11])[c:4]([N:5]([H:12])[H:13])[o:6][c:7]1[H:14])([H:8])([H:9])[H:10]"
C       -2.05832582      -0.16348428      -0.47071351
C       -0.59240208       0.01224328      -0.29045749
C        0.44120434      -0.79813684      -0.73535655
C        1.64549172      -0.17362591      -0.29564833
N        2.37386400      -0.61109525       0.73575905
O        1.31420887       1.15231845      -0.14319787
C        0.05096348       1.02943172       0.48844853
H       -2.63580143       0.38716446       0.27348222
H       -2.36567745       0.21540842      -1.44853989
H       -2.35112151      -1.21190218      -0.40844083
H        0.36966953      -1.85864043      -0.92739185
H        3.11853862       0.03792105       0.96222159
H        1.07366511      -0.03897281       1.68468688
H       -0.38427738       2.02137031       0.57514804
14
Frame=14 idx=007753 GeodesicLength=0.7835973004479397 rxn_smarts="[C:1]([C:2]1=[C:3]([H:11])/[C:4](=[N:5]/[H:12])[O:6][C:7]1([H:13])[H:14])([H:8])([H:9])[H:10]>>[C:1]([c:2]1[c:3]([H:11])[c:4]([N:5]([H:12])[H:13])[o:6][c:7]1[H:14])([H:8])([H:9])[H:10]"
C       -2.06291351      -0.16013966      -0.47956722
C       -0.59854653       0.01202472      -0.28626190
C        0.43865190      -0.79744766      -0.72854224
C        1.64524993      -0.17107237      -0.29627016
N        2.39246785      -0.60640145       0.72323506
O        1.30341079       1.15116102      -0.13491499
C        0.04293214       1.02215580       0.50388248
H       -2.64770833       0.40498392       0.24796323
H       -2.35741569       0.20420821      -1.46687769
H       -2.36129359      -1.20611873      -0.40364125
H        0.36845403      -1.85983650      -0.91126521
H        3.14287202       0.04048508       0.93468064
H        1.08395592      -0.04969925       1.71216490
H       -0.39011691       2.01569686       0.58541435
14
Frame=15 idx=007753 GeodesicLength=0.839348084595518 rxn_smarts="[C:1]([C:2]1=[C:3]([H:11])/[C:4](=[N:5]/[H:12])[O:6][C:7]1([H:13])[H:14])([H:8])([H:9])[H:10]>>[C:1]([c:2]1[c:3]([H:11])[c:4]([N:5]([H:12])[H:13])[o:6][c:7]1[H:14])([H:8])([H:9])[H:10]"
C       -2.06740037      -0.15673688      -0.48853273
C       -0.60469597       0.01194436      -0.28241228
C        0.43612409      -0.79680577      -0.72165638
C        1.64496198      -0.16851000      -0.29681216
N        2.41084872      -0.60144837       0.71054466
O        1.29266985       1.14986190      -0.12629955
C        0.03480081       1.01472402       0.51921872
H       -2.65901562       0.42280525       0.22201980
H       -2.34912054       0.19275964      -1.48494126
H       -2.37160118      -1.19998974      -0.39890053
H        0.36724963      -1.86104530      -0.89474704
H        3.16685127       0.04321643       0.90645847
H        1.09431700      -0.06061085       1.74010413
H       -0.39598967       2.00983532       0.59595615
14
Frame=16 idx=007753 GeodesicLength=0.8950309373136737 rxn_smarts="[C:1]([C:2]1=[C:3]([H:11])/[C:4](=[N:5]/[H:12])[O:6][C:7]1([H:13])[H:14])([H:8])([H:9])[H:10]>>[C:1]([c:2]1[c:3]([H:11])[c:4]([N:5]([H:12])[H:13])[o:6][c:7]1[H:14])([H:8])([H:9])[H:10]"
C       -2.07178633      -0.15327492      -0.49761397
C       -0.61084771       0.01199803      -0.27889390
C        0.43361933      -0.79620966      -0.71469725
C        1.64462721      -0.16593534      -0.29727920
N        2.42901462      -0.59623146       0.69767643
O        1.28198640       1.14841734      -0.11733713
C        0.02656141       1.00712690       0.53446827
H       -2.66972203       0.44064479       0.19562211
H       -2.34078867       0.18104362      -1.50273758
H       -2.38205041      -1.19350206      -0.39421489
H        0.36605493      -1.86225715      -0.87782930
H        3.19045959       0.04611900       0.87753458
H        1.10477553      -0.07172160       1.76852789
H       -0.40190388       2.00378250       0.60677396
