10
Frame=0 idx=006111 GeodesicLength=0.0 rxn_smarts="[C:1]1([H:6])([H:7])[C:2]([H:8])([H:9])[N:3]=[C:4]([H:10])[O:5]1>>[C:1](=[C:2]([H:8])[H:9])([H:6])[H:7].[N:3](=[C:4]=[O:5])[H:10]"
C       -1.09945773      -0.54905355       0.10147857
C       -0.94276222       0.78326646       0.26681393
N        1.08803511       0.84631206      -0.04346000
C        1.50868610      -0.31233574      -0.29511470
O        1.28652425      -1.48535065      -0.44511682
H       -1.02980363      -1.23686819       0.93392182
H       -1.33081334      -0.98014787      -0.86364671
H       -1.15684145       1.46831464      -0.54271663
H       -0.86223188       1.20996952       1.25771372
H        2.53866477       0.25589332      -0.36987319
10
Frame=1 idx=006111 GeodesicLength=0.05982436918982536 rxn_smarts="[C:1]1([H:6])([H:7])[C:2]([H:8])([H:9])[N:3]=[C:4]([H:10])[O:5]1>>[C:1](=[C:2]([H:8])[H:9])([H:6])[H:7].[N:3](=[C:4]=[O:5])[H:10]"
C       -1.08831434      -0.55604836       0.10634171
C       -0.92947310       0.78177567       0.26315746
N        1.09971640       0.85258072      -0.08292546
C        1.50630167      -0.30255828      -0.36363273
O        1.27646669      -1.48122203      -0.47337322
H       -1.02987526      -1.23397850       0.94810748
H       -1.36037744      -0.98977568      -0.84711435
H       -1.17849753       1.46143439      -0.54147535
H       -0.84909058       1.21348018       1.25222072
H        2.55314349       0.25431188      -0.26130626
10
Frame=2 idx=006111 GeodesicLength=0.12071986162654044 rxn_smarts="[C:1]1([H:6])([H:7])[C:2]([H:8])([H:9])[N:3]=[C:4]([H:10])[O:5]1>>[C:1](=[C:2]([H:8])[H:9])([H:6])[H:7].[N:3](=[C:4]=[O:5])[H:10]"
C       -1.07473892      -0.56272330       0.10959169
C       -0.91412578       0.78044094       0.25921708
N        1.10982516       0.86131664      -0.13761906
C        1.51008632      -0.29433962      -0.41797114
O        1.26753552      -1.47541464      -0.50299981
H       -1.03018742      -1.23091291       0.96036977
H       -1.38461005      -0.99750585      -0.83205713
H       -1.20499474       1.45541332      -0.53582575
H       -0.82745710       1.21526287       1.24687390
H        2.54866701       0.24846256      -0.14957955
10
Frame=3 idx=006111 GeodesicLength=0.18317815690985473 rxn_smarts="[C:1]1([H:6])([H:7])[C:2]([H:8])([H:9])[N:3]=[C:4]([H:10])[O:5]1>>[C:1](=[C:2]([H:8])[H:9])([H:6])[H:7].[N:3](=[C:4]=[O:5])[H:10]"
C       -1.05954541      -0.56929322       0.11206583
C       -0.89713858       0.77931188       0.25447585
N        1.12110638       0.86920125      -0.19006481
C        1.51800214      -0.28770279      -0.46261932
O        1.25931199      -1.46928956      -0.53450413
H       -1.03025965      -1.22724784       0.97198010
H       -1.40569135      -1.00449690      -0.81700855
H       -1.22831707       1.44929903      -0.52957776
H       -0.80548128       1.21703599       1.24084596
H        2.52801285       0.24318218      -0.04559317
10
Frame=4 idx=006111 GeodesicLength=0.24672181900517198 rxn_smarts="[C:1]1([H:6])([H:7])[C:2]([H:8])([H:9])[N:3]=[C:4]([H:10])[O:5]1>>[C:1](=[C:2]([H:8])[H:9])([H:6])[H:7].[N:3](=[C:4]=[O:5])[H:10]"
C       -1.04286166      -0.57579709       0.11457704
C       -0.87910879       0.77838077       0.24875917
N        1.13426496       0.87587246      -0.23592324
C        1.52873757      -0.28159871      -0.50150649
O        1.25116768      -1.46219785      -0.57033616
H       -1.02832867      -1.22237691       0.98391318
H       -1.42481951      -1.01153217      -0.80041537
H       -1.24739391       1.44219877      -0.52444352
H       -0.78603139       1.21986553       1.23370262
H        2.49437371       0.23718520       0.05167276
10
Frame=5 idx=006111 GeodesicLength=0.3114726594115056 rxn_smarts="[C:1]1([H:6])([H:7])[C:2]([H:8])([H:9])[N:3]=[C:4]([H:10])[O:5]1>>[C:1](=[C:2]([H:8])[H:9])([H:6])[H:7].[N:3](=[C:4]=[O:5])[H:10]"
C       -1.02492200      -0.58233873       0.11752543
C       -0.86068082       0.77767265       0.24203202
N        1.14984206       0.88173892      -0.27250789
C        1.54159987      -0.27521983      -0.53608496
O        1.24261474      -1.45341442      -0.61130623
H       -1.02369261      -1.21625471       0.99673437
H       -1.44273713      -1.01909915      -0.78147893
H       -1.26208110       1.43380605      -0.52172325
H       -0.77113259       1.22419851       1.22536277
H        2.45118959       0.22891071       0.14144667
10
Frame=6 idx=006111 GeodesicLength=0.37727768940037704 rxn_smarts="[C:1]1([H:6])([H:7])[C:2]([H:8])([H:9])[N:3]=[C:4]([H:10])[O:5]1>>[C:1](=[C:2]([H:8])[H:9])([H:6])[H:7].[N:3](=[C:4]=[O:5])[H:10]"
C       -1.00620919      -0.58892746       0.12076271
C       -0.84232867       0.77712587       0.23458751
N        1.16777078       0.88711903      -0.29995710
C        1.55606136      -0.26841807      -0.56671660
O        1.23365392      -1.44282981      -0.65532623
H       -1.01732971      -1.20912124       1.01015274
H       -1.45941770      -1.02703373      -0.76061029
H       -1.27319065       1.42431487      -0.52128501
H       -0.76107702       1.22961758       1.21625241
H        2.40206686       0.21815296       0.22213986
10
Frame=7 idx=006111 GeodesicLength=0.4439892144468709 rxn_smarts="[C:1]1([H:6])([H:7])[C:2]([H:8])([H:9])[N:3]=[C:4]([H:10])[O:5]1>>[C:1](=[C:2]([H:8])[H:9])([H:6])[H:7].[N:3](=[C:4]=[O:5])[H:10]"
C       -0.98701535      -0.59557515       0.12436337
C       -0.82435549       0.77671734       0.22653613
N        1.18789929       0.89220351      -0.31887711
C        1.57173609      -0.26106547      -0.59390798
O        1.22405285      -1.43003545      -0.70199818
H       -1.00940775      -1.20103435       1.02421249
H       -1.47503605      -1.03538962      -0.73775550
H       -1.28141163       1.41369826      -0.52323678
H       -0.75581016       1.23602781       1.20639368
H        2.34934820       0.20445311       0.29426989
10
Frame=8 idx=006111 GeodesicLength=0.5114430814899134 rxn_smarts="[C:1]1([H:6])([H:7])[C:2]([H:8])([H:9])[N:3]=[C:4]([H:10])[O:5]1>>[C:1](=[C:2]([H:8])[H:9])([H:6])[H:7].[N:3](=[C:4]=[O:5])[H:10]"
C       -0.96755179      -0.60227659       0.12841233
C       -0.80694921       0.77642786       0.21794626
N        1.21001138       0.89699365      -0.32989737
C        1.58830011      -0.25311357      -0.61808062
O        1.21355776      -1.41458124      -0.75112935
H       -0.99995695      -1.19200923       1.03896188
H       -1.48968486      -1.04421417      -0.71282908
H       -1.28724443       1.40191488      -0.52765944
H       -0.75511112       1.24336078       1.19567073
H        2.29462911       0.18749762       0.35860466
10
Frame=9 idx=006111 GeodesicLength=0.5795389269185436 rxn_smarts="[C:1]1([H:6])([H:7])[C:2]([H:8])([H:9])[N:3]=[C:4]([H:10])[O:5]1>>[C:1](=[C:2]([H:8])[H:9])([H:6])[H:7].[N:3](=[C:4]=[O:5])[H:10]"
C       -0.94798998      -0.60901547       0.13298508
C       -0.79022221       0.77622990       0.20887244
N        1.23386874       0.90136493      -0.33361163
C        1.60547580      -0.24456867      -0.63958413
O        1.20193362      -1.39604674      -0.80254311
H       -0.98900008      -1.18203076       1.05443831
H       -1.50337991      -1.05352308      -0.68578627
H       -1.29103888       1.38892031      -0.53458912
H       -0.75865837       1.25152487       1.18391727
H        2.23901127       0.16714471       0.41590116
10
Frame=10 idx=006111 GeodesicLength=0.6482111037377734 rxn_smarts="[C:1]1([H:6])([H:7])[C:2]([H:8])([H:9])[N:3]=[C:4]([H:10])[O:5]1>>[C:1](=[C:2]([H:8])[H:9])([H:6])[H:7].[N:3](=[C:4]=[O:5])[H:10]"
C       -0.92850532      -0.61578315       0.13809076
C       -0.77420276       0.77607368       0.19939815
N        1.25918094       0.90509507      -0.33080283
C        1.62302556      -0.23554475      -0.65867149
O        1.18903673      -1.37413544      -0.85574047
H       -0.97676790      -1.17113111       1.07058674
H       -1.51606606      -1.06324830      -0.65677619
H       -1.29307915       1.37473481      -0.54386783
H       -0.76589283       1.26031190       1.17102969
H        2.18327079       0.14362730       0.46675346
10
Frame=11 idx=006111 GeodesicLength=0.7174246018206418 rxn_smarts="[C:1]1([H:6])([H:7])[C:2]([H:8])([H:9])[N:3]=[C:4]([H:10])[O:5]1>>[C:1](=[C:2]([H:8])[H:9])([H:6])[H:7].[N:3](=[C:4]=[O:5])[H:10]"
C       -0.90927809      -0.62258881       0.14365265
C       -0.75884376       0.77589219       0.18965090
N        1.28559762       0.90789589      -0.32253186
C        1.64075238      -0.22628043      -0.67553068
O        1.17487579      -1.34878044      -0.90983195
H       -0.96376505      -1.15942564       1.08722871
H       -1.52764828      -1.07322702      -0.62619493
H       -1.29366299       1.35948292      -0.55507799
H       -0.77599255       1.26939514       1.15703509
H        2.12796494       0.11763620       0.51160005
10
Frame=12 idx=006111 GeodesicLength=0.7870332637337637 rxn_smarts="[C:1]1([H:6])([H:7])[C:2]([H:8])([H:9])[N:3]=[C:4]([H:10])[O:5]1>>[C:1](=[C:2]([H:8])[H:9])([H:6])[H:7].[N:3](=[C:4]=[O:5])[H:10]"
C       -0.89056285      -0.62945639       0.14939363
C       -0.74402641       0.77558590       0.17989437
N        1.31260692       0.90948668      -0.31052631
C        1.65846674      -0.21722796      -0.69033097
O        1.15983339      -1.32063769      -0.96294876
H       -0.95116721      -1.14720139       1.10386941
H       -1.53795727      -1.08304922      -0.59501316
H       -1.29329502       1.34354368      -0.56719275
H       -0.78769409       1.27815604       1.14231858
H        2.07379578       0.09080036       0.55053594
10
Frame=13 idx=006111 GeodesicLength=0.8569176596932526 rxn_smarts="[C:1]1([H:6])([H:7])[C:2]([H:8])([H:9])[N:3]=[C:4]([H:10])[O:5]1>>[C:1](=[C:2]([H:8])[H:9])([H:6])[H:7].[N:3](=[C:4]=[O:5])[H:10]"
C       -0.87252274      -0.63641895       0.15509203
C       -0.72963974       0.77509077       0.17032671
N        1.33980555       0.90970926      -0.29627125
C        1.67602777      -0.20876140      -0.70331453
O        1.14428423      -1.29044495      -1.01375046
H       -0.93986277      -1.13471313       1.12010995
H       -1.54695127      -1.09240440      -0.56404737
H       -1.29243206       1.32724979      -0.57934420
H       -0.79995737       1.28615299       1.12725557
H        2.02124840       0.06454001       0.58394355
10
Frame=14 idx=006111 GeodesicLength=0.9269856179207785 rxn_smarts="[C:1]1([H:6])([H:7])[C:2]([H:8])([H:9])[N:3]=[C:4]([H:10])[O:5]1>>[C:1](=[C:2]([H:8])[H:9])([H:6])[H:7].[N:3](=[C:4]=[O:5])[H:10]"
C       -0.85523306      -0.64350302       0.16060958
C       -0.71560860       0.77437874       0.16106584
N        1.36692455       0.90852002      -0.28084157
C        1.69333118      -0.20112137      -0.71477042
O        1.12852258      -1.25886046      -1.06149894
H       -0.93036435      -1.12213827       1.13568803
H       -1.55468642      -1.10110694      -0.53385817
H       -1.29142983       1.31083694      -0.59093838
H       -0.81208334       1.29314571       1.11213967
H        1.97062728       0.03984866       0.61240437
10
Frame=15 idx=006111 GeodesicLength=0.9971541117560148 rxn_smarts="[C:1]1([H:6])([H:7])[C:2]([H:8])([H:9])[N:3]=[C:4]([H:10])[O:5]1>>[C:1](=[C:2]([H:8])[H:9])([H:6])[H:7].[N:3](=[C:4]=[O:5])[H:10]"
C       -0.83871716      -0.65072660       0.16585631
C       -0.70188525       0.77344542       0.15218128
N        1.39378546       0.90595520      -0.26503260
C        1.71030201      -0.19445209      -0.72499468
O        1.11278829      -1.22648221      -1.10579750
H       -0.92295384      -1.10960929       1.15041605
H       -1.56126023      -1.10904652      -0.50484103
H       -1.29057093       1.29448459      -0.60155839
H       -0.82360302       1.29901144       1.09721513
H        1.92211468       0.01742006       0.63655544
10
Frame=16 idx=006111 GeodesicLength=1.0673601188344757 rxn_smarts="[C:1]1([H:6])([H:7])[C:2]([H:8])([H:9])[N:3]=[C:4]([H:10])[O:5]1>>[C:1](=[C:2]([H:8])[H:9])([H:6])[H:7].[N:3](=[C:4]=[O:5])[H:10]"
C       -0.82295913      -0.65809595       0.17079458
C       -0.68844965       0.77230608       0.14369539
N        1.42028993       0.90209271      -0.24934452
C        1.72688688      -0.18880282      -0.73426903
O        1.09724163      -1.19377034      -1.14656076
H       -0.91768497      -1.09720662       1.16418862
H       -1.56679307      -1.11618817      -0.47721332
H       -1.29004590       1.27830482      -0.61097993
H       -0.83426448       1.30373542       1.08264705
H        1.87577877      -0.00237515       0.65704193
