16
Frame=0 idx=000675 GeodesicLength=0.0 rxn_smarts="[C:1]([C:2]([C:3]([H:11])([H:12])[H:13])([C:4](=[O:5])[C:6]([H:14])([H:15])[H:16])[H:10])([H:7])([H:8])[H:9]>>[C:1]([C:2]([C:3]([H:11])([H:12])[H:13])([C:4]([O:5][H:16])=[C:6]([H:14])[H:15])[H:10])([H:7])([H:8])[H:9]"
C       -1.27953403       0.25096534      -0.94823473
C       -0.44011369      -0.35861512       0.18331068
C       -1.01031043      -0.03586560       1.55803252
C        0.98333000       0.07294365       0.02263059
O        1.51876411       0.93066347       0.80817059
C        1.96166932      -0.35697110      -0.91041595
H       -0.89407783      -0.03248914      -1.92785644
H       -1.28231817       1.34093212      -0.88108057
H       -2.31189265      -0.09356819      -0.87072549
H       -0.42772097      -1.44480330       0.03443532
H       -1.03830779       1.04232492       1.72110123
H       -0.40723073      -0.47570063       2.35268019
H       -2.02721898      -0.42270847       1.64480296
H        1.89802177      -1.32709180      -1.39259619
H        2.24640190       0.44564398      -1.59065204
H        2.51053810       0.46433989       0.19639737
16
Frame=1 idx=000675 GeodesicLength=0.05620720177765779 rxn_smarts="[C:1]([C:2]([C:3]([H:11])([H:12])[H:13])([C:4](=[O:5])[C:6]([H:14])([H:15])[H:16])[H:10])([H:7])([H:8])[H:9]>>[C:1]([C:2]([C:3]([H:11])([H:12])[H:13])([C:4]([O:5][H:16])=[C:6]([H:14])[H:15])[H:10])([H:7])([H:8])[H:9]"
C       -1.29130593       0.27337156      -0.94412171
C       -0.44225448      -0.35317074       0.16993312
C       -1.00349405      -0.05578921       1.55448333
C        0.97748058       0.08990051       0.00883034
O        1.49374857       0.98941339       0.76030347
C        1.97506657      -0.37804515      -0.88447880
H       -0.91170063       0.00930808      -1.93151188
H       -1.29781172       1.36191298      -0.85773229
H       -2.32191022      -0.07657431      -0.86628506
H       -0.42830750      -1.43694645       0.00567801
H       -1.04166304       1.01940898       1.73463634
H       -0.38961933      -0.50217851       2.33723530
H       -2.01663524      -0.45213679       1.64302742
H        1.92410558      -1.37525378      -1.30966436
H        2.26245825       0.38435312      -1.60835492
H        2.51184259       0.50242632       0.18802169
16
Frame=2 idx=000675 GeodesicLength=0.11264455936769209 rxn_smarts="[C:1]([C:2]([C:3]([H:11])([H:12])[H:13])([C:4](=[O:5])[C:6]([H:14])([H:15])[H:16])[H:10])([H:7])([H:8])[H:9]>>[C:1]([C:2]([C:3]([H:11])([H:12])[H:13])([C:4]([O:5][H:16])=[C:6]([H:14])[H:15])[H:10])([H:7])([H:8])[H:9]"
C       -1.30432746       0.29512449      -0.93999918
C       -0.44473237      -0.34776713       0.15558065
C       -0.99544961      -0.07531727       1.54992308
C        0.97106066       0.10695215      -0.00694441
O        1.46854152       1.04468888       0.71032403
C        1.98828864      -0.39756040      -0.85691785
H       -0.93152126       0.05047543      -1.93504429
H       -1.31452111       1.38190085      -0.83453013
H       -2.33304605      -0.06033697      -0.86099324
H       -0.42921445      -1.42892345      -0.02390527
H       -1.04206048       0.99658619       1.74718676
H       -0.37076015      -0.52866947       2.32013475
H       -2.00503877      -0.48020139       1.64090292
H        1.94854357      -1.41809335      -1.22415980
H        2.28149784       0.32202157      -1.62107016
H        2.51273950       0.53911984       0.17951214
16
Frame=3 idx=000675 GeodesicLength=0.1690322779067131 rxn_smarts="[C:1]([C:2]([C:3]([H:11])([H:12])[H:13])([C:4](=[O:5])[C:6]([H:14])([H:15])[H:16])[H:10])([H:7])([H:8])[H:9]>>[C:1]([C:2]([C:3]([H:11])([H:12])[H:13])([C:4]([O:5][H:16])=[C:6]([H:14])[H:15])[H:10])([H:7])([H:8])[H:9]"
C       -1.31813229       0.31627352      -0.93582947
C       -0.44747531      -0.34256679       0.14044146
C       -0.98637257      -0.09452727       1.54440718
C        0.96433838       0.12346229      -0.02416001
O        1.44343818       1.09625217       0.65878234
C        2.00113644      -0.41545017      -0.82789766
H       -0.95289295       0.09100752      -1.93832229
H       -1.33163099       1.40095754      -0.81144268
H       -2.34492212      -0.04459153      -0.85507531
H       -0.43051796      -1.42089723      -0.05417589
H       -1.03953386       0.97383202       1.75877347
H       -0.35113664      -0.55538573       2.30154933
H       -1.99274252      -0.50679889       1.63828246
H        1.97129768      -1.45574245      -1.13608660
H        2.30183198       0.25896237      -1.62934702
H        2.51331453       0.57521264       0.17010071
16
Frame=4 idx=000675 GeodesicLength=0.22567182511181472 rxn_smarts="[C:1]([C:2]([C:3]([H:11])([H:12])[H:13])([C:4](=[O:5])[C:6]([H:14])([H:15])[H:16])[H:10])([H:7])([H:8])[H:9]>>[C:1]([C:2]([C:3]([H:11])([H:12])[H:13])([C:4]([O:5][H:16])=[C:6]([H:14])[H:15])[H:10])([H:7])([H:8])[H:9]"
C       -1.33288367       0.33697548      -0.93157180
C       -0.45050227      -0.33747513       0.12435423
C       -0.97615260      -0.11356365       1.53786112
C        0.95725254       0.13961477      -0.04318723
O        1.41837645       1.14458244       0.60538765
C        2.01359291      -0.43188050      -0.79724301
H       -0.97612362       0.13120894      -1.94137558
H       -1.34934308       1.41923080      -0.78828209
H       -2.35766966      -0.02925045      -0.84838861
H       -0.43220573      -1.41275246      -0.08542273
H       -1.03406272       0.95100768       1.76942226
H       -0.33048853      -0.58247404       2.28124211
H       -1.97957351      -0.53225445       1.63521978
H        1.99224503      -1.48845356      -1.04510204
H        2.32400976       0.19485269      -1.63288947
H        2.51352868       0.61063144       0.15997543
16
Frame=5 idx=000675 GeodesicLength=0.28281522967801426 rxn_smarts="[C:1]([C:2]([C:3]([H:11])([H:12])[H:13])([C:4](=[O:5])[C:6]([H:14])([H:15])[H:16])[H:10])([H:7])([H:8])[H:9]>>[C:1]([C:2]([C:3]([H:11])([H:12])[H:13])([C:4]([O:5][H:16])=[C:6]([H:14])[H:15])[H:10])([H:7])([H:8])[H:9]"
C       -1.34873745       0.35729339      -0.92718700
C       -0.45382453      -0.33241964       0.10716573
C       -0.96463810      -0.13249790       1.53018639
C        0.94974805       0.15553082      -0.06445605
O        1.39332444       1.19001170       0.54982433
C        2.02559061      -0.44694418      -0.76476302
H       -1.00154289       0.17121472      -1.94420933
H       -1.36781408       1.43677294      -0.76493022
H       -2.37140430      -0.01431329      -0.84075998
H       -0.43427388      -1.40440182      -0.11786412
H       -1.02553633       0.92804728       1.77906888
H       -0.30852875      -0.60996931       2.25896135
H       -1.96531070      -0.55679221       1.63177386
H        2.01090827      -1.51624895      -0.95124990
H        2.34870995       0.12957894      -1.63111028
H        2.51332968       0.64513750       0.14954937
16
Frame=6 idx=000675 GeodesicLength=0.3402127045703465 rxn_smarts="[C:1]([C:2]([C:3]([H:11])([H:12])[H:13])([C:4](=[O:5])[C:6]([H:14])([H:15])[H:16])[H:10])([H:7])([H:8])[H:9]>>[C:1]([C:2]([C:3]([H:11])([H:12])[H:13])([C:4]([O:5][H:16])=[C:6]([H:14])[H:15])[H:10])([H:7])([H:8])[H:9]"
C       -1.36520949       0.37719180      -0.92263224
C       -0.45736461      -0.32756460       0.08911116
C       -0.95206025      -0.15137045       1.52145043
C        0.94208045       0.17066804      -0.08739301
O        1.36857033       1.23224568       0.49263992
C        2.03688680      -0.46045550      -0.73070080
H       -1.02844883       0.21089389      -1.94665552
H       -1.38626219       1.45356199      -0.74141091
H       -2.38572169       0.00037034      -0.83239846
H       -0.43670990      -1.39600992      -0.15124777
H       -1.01405317       0.90494953       1.78768080
H       -0.28578845      -0.63799340       2.23492980
H       -1.95027983      -0.58030170       1.62780952
H        2.02711822      -1.53892797      -0.85477928
H        2.37440086       0.06352262      -1.62444132
H        2.51284174       0.67921965       0.13803768
16
Frame=7 idx=000675 GeodesicLength=0.39769055120468166 rxn_smarts="[C:1]([C:2]([C:3]([H:11])([H:12])[H:13])([C:4](=[O:5])[C:6]([H:14])([H:15])[H:16])[H:10])([H:7])([H:8])[H:9]>>[C:1]([C:2]([C:3]([H:11])([H:12])[H:13])([C:4]([O:5][H:16])=[C:6]([H:14])[H:15])[H:10])([H:7])([H:8])[H:9]"
C       -1.38202926       0.39647191      -0.91788978
C       -0.46107050      -0.32301799       0.07040308
C       -0.93858146      -0.17005752       1.51174590
C        0.93437562       0.18476129      -0.11174658
O        1.34434719       1.27113421       0.43420364
C        2.04727700      -0.47223716      -0.69541650
H       -1.05647214       0.24981103      -1.94860778
H       -1.40423498       1.46944319      -0.71790774
H       -2.40039485       0.01471250      -0.82333488
H       -0.43943697      -1.38772065      -0.18519891
H       -0.99976244       0.88190198       1.79513459
H       -0.26259533      -0.66633414       2.20940394
H       -1.93467803      -0.60261157       1.62339117
H        2.04028830      -1.55618985      -0.75709894
H        2.40076599      -0.00251993      -1.61278888
H        2.51220185       0.71245270       0.12570768
16
Frame=8 idx=000675 GeodesicLength=0.45530758957511014 rxn_smarts="[C:1]([C:2]([C:3]([H:11])([H:12])[H:13])([C:4](=[O:5])[C:6]([H:14])([H:15])[H:16])[H:10])([H:7])([H:8])[H:9]>>[C:1]([C:2]([C:3]([H:11])([H:12])[H:13])([C:4]([O:5][H:16])=[C:6]([H:14])[H:15])[H:10])([H:7])([H:8])[H:9]"
C       -1.39909387       0.41504161      -0.91293273
C       -0.46493459      -0.31884871       0.05113002
C       -0.92425507      -0.18849841       1.50111670
C        0.92667409       0.19763857      -0.13749229
O        1.32069316       1.30671233       0.37452420
C        2.05663186      -0.48225685      -0.65910885
H       -1.08550257       0.28778859      -1.95000897
H       -1.42153566       1.48435497      -0.69449165
H       -2.41534332       0.02870884      -0.81350420
H       -0.44244179      -1.37962572      -0.21953521
H       -0.98272480       0.85900823       1.80132659
H       -0.23904305      -0.69484371       2.18249694
H       -1.91855713      -0.62364261       1.61862852
H        2.05014308      -1.56807034      -0.65922968
H        2.42787694      -0.06796105      -1.59592662
H        2.51141271       0.74449427       0.11300722
16
Frame=9 idx=000675 GeodesicLength=0.5129323323263963 rxn_smarts="[C:1]([C:2]([C:3]([H:11])([H:12])[H:13])([C:4](=[O:5])[C:6]([H:14])([H:15])[H:16])[H:10])([H:7])([H:8])[H:9]>>[C:1]([C:2]([C:3]([H:11])([H:12])[H:13])([C:4]([O:5][H:16])=[C:6]([H:14])[H:15])[H:10])([H:7])([H:8])[H:9]"
C       -1.41599814       0.43277084      -0.90776319
C       -0.46885069      -0.31510844       0.03159894
C       -0.90934387      -0.20661253       1.48974810
C        0.91914980       0.20916102      -0.16410690
O        1.29789788       1.33892132       0.31420871
C        2.06478541      -0.49036748      -0.62216554
H       -1.11490565       0.32445919      -1.95076956
H       -1.43765664       1.49822081      -0.67134841
H       -2.43018437       0.04224842      -0.80310031
H       -0.44558809      -1.37182226      -0.25380580
H       -0.96330313       0.83639479       1.80626340
H       -0.21560095      -0.72340645       2.15460027
H       -1.90217386      -0.64337936       1.61353820
H        2.05616866      -1.57464202      -0.56244537
H        2.45495082      -0.13219984      -1.57428811
H        2.51065283       0.77536198       0.09983556
16
Frame=10 idx=000675 GeodesicLength=0.570816474058277 rxn_smarts="[C:1]([C:2]([C:3]([H:11])([H:12])[H:13])([C:4](=[O:5])[C:6]([H:14])([H:15])[H:16])[H:10])([H:7])([H:8])[H:9]>>[C:1]([C:2]([C:3]([H:11])([H:12])[H:13])([C:4]([O:5][H:16])=[C:6]([H:14])[H:15])[H:10])([H:7])([H:8])[H:9]"
C       -1.43256260       0.44981785      -0.90231500
C       -0.47283102      -0.31187328       0.01187519
C       -0.89401845      -0.22458059       1.47768425
C        0.91187128       0.21914887      -0.19131282
O        1.27589978       1.36788315       0.25328421
C        2.07171698      -0.49660727      -0.58474628
H       -1.14435428       0.36017232      -1.95081065
H       -1.45237454       1.51119475      -0.64828072
H       -2.44480041       0.05560396      -0.79218431
H       -0.44889161      -1.36436827      -0.28805641
H       -0.94167096       0.81386902       1.81004226
H       -0.19254492      -0.75227449       2.12580357
H       -1.88573521      -0.66195343       1.60807326
H        2.05912301      -1.57611597      -0.46611521
H        2.48122584      -0.19540320      -1.54838600
H        2.50994713       0.80548658       0.08544466
16
Frame=11 idx=000675 GeodesicLength=0.6291282001053439 rxn_smarts="[C:1]([C:2]([C:3]([H:11])([H:12])[H:13])([C:4](=[O:5])[C:6]([H:14])([H:15])[H:16])[H:10])([H:7])([H:8])[H:9]>>[C:1]([C:2]([C:3]([H:11])([H:12])[H:13])([C:4]([O:5][H:16])=[C:6]([H:14])[H:15])[H:10])([H:7])([H:8])[H:9]"
C       -1.44872298       0.46610789      -0.89658483
C       -0.47685163      -0.30914439      -0.00793806
C       -0.87833864      -0.24232307       1.46502105
C        0.90485796       0.22762484      -0.21907100
O        1.25474403       1.39373748       0.19174258
C        2.07738952      -0.50098967      -0.54702952
H       -1.17376378       0.39474265      -1.95012375
H       -1.46562307       1.52324210      -0.62539004
H       -2.45912216       0.06868218      -0.78072378
H       -0.45232312      -1.35730708      -0.32208574
H       -0.91797283       0.79153904       1.81263529
H       -0.16994655      -0.78129380       2.09627496
H       -1.86925905      -0.67936611       1.60236952
H        2.05865137      -1.57275454      -0.37137203
H        2.50695533      -0.25705637      -1.51810444
H        2.50932561       0.83455887       0.07037982
16
Frame=12 idx=000675 GeodesicLength=0.6880808164834361 rxn_smarts="[C:1]([C:2]([C:3]([H:11])([H:12])[H:13])([C:4](=[O:5])[C:6]([H:14])([H:15])[H:16])[H:10])([H:7])([H:8])[H:9]>>[C:1]([C:2]([C:3]([H:11])([H:12])[H:13])([C:4]([O:5][H:16])=[C:6]([H:14])[H:15])[H:10])([H:7])([H:8])[H:9]"
C       -1.46437127       0.48171637      -0.89052894
C       -0.48093850      -0.30699967      -0.02778085
C       -0.86243587      -0.25993213       1.45181591
C        0.89812487       0.23444652      -0.24723130
O        1.23434510       1.41653932       0.12949393
C        2.08180774      -0.50355363      -0.50921493
H       -1.20293492       0.42836257      -1.94865912
H       -1.47725599       1.53444040      -0.60258681
H       -2.47309542       0.08168084      -0.76871102
H       -0.45592247      -1.35071692      -0.35585983
H       -0.89234185       0.76930629       1.81407934
H       -0.14801272      -0.81057486       2.06613780
H       -1.85290056      -0.69564333       1.59646626
H        2.05532150      -1.56474376      -0.27811033
H        2.53184444      -0.31701283      -1.48373519
H        2.50876593       0.86268481       0.05442507
16
Frame=13 idx=000675 GeodesicLength=0.7475834400022532 rxn_smarts="[C:1]([C:2]([C:3]([H:11])([H:12])[H:13])([C:4](=[O:5])[C:6]([H:14])([H:15])[H:16])[H:10])([H:7])([H:8])[H:9]>>[C:1]([C:2]([C:3]([H:11])([H:12])[H:13])([C:4]([O:5][H:16])=[C:6]([H:14])[H:15])[H:10])([H:7])([H:8])[H:9]"
C       -1.47920460       0.49656855      -0.88418637
C       -0.48496665      -0.30537457      -0.04738070
C       -0.84653001      -0.27734081       1.43827098
C        0.89176105       0.23979022      -0.27530660
O        1.21493559       1.43636468       0.06725489
C        2.08490573      -0.50419459      -0.47163185
H       -1.23136877       0.46071454      -1.94640979
H       -1.48701197       1.54474039      -0.58006362
H       -2.48637420       0.09440351      -0.75637156
H       -0.45950224      -1.34455905      -0.38900354
H       -0.86523550       0.74721969       1.81448663
H       -0.12710511      -0.84001453       2.03577991
H       -1.83679906      -0.71090444       1.59037094
H        2.04873527      -1.55226604      -0.18734431
H        2.55528036      -0.37503274      -1.44584882
H        2.50848012       0.88988519       0.03738381
16
Frame=14 idx=000675 GeodesicLength=0.8076251139609055 rxn_smarts="[C:1]([C:2]([C:3]([H:11])([H:12])[H:13])([C:4](=[O:5])[C:6]([H:14])([H:15])[H:16])[H:10])([H:7])([H:8])[H:9]>>[C:1]([C:2]([C:3]([H:11])([H:12])[H:13])([C:4]([O:5][H:16])=[C:6]([H:14])[H:15])[H:10])([H:7])([H:8])[H:9]"
C       -1.49313537       0.51065033      -0.87754150
C       -0.48900866      -0.30443180      -0.06660764
C       -0.83083422      -0.29453561       1.42452925
C        0.88575615       0.24340978      -0.30305449
O        1.19636633       1.45319577       0.00489350
C        2.08681403      -0.50302282      -0.43469581
H       -1.25884492       0.49182894      -1.94336179
H       -1.49473779       1.55418045      -0.55788028
H       -2.49898704       0.10708823      -0.74367591
H       -0.46315690      -1.33904568      -0.42131475
H       -0.83687578       0.72533667       1.81388404
H       -0.10752151      -0.86956970       2.00550110
H       -1.82125958      -0.72493617       1.58424099
H        2.03981767      -1.53570931      -0.09958394
H        2.57719251      -0.43043240      -1.40491157
H        2.50841506       0.91599333       0.01957879
16
Frame=15 idx=000675 GeodesicLength=0.8681015726985619 rxn_smarts="[C:1]([C:2]([C:3]([H:11])([H:12])[H:13])([C:4](=[O:5])[C:6]([H:14])([H:15])[H:16])[H:10])([H:7])([H:8])[H:9]>>[C:1]([C:2]([C:3]([H:11])([H:12])[H:13])([C:4]([O:5][H:16])=[C:6]([H:14])[H:15])[H:10])([H:7])([H:8])[H:9]"
C       -1.50606636       0.52390779      -0.87064550
C       -0.49301350      -0.30412235      -0.08528560
C       -0.81548575      -0.31140950       1.41076947
C        0.88012885       0.24548418      -0.33024189
O        1.17874694       1.46717563      -0.05721826
C        2.08759636      -0.50009170      -0.39871575
H       -1.28517630       0.52141653      -1.93957760
H       -1.50038205       1.56277053      -0.53625108
H       -2.51082547       0.11961548      -0.73070525
H       -0.46682233      -1.33419047      -0.45251043
H       -0.80762926       0.70378225       1.81235895
H       -0.08941474      -0.89905380       1.97561733
H       -1.80636709      -0.73776262       1.57819473
H        2.02849534      -1.51561567      -0.01587376
H        2.59755342      -0.48279261      -1.36139489
H        2.50866194       0.94088632       0.00147952
16
Frame=16 idx=000675 GeodesicLength=0.928794628190909 rxn_smarts="[C:1]([C:2]([C:3]([H:11])([H:12])[H:13])([C:4](=[O:5])[C:6]([H:14])([H:15])[H:16])[H:10])([H:7])([H:8])[H:9]>>[C:1]([C:2]([C:3]([H:11])([H:12])[H:13])([C:4]([O:5][H:16])=[C:6]([H:14])[H:15])[H:10])([H:7])([H:8])[H:9]"
C       -1.51792037       0.53630324      -0.86354981
C       -0.49697793      -0.30445949      -0.10326941
C       -0.80061663      -0.32786562       1.39716168
C        0.87485220       0.24606272      -0.35667272
O        1.16205442       1.47836759      -0.11885884
C        2.08734024      -0.49552846      -0.36405098
H       -1.31020113       0.54927603      -1.93513559
H       -1.50387933       1.57052969      -0.51538139
H       -2.52183102       0.13200913      -0.71749889
H       -0.47050889      -1.33005857      -0.48234243
H       -0.77780668       0.68267183       1.80998902
H       -0.07293061      -0.92828928       1.94643405
H       -1.79224070      -0.74928202       1.57238192
H        2.01512388      -1.49262237       0.06298028
H        2.61637854      -0.53156726      -1.31588733
H        2.50916400       0.96445283      -0.01629957
