14
Frame=0 idx=000264 GeodesicLength=0.0 rxn_smarts="[C:1]([C@:2]12[C:3]([H:10])([H:11])[C@@:4]1([H:12])[O:5][C:6]2([H:13])[H:14])([H:7])([H:8])[H:9]>>[C:1]([C:2]([C:3]([C:4](=[O:5])[H:12])([H:10])[H:11])=[C:6]([H:13])[H:14])([H:7])([H:8])[H:9]"
C        1.61479507      -0.44239260      -0.59288394
C        0.42647561      -0.04916981       0.22208647
C       -0.76941460      -0.89758374       0.50546969
C       -1.60355640       0.01375854      -0.30543214
O       -1.47593523       1.28744631      -0.18179055
C        0.01733464       1.28610033       0.53480912
H        1.36534274      -1.22704822      -1.31490001
H        2.44843630      -0.82944000       0.00700501
H        2.00257733       0.40579248      -1.16565979
H       -0.74229056      -1.89959210       0.07634149
H       -1.11072657      -0.97376220       1.55595565
H       -2.41024917      -0.31740148      -0.96001251
H       -0.30228354       1.52764134       1.55433768
H        0.53949440       2.11565119       0.06467382
14
Frame=1 idx=000264 GeodesicLength=0.06399480873273894 rxn_smarts="[C:1]([C@:2]12[C:3]([H:10])([H:11])[C@@:4]1([H:12])[O:5][C:6]2([H:13])[H:14])([H:7])([H:8])[H:9]>>[C:1]([C:2]([C:3]([C:4](=[O:5])[H:12])([H:10])[H:11])=[C:6]([H:13])[H:14])([H:7])([H:8])[H:9]"
C        1.60501631      -0.43888904      -0.59905146
C        0.42188860      -0.04420275       0.22279976
C       -0.76870347      -0.89766725       0.51444249
C       -1.59259955       0.00348483      -0.31968435
O       -1.48169037       1.28019454      -0.19940094
C        0.02347246       1.29177268       0.54310122
H        1.34433951      -1.20367123      -1.33788331
H        2.42828665      -0.85163075      -0.00247493
H        2.00889724       0.41384545      -1.15317594
H       -0.73344517      -1.90479701       0.09846290
H       -1.11760540      -0.95578974       1.56227143
H       -2.39572456      -0.34276946      -0.97149655
H       -0.29636069       1.53055378       1.56279225
H        0.55422843       2.11956596       0.07929743
14
Frame=2 idx=000264 GeodesicLength=0.1279760826178908 rxn_smarts="[C:1]([C@:2]12[C:3]([H:10])([H:11])[C@@:4]1([H:12])[O:5][C:6]2([H:13])[H:14])([H:7])([H:8])[H:9]>>[C:1]([C:2]([C:3]([C:4](=[O:5])[H:12])([H:10])[H:11])=[C:6]([H:13])[H:14])([H:7])([H:8])[H:9]"
C        1.59525854      -0.43530630      -0.60504108
C        0.41709596      -0.03913812       0.22327291
C       -0.76816140      -0.89763371       0.52300928
C       -1.58185940      -0.00678453      -0.33358215
O       -1.48764410       1.27276876      -0.21719755
C        0.02964296       1.29744004       0.55137783
H        1.32398995      -1.18058185      -1.35948683
H        2.40797743      -0.87257261      -0.01198305
H        2.01477938       0.42103425      -1.14120529
H       -0.72467586      -1.90950855       0.11989516
H       -1.12456863      -0.93817195       1.56782548
H       -2.38135551      -0.36807278      -0.98237627
H       -0.28967649       1.53327530       1.57150454
H        0.56919718       2.12325206       0.09398701
14
Frame=3 idx=000264 GeodesicLength=0.19196737752980989 rxn_smarts="[C:1]([C@:2]12[C:3]([H:10])([H:11])[C@@:4]1([H:12])[O:5][C:6]2([H:13])[H:14])([H:7])([H:8])[H:9]>>[C:1]([C:2]([C:3]([C:4](=[O:5])[H:12])([H:10])[H:11])=[C:6]([H:13])[H:14])([H:7])([H:8])[H:9]"
C        1.58548312      -0.43163577      -0.61088694
C        0.41208453      -0.03395529       0.22351950
C       -0.76778509      -0.89747193       0.53125419
C       -1.57136125      -0.01707846      -0.34710493
O       -1.49382673       1.26513818      -0.23520303
C        0.03583775       1.30311405       0.55964703
H        1.30416688      -1.15768274      -1.37992939
H        2.38745539      -0.89244068      -0.02153753
H        2.02028442       0.42747343      -1.12966927
H       -0.71596866      -1.91375614       0.14079695
H       -1.13161577      -0.92083402       1.57273032
H       -2.36694778      -0.39339300      -0.99286826
H       -0.28221171       1.53581326       1.58049129
H        0.58440490       2.12670910       0.10876007
14
Frame=4 idx=000264 GeodesicLength=0.2559954266362303 rxn_smarts="[C:1]([C@:2]12[C:3]([H:10])([H:11])[C@@:4]1([H:12])[O:5][C:6]2([H:13])[H:14])([H:7])([H:8])[H:9]>>[C:1]([C:2]([C:3]([C:4](=[O:5])[H:12])([H:10])[H:11])=[C:6]([H:13])[H:14])([H:7])([H:8])[H:9]"
C        1.57565641      -0.42787042      -0.61661593
C        0.40684477      -0.02863377       0.22355098
C       -0.76756309      -0.89716977       0.53925048
C       -1.56112446      -0.02743114      -0.36024224
O       -1.50026975       1.25726639      -0.25345894
C        0.04204523       1.30881174       0.56790392
H        1.28475767      -1.13482380      -1.39943406
H        2.36663702      -0.91145396      -0.03118261
H        2.02550839       0.43326299      -1.11842261
H       -0.70729222      -1.91756478       0.16131961
H       -1.13874076      -0.90369815       1.57707399
H       -2.35235863      -0.41882041      -1.00311649
H       -0.27395307       1.53818317       1.58974944
H        0.59985248       2.12994190       0.12362445
14
Frame=5 idx=000264 GeodesicLength=0.32008664306296475 rxn_smarts="[C:1]([C@:2]12[C:3]([H:10])([H:11])[C@@:4]1([H:12])[O:5][C:6]2([H:13])[H:14])([H:7])([H:8])[H:9]>>[C:1]([C:2]([C:3]([C:4](=[O:5])[H:12])([H:10])[H:11])=[C:6]([H:13])[H:14])([H:7])([H:8])[H:9]"
C        1.56574472      -0.42400123      -0.62225321
C        0.40136640      -0.02315606       0.22338394
C       -0.76749179      -0.89671570       0.54705803
C       -1.55115970      -0.03786867      -0.37299292
O       -1.50698241       1.24912721      -0.27201692
C        0.04825990       1.31454577       0.57615998
H        1.26567335      -1.11190570      -1.41814408
H        2.34546566      -0.92973616      -0.04096824
H        2.03048976       0.43846418      -1.10739531
H       -0.69863063      -1.92095004       0.18158524
H       -1.14595239      -0.88669979       1.58092630
H       -2.33745530      -0.44443837      -1.01325220
H       -0.26488802       1.54038738       1.59929442
H        0.61556044       2.13294717       0.13861498
14
Frame=6 idx=000264 GeodesicLength=0.3842636838733414 rxn_smarts="[C:1]([C@:2]12[C:3]([H:10])([H:11])[C@@:4]1([H:12])[O:5][C:6]2([H:13])[H:14])([H:7])([H:8])[H:9]>>[C:1]([C:2]([C:3]([C:4](=[O:5])[H:12])([H:10])[H:11])=[C:6]([H:13])[H:14])([H:7])([H:8])[H:9]"
C        1.55572338      -0.42001875      -0.62781992
C        0.39563725      -0.01750130       0.22302744
C       -0.76756820      -0.89609452       0.55473349
C       -1.54147761      -0.04842219      -0.38535301
O       -1.51399541       1.24067915      -0.29091760
C        0.05447377       1.32033195       0.58440869
H        1.24684289      -1.08877855      -1.43623807
H        2.32385832      -0.94745464      -0.05094452
H        2.03531541       0.44313334      -1.09645730
H       -0.68996043      -1.92391959       0.20170998
H       -1.15326577      -0.86977450       1.58435439
H       -2.32212845      -0.47033252      -1.02335906
H       -0.25499547       1.54243051       1.60911890
H        0.63154032       2.13572162       0.15373659
14
Frame=7 idx=000264 GeodesicLength=0.4485834840962729 rxn_smarts="[C:1]([C@:2]12[C:3]([H:10])([H:11])[C@@:4]1([H:12])[O:5][C:6]2([H:13])[H:14])([H:7])([H:8])[H:9]>>[C:1]([C:2]([C:3]([C:4](=[O:5])[H:12])([H:10])[H:11])=[C:6]([H:13])[H:14])([H:7])([H:8])[H:9]"
C        1.54556339      -0.41590669      -0.63333137
C        0.38965737      -0.01163145       0.22246813
C       -0.76775986      -0.89528610       0.56232838
C       -1.53209725      -0.05913693      -0.39735202
O       -1.52131631       1.23188173      -0.31027199
C        0.06066858       1.32619620       0.59263577
H        1.22808713      -1.06521951      -1.45389530
H        2.30167884      -0.96486568      -0.06117041
H        2.04013056       0.44734674      -1.08539271
H       -0.68121925      -1.92647597       0.22183627
H       -1.16062727      -0.85283284       1.58741058
H       -2.30630963      -0.49663704      -1.03350011
H       -0.24424651       1.54429762       1.61922568
H        0.64779022       2.13826992       0.16900909
14
Frame=8 idx=000264 GeodesicLength=0.5129429096001474 rxn_smarts="[C:1]([C@:2]12[C:3]([H:10])([H:11])[C@@:4]1([H:12])[O:5][C:6]2([H:13])[H:14])([H:7])([H:8])[H:9]>>[C:1]([C:2]([C:3]([C:4](=[O:5])[H:12])([H:10])[H:11])=[C:6]([H:13])[H:14])([H:7])([H:8])[H:9]"
C        1.53527970      -0.41167130      -0.63877695
C        0.38338965      -0.00557234       0.22169922
C       -0.76811325      -0.89429198       0.56977239
C       -1.52298658      -0.06996026      -0.40901891
O       -1.52895360       1.22273469      -0.33000116
C        0.06686433       1.33210610       0.60088057
H        1.20965748      -1.04155337      -1.47089913
H        2.27909644      -0.98158208      -0.07154949
H        2.04468824       0.45103368      -1.07452398
H       -0.67247171      -1.92859539       0.24183415
H       -1.16814796      -0.83592893       1.59001653
H       -2.29005582      -0.52321136      -1.04356904
H       -0.23260786       1.54595093       1.62964302
H        0.66436093       2.14054163       0.18449278
14
Frame=9 idx=000264 GeodesicLength=0.5774362146745673 rxn_smarts="[C:1]([C@:2]12[C:3]([H:10])([H:11])[C@@:4]1([H:12])[O:5][C:6]2([H:13])[H:14])([H:7])([H:8])[H:9]>>[C:1]([C:2]([C:3]([C:4](=[O:5])[H:12])([H:10])[H:11])=[C:6]([H:13])[H:14])([H:7])([H:8])[H:9]"
C        1.52485438      -0.40729657      -0.64417366
C        0.37682679       0.00071262       0.22073255
C       -0.76863513      -0.89309985       0.57713101
C       -1.51417430      -0.08093062      -0.42037139
O       -1.53694416       1.21321277      -0.35018377
C        0.07307133       1.33809218       0.60914213
H        1.19147174      -1.01761175      -1.48742810
H        2.25604815      -0.99775960      -0.08213066
H        2.04906922       0.45426322      -1.06370249
H       -0.66370450      -1.93029600       0.26183488
H       -1.17585822      -0.81899823       1.59224331
H       -2.27329613      -0.55017341      -1.05365075
H       -0.22001474       1.54734893       1.64037082
H        0.68128555       2.14253632       0.20018612
14
Frame=10 idx=000264 GeodesicLength=0.642105194595467 rxn_smarts="[C:1]([C@:2]12[C:3]([H:10])([H:11])[C@@:4]1([H:12])[O:5][C:6]2([H:13])[H:14])([H:7])([H:8])[H:9]>>[C:1]([C:2]([C:3]([C:4](=[O:5])[H:12])([H:10])[H:11])=[C:6]([H:13])[H:14])([H:7])([H:8])[H:9]"
C        1.51424365      -0.40275568      -0.64952857
C        0.36996013       0.00727331       0.21952550
C       -0.76927140      -0.89167033       0.58443174
C       -1.50567674      -0.09210579      -0.43143527
O       -1.54528821       1.20325417      -0.37094997
C        0.07923889       1.34416888       0.61741087
H        1.17328303      -0.99311699      -1.50361888
H        2.23230018      -1.01368949      -0.09295970
H        2.05346691       0.45708190      -1.05268304
H       -0.65482232      -1.93153145       0.28198136
H       -1.18361905      -0.80192497       1.59411470
H       -2.25592397      -0.57766475      -1.06380802
H       -0.20639520       1.54844551       1.65140905
H        0.69850410       2.14423570       0.21611022
14
Frame=11 idx=000264 GeodesicLength=0.7068908401861039 rxn_smarts="[C:1]([C@:2]12[C:3]([H:10])([H:11])[C@@:4]1([H:12])[O:5][C:6]2([H:13])[H:14])([H:7])([H:8])[H:9]>>[C:1]([C:2]([C:3]([C:4](=[O:5])[H:12])([H:10])[H:11])=[C:6]([H:13])[H:14])([H:7])([H:8])[H:9]"
C        1.50348050      -0.39805633      -0.65483153
C        0.36276316       0.01409046       0.21808416
C       -0.77008527      -0.89001280       0.59162813
C       -1.49747250      -0.10343399      -0.44225560
O       -1.55401318       1.19284972      -0.39223760
C        0.08542208       1.35032561       0.62571253
H        1.15536786      -0.96835544      -1.51932726
H        2.20808406      -1.02901617      -0.10397005
H        2.05764948       0.45945038      -1.04171247
H       -0.64590896      -1.93231064       0.30215855
H       -1.19161034      -0.78477751       1.59557947
H       -2.23805643      -0.60556428      -1.07389681
H       -0.19172117       1.54920573       1.66277325
H        0.71610072       2.14560525       0.23229523
14
Frame=12 idx=000264 GeodesicLength=0.7717772876631653 rxn_smarts="[C:1]([C@:2]12[C:3]([H:10])([H:11])[C@@:4]1([H:12])[O:5][C:6]2([H:13])[H:14])([H:7])([H:8])[H:9]>>[C:1]([C:2]([C:3]([C:4](=[O:5])[H:12])([H:10])[H:11])=[C:6]([H:13])[H:14])([H:7])([H:8])[H:9]"
C        1.49257625      -0.39319051      -0.66006905
C        0.35521939       0.02118519       0.21637899
C       -0.77107898      -0.88811809       0.59867669
C       -1.48955909      -0.11491605      -0.45289252
O       -1.56312077       1.18200356      -0.41407989
C        0.09163020       1.35655311       0.63407541
H        1.13776025      -0.94344813      -1.53449794
H        2.18344701      -1.04363453      -0.11504963
H        2.06156981       0.46140362      -1.03088954
H       -0.63696544      -1.93260701       0.32233551
H       -1.19982137      -0.76755143       1.59658252
H       -2.21979469      -0.63384567      -1.08382913
H       -0.17594325       1.54954932       1.67448858
H        0.73408069       2.14661662       0.24877002
14
Frame=13 idx=000264 GeodesicLength=0.8367392738517581 rxn_smarts="[C:1]([C@:2]12[C:3]([H:10])([H:11])[C@@:4]1([H:12])[O:5][C:6]2([H:13])[H:14])([H:7])([H:8])[H:9]>>[C:1]([C:2]([C:3]([C:4](=[O:5])[H:12])([H:10])[H:11])=[C:6]([H:13])[H:14])([H:7])([H:8])[H:9]"
C        1.48154435      -0.38814977      -0.66522669
C        0.34730874       0.02857640       0.21437902
C       -0.77226280      -0.88597403       0.60553902
C       -1.48193015      -0.12653728      -0.46339789
O       -1.57262675       1.17069860      -0.43649630
C        0.09788071       1.36284056       0.64252430
H        1.12051307      -0.91851627      -1.54907914
H        2.15846833      -1.05742788      -0.12609737
H        2.06515915       0.46297468      -1.02029070
H       -0.62800191      -1.93239748       0.34247167
H       -1.20827311      -0.75024724       1.59708454
H       -2.20122809      -0.66246555      -1.09351658
H       -0.15899336       1.54938983       1.68655955
H        0.75244180       2.14723544       0.26554657
14
Frame=14 idx=000264 GeodesicLength=0.9017520313495899 rxn_smarts="[C:1]([C@:2]12[C:3]([H:10])([H:11])[C@@:4]1([H:12])[O:5][C:6]2([H:13])[H:14])([H:7])([H:8])[H:9]>>[C:1]([C:2]([C:3]([C:4](=[O:5])[H:12])([H:10])[H:11])=[C:6]([H:13])[H:14])([H:7])([H:8])[H:9]"
C        1.47039144      -0.38292755      -0.67029248
C        0.33900985       0.03628681       0.21205845
C       -0.77364691      -0.88356630       0.61218031
C       -1.47457929      -0.13828255      -0.47381755
O       -1.58254457       1.15892422      -0.45949987
C        0.10419608       1.36917527       0.65109506
H        1.10366714      -0.89370367      -1.56302635
H        2.13323411      -1.07027523      -0.13699869
H        2.06833621       0.46420778      -1.01001346
H       -0.61903128      -1.93165715       0.36252902
H       -1.21698297      -0.73286350       1.59705096
H       -2.18242144      -0.69138170      -1.10290000
H       -0.14080662       1.54863645       1.69899782
H        0.77117825       2.14742711       0.28263677
14
Frame=15 idx=000264 GeodesicLength=0.9668574588792063 rxn_smarts="[C:1]([C@:2]12[C:3]([H:10])([H:11])[C@@:4]1([H:12])[O:5][C:6]2([H:13])[H:14])([H:7])([H:8])[H:9]>>[C:1]([C:2]([C:3]([C:4](=[O:5])[H:12])([H:10])[H:11])=[C:6]([H:13])[H:14])([H:7])([H:8])[H:9]"
C        1.45908998      -0.37750234      -0.67527763
C        0.33030708       0.04434861       0.20942386
C       -0.77523227      -0.88087052       0.61864623
C       -1.46750700      -0.15019110      -0.48415629
O       -1.59288892       1.14661561      -0.48316460
C        0.11058316       1.37556976       0.65980432
H        1.08714097      -0.86881792      -1.57646715
H        2.10764089      -1.08233235      -0.14783856
H        2.07119165       0.46513634      -0.99990408
H       -0.61003186      -1.93036607       0.38262558
H       -1.22597028      -0.71533573       1.59651231
H       -2.16327361      -0.72068692      -1.11201744
H       -0.12132914       1.54725444       1.71178354
H        0.79027937       2.14717818       0.30002992
14
Frame=16 idx=000264 GeodesicLength=1.0320260086917736 rxn_smarts="[C:1]([C@:2]12[C:3]([H:10])([H:11])[C@@:4]1([H:12])[O:5][C:6]2([H:13])[H:14])([H:7])([H:8])[H:9]>>[C:1]([C:2]([C:3]([C:4](=[O:5])[H:12])([H:10])[H:11])=[C:6]([H:13])[H:14])([H:7])([H:8])[H:9]"
C        1.44764189      -0.37186865      -0.68017101
C        0.32117638       0.05278580       0.20645522
C       -0.77703195      -0.87786801       0.62490562
C       -1.46070651      -0.16224308      -0.49444664
O       -1.60368136       1.13375815      -0.50748562
C        0.11707504       1.38200288       0.66870032
H        1.07097674      -0.84401765      -1.58934944
H        2.08178216      -1.09346865      -0.15850051
H        2.07362668       0.46580191      -0.99008053
H       -0.60101711      -1.92848790       0.40272429
H       -1.23526221      -0.69766294       1.59543183
H       -2.14381166      -0.75032572      -1.12083122
H       -0.10049974       1.54513996       1.72492022
H        0.80973166       2.14645389       0.31772746
