16
Frame=0 idx=001284 GeodesicLength=0.0 rxn_smarts="[C:1]([C:2]([C@@:3]([O:4][H:13])([C:5]([O:6][H:16])([H:14])[H:15])[H:12])([H:10])[H:11])([H:7])([H:8])[H:9]>>[C:1]([C:2]([C@@:3]([O:4][H:13])([C:5](=[O:6])[H:15])[H:12])([H:10])[H:11])([H:7])([H:8])[H:9].[H:14][H:16]"
C       -2.10559124      -0.63941706       0.12591939
C       -0.93230282       0.31526009       0.29850669
C        0.37270339      -0.26232094      -0.20433329
O        0.29942669      -0.45558580      -1.59528248
C        1.57441262       0.66664880      -0.02408997
O        2.73204509       0.23047373      -0.50085763
H       -3.02940185      -0.19391845       0.49738370
H       -2.24631839      -0.88922994      -0.92571516
H       -1.93994638      -1.56997620       0.67376981
H       -1.12462169       1.24834769      -0.23963381
H       -0.81099562       0.57259083       1.35708305
H        0.59672919      -1.21055454       0.30674288
H        1.19757207      -0.65770571      -1.88933020
H        1.65265955       0.69035828       1.37220190
H        1.33056912       1.73682397      -0.14278770
H        2.43306027       0.41820520       0.89042286
16
Frame=1 idx=001284 GeodesicLength=0.10686204059442696 rxn_smarts="[C:1]([C:2]([C@@:3]([O:4][H:13])([C:5]([O:6][H:16])([H:14])[H:15])[H:12])([H:10])[H:11])([H:7])([H:8])[H:9]>>[C:1]([C:2]([C@@:3]([O:4][H:13])([C:5](=[O:6])[H:15])[H:12])([H:10])[H:11])([H:7])([H:8])[H:9].[H:14][H:16]"
C       -2.10646701      -0.64040846       0.12548683
C       -0.93286740       0.31380554       0.29826613
C        0.37123641      -0.26189849      -0.21021789
O        0.29137683      -0.45146041      -1.60186374
C        1.57013052       0.66765863      -0.02371175
O        2.73245804       0.22523394      -0.48043068
H       -3.02948268      -0.19587944       0.50013176
H       -2.24949494      -0.88739777      -0.92650653
H       -1.93965715      -1.57235679       0.67063348
H       -1.12762683       1.24860568      -0.23610154
H       -0.80770802       0.56794329       1.35697525
H        0.59535042      -1.21193604       0.29728169
H        1.18580572      -0.66122191      -1.90057755
H        1.66060456       0.69823026       1.39090064
H        1.33054573       1.73517495      -0.17217944
H        2.45579580       0.42590702       0.91191335
16
Frame=2 idx=001284 GeodesicLength=0.21355886589809536 rxn_smarts="[C:1]([C:2]([C@@:3]([O:4][H:13])([C:5]([O:6][H:16])([H:14])[H:15])[H:12])([H:10])[H:11])([H:7])([H:8])[H:9]>>[C:1]([C:2]([C@@:3]([O:4][H:13])([C:5](=[O:6])[H:15])[H:12])([H:10])[H:11])([H:7])([H:8])[H:9].[H:14][H:16]"
C       -2.10738726      -0.64141809       0.12503860
C       -0.93348722       0.31236167       0.29794910
C        0.36967263      -0.26141985      -0.21628222
O        0.28318783      -0.44734598      -1.60856372
C        1.56555223       0.66896434      -0.02349033
O        2.73251824       0.22036628      -0.45941012
H       -3.02958843      -0.19789530       0.50292649
H       -2.25277904      -0.88556836      -0.92729579
H       -1.93935747      -1.57475355       0.66745032
H       -1.13073585       1.24885772      -0.23262006
H       -0.80441171       0.56328948       1.35676469
H        0.59396652      -1.21319478       0.28769274
H        1.17375526      -0.66488270      -1.91196507
H        1.66892821       0.70581087       1.40993357
H        1.33071051       1.73303561      -0.20204322
H        2.47945557       0.43379262       0.93391502
16
Frame=3 idx=001284 GeodesicLength=0.3201983443140767 rxn_smarts="[C:1]([C:2]([C@@:3]([O:4][H:13])([C:5]([O:6][H:16])([H:14])[H:15])[H:12])([H:10])[H:11])([H:7])([H:8])[H:9]>>[C:1]([C:2]([C@@:3]([O:4][H:13])([C:5](=[O:6])[H:15])[H:12])([H:10])[H:11])([H:7])([H:8])[H:9].[H:14][H:16]"
C       -2.10835272      -0.64245161       0.12457693
C       -0.93417479       0.31093982       0.29754134
C        0.36800426      -0.26086374      -0.22253539
O        0.27485112      -0.44325435      -1.61538735
C        1.56064928       0.67061609      -0.02346076
O        2.73219341       0.21594781      -0.43775007
H       -3.02972301      -0.19997707       0.50576543
H       -2.25617175      -0.88376431      -0.92807641
H       -1.93903559      -1.57716192       0.66423529
H       -1.13397358       1.24910320      -0.22921800
H       -0.80111739       0.55865681       1.35643252
H        0.59258379      -1.21429910       0.27798228
H        1.16140838      -0.66869755      -1.92349272
H        1.67768927       0.71304585       1.42929688
H        1.33104771       1.73042046      -0.23240370
H        2.50412161       0.44173963       0.95649374
16
Frame=4 idx=001284 GeodesicLength=0.4268757465141802 rxn_smarts="[C:1]([C:2]([C@@:3]([O:4][H:13])([C:5]([O:6][H:16])([H:14])[H:15])[H:12])([H:10])[H:11])([H:7])([H:8])[H:9]>>[C:1]([C:2]([C@@:3]([O:4][H:13])([C:5](=[O:6])[H:15])[H:12])([H:10])[H:11])([H:7])([H:8])[H:9].[H:14][H:16]"
C       -2.10936448      -0.64351656       0.12410501
C       -0.93494443       0.30955293       0.29702614
C        0.36622226      -0.26020657      -0.22898902
O        0.26635652      -0.43919881      -1.62234189
C        1.55538983       0.67266907      -0.02366633
O        2.73144845       0.21206565      -0.41539549
H       -3.02989099      -0.20213845       0.50864766
H       -2.25967490      -0.88201245      -0.92884046
H       -1.93867701      -1.57957792       0.66100572
H       -1.13736949       1.24934179      -0.22592856
H       -0.79783652       0.55407714       1.35595685
H        0.59121033      -1.21521325       0.26815698
H        1.14875125      -0.67267796      -1.93516126
H        1.68695427       0.71988574       1.44898219
H        1.33154481       1.72734570      -0.26328259
H        2.52988011       0.44960395       0.97972504
16
Frame=5 idx=001284 GeodesicLength=0.5335678443595706 rxn_smarts="[C:1]([C:2]([C@@:3]([O:4][H:13])([C:5]([O:6][H:16])([H:14])[H:15])[H:12])([H:10])[H:11])([H:7])([H:8])[H:9]>>[C:1]([C:2]([C@@:3]([O:4][H:13])([C:5](=[O:6])[H:15])[H:12])([H:10])[H:11])([H:7])([H:8])[H:9].[H:14][H:16]"
C       -2.11042420      -0.64462106       0.12362453
C       -0.93581189       0.30821303       0.29638925
C        0.36431730      -0.25942422      -0.23564997
O        0.25769596      -0.43518940      -1.62943075
C        1.54974227       0.67517727      -0.02413857
O        2.73025698       0.20879581      -0.39229459
H       -3.03009916      -0.20439577       0.51157029
H       -2.26328897      -0.88033751      -0.92958255
H       -1.93826910      -1.58199983       0.65777602
H       -1.14095327       1.24957303      -0.22278210
H       -0.79458507       0.54958009       1.35531906
H        0.58985333      -1.21590214       0.25822751
H        1.13577418      -0.67683295      -1.94696609
H        1.69679124       0.72629080       1.46897711
H        1.33219139       1.72382633      -0.29470079
H        2.55680900       0.45724653       1.00366164
16
Frame=6 idx=001284 GeodesicLength=0.6403696285895633 rxn_smarts="[C:1]([C:2]([C@@:3]([O:4][H:13])([C:5]([O:6][H:16])([H:14])[H:15])[H:12])([H:10])[H:11])([H:7])([H:8])[H:9]>>[C:1]([C:2]([C@@:3]([O:4][H:13])([C:5](=[O:6])[H:15])[H:12])([H:10])[H:11])([H:7])([H:8])[H:9].[H:14][H:16]"
C       -2.11152947      -0.64577524       0.12314209
C       -0.93679394       0.30693739       0.29560966
C        0.36228029      -0.25848523      -0.24253371
O        0.24885770      -0.43124148      -1.63666344
C        1.54366995       0.67820870      -0.02493278
O        2.72856818       0.20627724      -0.36838370
H       -3.03034967      -0.20676801       0.51453630
H       -2.26701402      -0.87877561      -0.93028987
H       -1.93778723      -1.58442247       0.65457081
H       -1.14476276       1.24979615      -0.21982072
H       -0.79137636       0.54520921       1.35449088
H        0.58852672      -1.21631790       0.24820127
H        1.12246286      -0.68117553      -1.95890672
H        1.70727619       0.73222382       1.48927044
H        1.33297742       1.71987246      -0.32670585
H        2.58499414       0.46443652       1.02841537
16
Frame=7 idx=001284 GeodesicLength=0.7472972192157261 rxn_smarts="[C:1]([C:2]([C@@:3]([O:4][H:13])([C:5]([O:6][H:16])([H:14])[H:15])[H:12])([H:10])[H:11])([H:7])([H:8])[H:9]>>[C:1]([C:2]([C@@:3]([O:4][H:13])([C:5](=[O:6])[H:15])[H:12])([H:10])[H:11])([H:7])([H:8])[H:9].[H:14][H:16]"
C       -2.11267818      -0.64699170       0.12266371
C       -0.93790875       0.30574421       0.29466516
C        0.36010133      -0.25735794      -0.24965322
O        0.23983048      -0.42737209      -1.64404880
C        1.53713490       0.68183265      -0.02610559
O        2.72633691       0.20463863      -0.34358767
H       -3.03064683      -0.20927725       0.51754477
H       -2.27084813      -0.87736860      -0.93095033
H       -1.93720688      -1.58684212       0.65141792
H       -1.14883859       1.25001124      -0.21709190
H       -0.78822521       0.54101278       1.35344326
H        0.58724531      -1.21641200       0.23809109
H        1.10880484      -0.68572213      -1.97098165
H        1.71848999       0.73766215       1.50984656
H        1.33388785       1.71551764      -0.35932008
H        2.61452096       0.47092452       1.05406675
16
Frame=8 idx=001284 GeodesicLength=0.8543036531615936 rxn_smarts="[C:1]([C:2]([C@@:3]([O:4][H:13])([C:5]([O:6][H:16])([H:14])[H:15])[H:12])([H:10])[H:11])([H:7])([H:8])[H:9]>>[C:1]([C:2]([C@@:3]([O:4][H:13])([C:5](=[O:6])[H:15])[H:12])([H:10])[H:11])([H:7])([H:8])[H:9].[H:14][H:16]"
C       -2.11386450      -0.64828695       0.12219989
C       -0.93917646       0.30465788       0.29353079
C        0.35777298      -0.25600009      -0.25702281
O        0.23060450      -0.42359938      -1.65159599
C        1.53009575       0.68614391      -0.02771946
O        2.72351261       0.20405416      -0.31781825
H       -3.03099408      -0.21195225       0.52059870
H       -2.27478678      -0.87617022      -0.93154586
H       -1.93649107      -1.58925568       0.64835480
H       -1.15323169       1.25022093      -0.21465120
H       -0.78514636       0.53705395       1.35214271
H        0.58603430      -1.21612238       0.22791335
H        1.09479132      -0.69048150      -1.98318487
H        1.73054085       0.74258242       1.53068499
H        1.33491183       1.71078697      -0.39260623
H        2.64542680       0.47636823       1.08071944
16
Frame=9 idx=001284 GeodesicLength=0.9617670350380035 rxn_smarts="[C:1]([C:2]([C@@:3]([O:4][H:13])([C:5]([O:6][H:16])([H:14])[H:15])[H:12])([H:10])[H:11])([H:7])([H:8])[H:9]>>[C:1]([C:2]([C@@:3]([O:4][H:13])([C:5](=[O:6])[H:15])[H:12])([H:10])[H:11])([H:7])([H:8])[H:9].[H:14][H:16]"
C       -2.11507999      -0.64968743       0.12176044
C       -0.94065218       0.30371722       0.29215925
C        0.35526255      -0.25433913      -0.26465645
O        0.22120224      -0.41995460      -1.65930048
C        1.52242373       0.69128320      -0.02989098
O        2.71992886       0.20483104      -0.29075243
H       -3.03140579      -0.21484393       0.52367519
H       -2.27879243      -0.87528455      -0.93204997
H       -1.93558950      -1.59163648       0.64545200
H       -1.15804957       1.25040697      -0.21260990
H       -0.78220171       0.53344448       1.35052219
H        0.58490054      -1.21532165       0.21771206
H        1.08047086      -0.69547138      -1.99545544
H        1.74368365       0.74698970       1.55174710
H        1.33593734       1.70582122      -0.42662235
H        2.67796140       0.48004533       1.10830978
16
Frame=10 idx=001284 GeodesicLength=1.0691510079082664 rxn_smarts="[C:1]([C:2]([C@@:3]([O:4][H:13])([C:5]([O:6][H:16])([H:14])[H:15])[H:12])([H:10])[H:11])([H:7])([H:8])[H:9]>>[C:1]([C:2]([C@@:3]([O:4][H:13])([C:5](=[O:6])[H:15])[H:12])([H:10])[H:11])([H:7])([H:8])[H:9].[H:14][H:16]"
C       -2.11630933      -0.65120370       0.12135951
C       -0.94232326       0.30293593       0.29054318
C        0.35258962      -0.25235270      -0.27256557
O        0.21159551      -0.41643742      -1.66717658
C        1.51415483       0.69729405      -0.03262669
O        2.71559653       0.20709522      -0.26252386
H       -3.03186665      -0.21796861       0.52679914
H       -2.28287259      -0.87473201      -0.93244757
H       -1.93446155      -1.59399766       0.64272675
H       -1.16329288       1.25058463      -0.21098153
H       -0.77937229       0.53021373       1.34857344
H        0.58389256      -1.21399265       0.20748153
H        1.06579688      -0.70069954      -2.00782285
H        1.75787622       0.75092414       1.57306964
H        1.33705565       1.70052648      -0.46143607
H        2.71194075       0.48181010       1.13702755
16
Frame=11 idx=001284 GeodesicLength=1.1764108606210693 rxn_smarts="[C:1]([C:2]([C@@:3]([O:4][H:13])([C:5]([O:6][H:16])([H:14])[H:15])[H:12])([H:10])[H:11])([H:7])([H:8])[H:9]>>[C:1]([C:2]([C@@:3]([O:4][H:13])([C:5](=[O:6])[H:15])[H:12])([H:10])[H:11])([H:7])([H:8])[H:9].[H:14][H:16]"
C       -2.11753050      -0.65285799       0.12101338
C       -0.94420938       0.30234411       0.28865179
C        0.34974899      -0.24998680      -0.28076560
O        0.20177985      -0.41306061      -1.67523362
C        1.50524029       0.70428165      -0.03599243
O        2.71043395       0.21107487      -0.23304459
H       -3.03236696      -0.22136648       0.52997305
H       -2.28700084      -0.87458933      -0.93271209
H       -1.93304553      -1.59632902       0.64023489
H       -1.16901977       1.25075072      -0.20983689
H       -0.77667780       0.52744607       1.34625451
H        0.58304560      -1.21205327       0.19724085
H        1.05076919      -0.70618323      -2.02027848
H        1.77322741       0.75444133       1.59467261
H        1.33824332       1.69494418      -0.49712634
H        2.74736219       0.48114380       1.16694896
16
Frame=12 idx=001284 GeodesicLength=1.2834702320826614 rxn_smarts="[C:1]([C:2]([C@@:3]([O:4][H:13])([C:5]([O:6][H:16])([H:14])[H:15])[H:12])([H:10])[H:11])([H:7])([H:8])[H:9]>>[C:1]([C:2]([C@@:3]([O:4][H:13])([C:5](=[O:6])[H:15])[H:12])([H:10])[H:11])([H:7])([H:8])[H:9].[H:14][H:16]"
C       -2.11871671      -0.65467791       0.12074266
C       -0.94632916       0.30197612       0.28645237
C        0.34674316      -0.24717816      -0.28927100
O        0.19175577      -0.40983600      -1.68347773
C        1.49563632       0.71236002      -0.04005959
O        2.70435057       0.21704181      -0.20223314
H       -3.03289669      -0.22508539       0.53320243
H       -2.29114619      -0.87494508      -0.93281123
H       -1.93126751      -1.59862401       0.63804126
H       -1.17529437       1.25090510      -0.20925389
H       -0.77413675       0.52523681       1.34352051
H        0.58240801      -1.20941088       0.18701339
H        1.03539113      -0.71193690      -2.03280432
H        1.78983555       0.75765006       1.61657393
H        1.33950115       1.68909880      -0.53376031
H        2.78416573       0.47742562       1.19812468
16
Frame=13 idx=001284 GeodesicLength=1.3902899309144003 rxn_smarts="[C:1]([C:2]([C@@:3]([O:4][H:13])([C:5]([O:6][H:16])([H:14])[H:15])[H:12])([H:10])[H:11])([H:7])([H:8])[H:9]>>[C:1]([C:2]([C@@:3]([O:4][H:13])([C:5](=[O:6])[H:15])[H:12])([H:10])[H:11])([H:7])([H:8])[H:9].[H:14][H:16]"
C       -2.11983337      -0.65669493       0.12056887
C       -0.94870415       0.30187325       0.28391007
C        0.34357456      -0.24385491      -0.29808845
O        0.18153419      -0.40677995      -1.69190709
C        1.48528695       0.72166348      -0.04489217
O        2.69724298       0.22531469      -0.16998771
H       -3.03344091      -0.22917977       0.53648437
H       -2.29526268      -0.87590612      -0.93271120
H       -1.92904018      -1.60087098       0.63622361
H       -1.18218930       1.25104581      -0.20932302
H       -0.77177659       0.52370215       1.34032332
H        0.58203493      -1.20595548       0.17683837
H        1.01968474      -0.71797474      -2.04536558
H        1.80781187       0.76067455       1.63882260
H        1.34081459       1.68302849      -0.57141923
H        2.82226237       0.46991445       1.23052322
16
Frame=14 idx=001284 GeodesicLength=1.4968536552111384 rxn_smarts="[C:1]([C:2]([C@@:3]([O:4][H:13])([C:5]([O:6][H:16])([H:14])[H:15])[H:12])([H:10])[H:11])([H:7])([H:8])[H:9]>>[C:1]([C:2]([C@@:3]([O:4][H:13])([C:5](=[O:6])[H:15])[H:12])([H:10])[H:11])([H:7])([H:8])[H:9].[H:14][H:16]"
C       -2.12083501      -0.65894141       0.12052150
C       -0.95134484       0.30207579       0.28098971
C        0.34025782      -0.23994329      -0.30723251
O        0.17112530      -0.40390201      -1.70052512
C        1.47415848       0.73231837      -0.05056605
O        2.68899121       0.23623717      -0.13623882
H       -3.03397414      -0.23370612       0.53983152
H       -2.29930113      -0.87757901      -0.93236881
H       -1.92626092      -1.60306115       0.63486372
H       -1.18976762       1.25117286      -0.21013083
H       -0.76960995       0.52295536       1.33661346
H        0.58199665      -1.20157820       0.16674331
H        1.00366151      -0.72432087      -2.05793964
H        1.82722530       0.76369196       1.66150913
H        1.34221145       1.67673966      -0.61017495
H        2.86146590       0.45784088       1.26410437
16
Frame=15 idx=001284 GeodesicLength=1.603274297503848 rxn_smarts="[C:1]([C:2]([C@@:3]([O:4][H:13])([C:5]([O:6][H:16])([H:14])[H:15])[H:12])([H:10])[H:11])([H:7])([H:8])[H:9]>>[C:1]([C:2]([C@@:3]([O:4][H:13])([C:5](=[O:6])[H:15])[H:12])([H:10])[H:11])([H:7])([H:8])[H:9].[H:14][H:16]"
C       -2.12166848      -0.66145460       0.12062963
C       -0.95426487       0.30263021       0.27765381
C        0.33680858      -0.23536126      -0.31670825
O        0.16055013      -0.40121668      -1.70932606
C        1.46220562       0.74446670      -0.05714971
O        2.67945655       0.25019497      -0.10090150
H       -3.03446771      -0.23872874       0.54324550
H       -2.30319499      -0.88008989      -0.93173993
H       -1.92281420      -1.60518130       0.63405505
H       -1.19810118       1.25128396      -0.21177728
H       -0.76765963       0.52313053       1.33233823
H        0.58237061      -1.19615303       0.15677352
H        0.98734980      -0.73100162      -2.07048359
H        1.84813516       0.76690972       1.68476444
H        1.34371630       1.67024761      -0.65008792
H        2.90157831       0.44032343       1.29871406
16
Frame=16 idx=001284 GeodesicLength=1.7097626439248406 rxn_smarts="[C:1]([C:2]([C@@:3]([O:4][H:13])([C:5]([O:6][H:16])([H:14])[H:15])[H:12])([H:10])[H:11])([H:7])([H:8])[H:9]>>[C:1]([C:2]([C@@:3]([O:4][H:13])([C:5](=[O:6])[H:15])[H:12])([H:10])[H:11])([H:7])([H:8])[H:9].[H:14][H:16]"
C       -2.12227217      -0.66427351       0.12092825
C       -0.95747310       0.30358497       0.27386410
C        0.33325193      -0.23002322      -0.32652095
O        0.14983928      -0.39873681      -1.71830076
C        1.44939321       0.75825024      -0.06471540
O        2.66847410       0.26761197      -0.06390106
H       -3.03488690      -0.24431578       0.54673524
H       -2.30686907      -0.88357028      -0.93077255
H       -1.91857088      -1.60721742       0.63389865
H       -1.20725931       1.25137735      -0.21436474
H       -0.76594536       0.52436668       1.32744248
H        0.58324612      -1.18954754       0.14697457
H        0.97078657      -0.73804700      -2.08294748
H        1.87057256       0.77055456       1.70877844
H        1.34539345       1.66353879      -0.69120912
H        2.94231957       0.41644702       1.33411033
