13
Frame=0 idx=001825 GeodesicLength=0.0 rxn_smarts="[C:1]([C@@:2]1([H:10])[C:3]([H:11])([H:12])[N:4]([H:13])[C:5]1=[O:6])([H:7])([H:8])[H:9]>>[C:1]([C:2]([C:5]([N+:4](=[C-:3][H:12])[H:13])=[O:6])([H:10])[H:11])([H:7])([H:8])[H:9]"
C        1.60851663       0.07043520       0.61767624
C        0.40840475      -0.23904322      -0.25225719
C       -1.58822364      -1.07352544       0.00212252
N       -1.80577573       0.30221468      -0.36160616
C       -0.57826129       0.90775237      -0.42480578
O       -0.31898908       2.08071627      -0.45890158
H        2.18017893       0.87032663       0.14489826
H        1.30141947       0.41727431       1.60423746
H        2.25110648      -0.80199190       0.73008881
H        0.68367307      -0.69280069      -1.20349665
H       -0.23233928      -1.03144959       0.40735602
H       -1.38129532      -1.62339804      -0.92934865
H       -2.52841501       0.81348940       0.12403673
13
Frame=1 idx=001825 GeodesicLength=0.052127305816650905 rxn_smarts="[C:1]([C@@:2]1([H:10])[C:3]([H:11])([H:12])[N:4]([H:13])[C:5]1=[O:6])([H:7])([H:8])[H:9]>>[C:1]([C:2]([C:5]([N+:4](=[C-:3][H:12])[H:13])=[O:6])([H:10])[H:11])([H:7])([H:8])[H:9]"
C        1.61055967       0.07144097       0.61475648
C        0.40478413      -0.24179659      -0.24652189
C       -1.58907074      -1.07102298      -0.00870071
N       -1.80601629       0.30310015      -0.36225122
C       -0.57647390       0.90942673      -0.42115081
O       -0.32192493       2.08318367      -0.45049103
H        2.18353843       0.86705611       0.13652056
H        1.30866468       0.42286492       1.60135769
H        2.25217801      -0.80169430       0.72830011
H        0.68103187      -0.69022161      -1.20046838
H       -0.23491987      -1.04209322       0.42981221
H       -1.37823388      -1.62490875      -0.93613103
H       -2.53411716       0.81466492       0.11496802
13
Frame=2 idx=001825 GeodesicLength=0.10424449188365552 rxn_smarts="[C:1]([C@@:2]1([H:10])[C:3]([H:11])([H:12])[N:4]([H:13])[C:5]1=[O:6])([H:7])([H:8])[H:9]>>[C:1]([C:2]([C:5]([N+:4](=[C-:3][H:12])[H:13])=[O:6])([H:10])[H:11])([H:7])([H:8])[H:9]"
C        1.61246549       0.07237897       0.61181954
C        0.40125630      -0.24442622      -0.24106374
C       -1.58948478      -1.06841358      -0.01914452
N       -1.80617194       0.30395541      -0.36280843
C       -0.57465874       0.91116234      -0.41782324
O       -0.32491189       2.08570305      -0.44207910
H        2.18677378       0.86382318       0.12841568
H        1.31555073       0.42816404       1.59842968
H        2.25309987      -0.80147862       0.72646264
H        0.67850620      -0.68749115      -1.19769310
H       -0.23758160      -1.05270954       0.45208891
H       -1.37519979      -1.62651482      -0.94248113
H       -2.53964363       0.81584692       0.10587680
13
Frame=3 idx=001825 GeodesicLength=0.15635271802272932 rxn_smarts="[C:1]([C@@:2]1([H:10])[C:3]([H:11])([H:12])[N:4]([H:13])[C:5]1=[O:6])([H:7])([H:8])[H:9]>>[C:1]([C:2]([C:5]([N+:4](=[C-:3][H:12])[H:13])=[O:6])([H:10])[H:11])([H:7])([H:8])[H:9]"
C        1.61425157       0.07324844       0.60885262
C        0.39781994      -0.24692709      -0.23587312
C       -1.58949573      -1.06569179      -0.02920581
N       -1.80624146       0.30477602      -0.36330483
C       -0.57281145       0.91295742      -0.41478258
O       -0.32795477       2.08826847      -0.43358533
H        2.18990697       0.86061810       0.12055165
H        1.32211888       0.43317981       1.59544248
H        2.25387622      -0.80134508       0.72455735
H        0.67608256      -0.68459806      -1.19515897
H       -0.24032889      -1.06329123       0.47422191
H       -1.37218537      -1.62821892      -0.94837680
H       -2.54503846       0.81702391       0.09666143
13
Frame=4 idx=001825 GeodesicLength=0.20845341890494223 rxn_smarts="[C:1]([C@@:2]1([H:10])[C:3]([H:11])([H:12])[N:4]([H:13])[C:5]1=[O:6])([H:7])([H:8])[H:9]>>[C:1]([C:2]([C:5]([N+:4](=[C-:3][H:12])[H:13])=[O:6])([H:10])[H:11])([H:7])([H:8])[H:9]"
C        1.61591431       0.07405804       0.60586508
C        0.39447867      -0.24930029      -0.23096012
C       -1.58912375      -1.06287586      -0.03890444
N       -1.80622647       0.30556622      -0.36371382
C       -0.57093020       0.91481380      -0.41204401
O       -0.33104332       2.09087150      -0.42507685
H        2.19293615       0.85746463       0.11295113
H        1.32835147       0.43790863       1.59241532
H        2.25451610      -0.80128199       0.72258500
H        0.67376359      -0.68156436      -1.19286846
H       -0.24315868      -1.07385222       0.49621851
H       -1.36920610      -1.63000421      -0.95385742
H       -2.55027178       0.81819611       0.08739009
13
Frame=5 idx=001825 GeodesicLength=0.26055348318280924 rxn_smarts="[C:1]([C@@:2]1([H:10])[C:3]([H:11])([H:12])[N:4]([H:13])[C:5]1=[O:6])([H:7])([H:8])[H:9]>>[C:1]([C:2]([C:5]([N+:4](=[C-:3][H:12])[H:13])=[O:6])([H:10])[H:11])([H:7])([H:8])[H:9]"
C        1.61747644       0.07480488       0.60285077
C        0.39123190      -0.25154361      -0.22631896
C       -1.58839241      -1.05996931      -0.04823992
N       -1.80613509       0.30632686      -0.36406032
C       -0.56901998       0.91674099      -0.40957659
O       -0.33419640       2.09352087      -0.41647612
H        2.19588865       0.85434438       0.10558045
H        1.33429545       0.44237719       1.58934599
H        2.25503328      -0.80130308       0.72054321
H        0.67153610      -0.67838649      -1.19082226
H       -0.24607296      -1.08439017       0.51811318
H       -1.36625384      -1.63188855      -0.95891719
H       -2.55539114       0.81936602       0.07797776
13
Frame=6 idx=001825 GeodesicLength=0.31265464550705874 rxn_smarts="[C:1]([C@@:2]1([H:10])[C:3]([H:11])([H:12])[N:4]([H:13])[C:5]1=[O:6])([H:7])([H:8])[H:9]>>[C:1]([C:2]([C:5]([N+:4](=[C-:3][H:12])[H:13])=[O:6])([H:10])[H:11])([H:7])([H:8])[H:9]"
C        1.61895556       0.07548741       0.59979686
C        0.38807628      -0.25365096      -0.22194215
C       -1.58732386      -1.05697655      -0.05720786
N       -1.80596717       0.30705209      -0.36437121
C       -0.56708234       0.91874846      -0.40734220
O       -0.33742184       2.09622220      -0.40768088
H        2.19879041       0.85123912       0.09839862
H        1.33999592       0.44660790       1.58622488
H        2.25542839      -0.80141974       0.71842001
H        0.66938388      -0.67505272      -1.18901905
H       -0.24907799      -1.09489481       0.53994432
H       -1.36331950      -1.63388792      -0.96353179
H       -2.56043773       0.82052551       0.06831044
13
Frame=7 idx=001825 GeodesicLength=0.36478534498329274 rxn_smarts="[C:1]([C@@:2]1([H:10])[C:3]([H:11])([H:12])[N:4]([H:13])[C:5]1=[O:6])([H:7])([H:8])[H:9]>>[C:1]([C:2]([C:5]([N+:4](=[C-:3][H:12])[H:13])=[O:6])([H:10])[H:11])([H:7])([H:8])[H:9]"
C        1.62036773       0.07610385       0.59669264
C        0.38500834      -0.25562654      -0.21781590
C       -1.58593912      -1.05389100      -0.06582447
N       -1.80571995       0.30774563      -0.36466525
C       -0.56512513       0.92083078      -0.40528689
O       -0.34072992       2.09896890      -0.39862631
H        2.20165197       0.84814219       0.09136904
H        1.34549980       0.45060992       1.58304819
H        2.25571019      -0.80163855       0.71619234
H        0.66728911      -0.67155705      -1.18745231
H       -0.25217808      -1.10536040       0.56177095
H       -1.36038425      -1.63599572      -0.96768849
H       -2.56545070       0.82166799       0.05828645
13
Frame=8 idx=001825 GeodesicLength=0.41691079558433775 rxn_smarts="[C:1]([C@@:2]1([H:10])[C:3]([H:11])([H:12])[N:4]([H:13])[C:5]1=[O:6])([H:7])([H:8])[H:9]>>[C:1]([C:2]([C:5]([N+:4](=[C-:3][H:12])[H:13])=[O:6])([H:10])[H:11])([H:7])([H:8])[H:9]"
C        1.62171059       0.07666108       0.59354472
C        0.38203601      -0.25745534      -0.21396111
C       -1.58425057      -1.05072850      -0.07407070
N       -1.80539962       0.30840563      -0.36492107
C       -0.56313809       0.92300460      -0.40344330
O       -0.34411435       2.10174960      -0.38936505
H        2.20447707       0.84507139       0.08453305
H        1.35077712       0.45436241       1.57982583
H        2.25588365      -0.80194850       0.71386221
H        0.66526168      -0.66789837      -1.18612956
H       -0.25536999      -1.11579853       0.58356390
H       -1.35747607      -1.63822380      -0.97139660
H       -2.57039742       0.82279833       0.04795766
13
Frame=9 idx=001825 GeodesicLength=0.4690436971265225 rxn_smarts="[C:1]([C@@:2]1([H:10])[C:3]([H:11])([H:12])[N:4]([H:13])[C:5]1=[O:6])([H:7])([H:8])[H:9]>>[C:1]([C:2]([C:5]([N+:4](=[C-:3][H:12])[H:13])=[O:6])([H:10])[H:11])([H:7])([H:8])[H:9]"
C        1.62300530       0.07715245       0.59034004
C        0.37915449      -0.25914135      -0.21037246
C       -1.58227339      -1.04748697      -0.08194580
N       -1.80500640       0.30903174      -0.36516777
C       -0.56113072       0.92527116      -0.40176801
O       -0.34759318       2.10457773      -0.37977970
H        2.20728901       0.84201479       0.07784230
H        1.35588310       0.45788470       1.57655625
H        2.25595595      -0.80236851       0.71141326
H        0.66328069      -0.66407086      -1.18506143
H       -0.25866324      -1.12619353       0.60537985
H       -1.35457387      -1.64058330      -0.97462345
H       -2.57532775       0.82391194       0.03718692
13
Frame=10 idx=001825 GeodesicLength=0.5212311087584075 rxn_smarts="[C:1]([C@@:2]1([H:10])[C:3]([H:11])([H:12])[N:4]([H:13])[C:5]1=[O:6])([H:7])([H:8])[H:9]>>[C:1]([C:2]([C:5]([N+:4](=[C-:3][H:12])[H:13])=[O:6])([H:10])[H:11])([H:7])([H:8])[H:9]"
C        1.62426467       0.07757628       0.58706377
C        0.37636302      -0.26068426      -0.20701799
C       -1.58003293      -1.04416812      -0.08948289
N       -1.80453859       0.30962689      -0.36541703
C       -0.55910546       0.92763497      -0.40018357
O       -0.35117148       2.10743363      -0.36981684
H        2.21008603       0.83894784       0.07125330
H        1.36086930       0.46120029       1.57321404
H        2.25593221      -0.80290404       0.70882214
H        0.66133221      -0.66005816      -1.18422272
H       -0.26206283      -1.13653721       0.62729255
H       -1.35166141      -1.64305966      -0.97737893
H       -2.58027474       0.82499155       0.02587417
13
Frame=11 idx=001825 GeodesicLength=0.5734278896300196 rxn_smarts="[C:1]([C@@:2]1([H:10])[C:3]([H:11])([H:12])[N:4]([H:13])[C:5]1=[O:6])([H:7])([H:8])[H:9]>>[C:1]([C:2]([C:5]([N+:4](=[C-:3][H:12])[H:13])=[O:6])([H:10])[H:11])([H:7])([H:8])[H:9]"
C        1.62548952       0.07793642       0.58372453
C        0.37366436      -0.26207631      -0.20393208
C       -1.57752976      -1.04077680      -0.09665096
N       -1.80400050       0.31019211      -0.36564845
C       -0.55706332       0.93010049      -0.39873393
O       -0.35485087       2.11031672      -0.35950688
H        2.21287990       0.83590166       0.06480126
H        1.36571066       0.46427765       1.56982803
H        2.25582118      -0.80354815       0.70609217
H        0.65941906      -0.65586587      -1.18364114
H       -0.26556953      -1.14684129       0.64927156
H       -1.34875865      -1.64566371      -0.97964999
H       -2.58521203       0.82604708       0.01404588
13
Frame=12 idx=001825 GeodesicLength=0.6256306700219241 rxn_smarts="[C:1]([C@@:2]1([H:10])[C:3]([H:11])([H:12])[N:4]([H:13])[C:5]1=[O:6])([H:7])([H:8])[H:9]>>[C:1]([C:2]([C:5]([N+:4](=[C-:3][H:12])[H:13])=[O:6])([H:10])[H:11])([H:7])([H:8])[H:9]"
C        1.62667400       0.07823813       0.58032827
C        0.37106448      -0.26331823      -0.20112384
C       -1.57477563      -1.03732066      -0.10346608
N       -1.80339441       0.31073345      -0.36583168
C       -0.55500140       0.93266488      -0.39742144
O       -0.35862267       2.11321322      -0.34892434
H        2.21566252       0.83289550       0.05850990
H        1.37038697       0.46710426       1.56640853
H        2.25562257      -0.80429163       0.70322288
H        0.65754886      -0.65149827      -1.18332221
H       -0.26918138      -1.15711904       0.67132257
H       -1.34587333      -1.64837599      -0.98146099
H       -2.59011057       0.82707437       0.00175841
13
Frame=13 idx=001825 GeodesicLength=0.6778387061364284 rxn_smarts="[C:1]([C@@:2]1([H:10])[C:3]([H:11])([H:12])[N:4]([H:13])[C:5]1=[O:6])([H:7])([H:8])[H:9]>>[C:1]([C:2]([C:5]([N+:4](=[C-:3][H:12])[H:13])=[O:6])([H:10])[H:11])([H:7])([H:8])[H:9]"
C        1.62781325       0.07848613       0.57688196
C        0.36856739      -0.26440980      -0.19860385
C       -1.57178028      -1.03380453      -0.10994347
N       -1.80272334       0.31125653      -0.36593611
C       -0.55291970       0.93532552      -0.39625116
O       -0.36247889       2.11611146      -0.33814589
H        2.21842935       0.82994769       0.05240246
H        1.37487931       0.46966719       1.56296808
H        2.25533710      -0.80512620       0.70021698
H        0.65572807      -0.64695824      -1.18327329
H       -0.27289766      -1.16738703       0.69344951
H       -1.34301070      -1.65117835      -0.98283527
H       -2.59494390       0.82806965      -0.01092995
13
Frame=14 idx=001825 GeodesicLength=0.7300500422880829 rxn_smarts="[C:1]([C@@:2]1([H:10])[C:3]([H:11])([H:12])[N:4]([H:13])[C:5]1=[O:6])([H:7])([H:8])[H:9]>>[C:1]([C:2]([C:5]([N+:4](=[C-:3][H:12])[H:13])=[O:6])([H:10])[H:11])([H:7])([H:8])[H:9]"
C        1.62890117       0.07868582       0.57339464
C        0.36617688      -0.26535089      -0.19638400
C       -1.56855210      -1.03023433      -0.11610064
N       -1.80199115       0.31176695      -0.36592764
C       -0.55081852       0.93807957      -0.39523244
O       -0.36640907       2.11900147      -0.32726218
H        2.22117700       0.82707672       0.04650506
H        1.37916480       0.47195516       1.55952111
H        2.25496420      -0.80604291       0.69708145
H        0.65396483      -0.64224952      -1.18350234
H       -0.27671839      -1.17766570       0.71565261
H       -1.34017679      -1.65405085      -0.98380213
H       -2.59968285       0.82902851      -0.02394350
13
Frame=15 idx=001825 GeodesicLength=0.782259480589221 rxn_smarts="[C:1]([C@@:2]1([H:10])[C:3]([H:11])([H:12])[N:4]([H:13])[C:5]1=[O:6])([H:7])([H:8])[H:9]>>[C:1]([C:2]([C:5]([N+:4](=[C-:3][H:12])[H:13])=[O:6])([H:10])[H:11])([H:7])([H:8])[H:9]"
C        1.62993014       0.07884327       0.56987677
C        0.36389692      -0.26614162      -0.19447717
C       -1.56509782      -1.02661583      -0.12195646
N       -1.80120155       0.31226970      -0.36576957
C       -0.54869774       0.94092292      -0.39437890
O       -0.37040056       2.12187502      -0.31637319
H        2.22390308       0.82430009       0.04084515
H        1.38321633       0.47395996       1.55608207
H        2.25450115      -0.80703163       0.69382810
H        0.65226898      -0.63737666      -1.18401752
H       -0.28064551      -1.18797931       0.73792713
H       -1.33737757      -1.65697172      -0.98439518
H       -2.60429585       0.82994581      -0.03719122
13
Frame=16 idx=001825 GeodesicLength=0.8344729892518927 rxn_smarts="[C:1]([C@@:2]1([H:10])[C:3]([H:11])([H:12])[N:4]([H:13])[C:5]1=[O:6])([H:7])([H:8])[H:9]>>[C:1]([C:2]([C:5]([N+:4](=[C-:3][H:12])[H:13])=[O:6])([H:10])[H:11])([H:7])([H:8])[H:9]"
C        1.63091483       0.07895343       0.56631514
C        0.36172556      -0.26677593      -0.19287789
C       -1.56142563      -1.02294728      -0.12749605
N       -1.80035364       0.31276234      -0.36547387
C       -0.54656202       0.94386510      -0.39364972
O       -0.37446349       2.12473272      -0.30539425
H        2.22661949       0.82160959       0.03539669
H        1.38707179       0.47567426       1.55264627
H        2.25395812      -0.80810250       0.69042341
H        0.65062318      -0.63231758      -1.18482255
H       -0.28468829      -1.19831486       0.76032200
H       -1.33460431      -1.65995204      -0.98457915
H       -2.60881560       0.83081275      -0.05081005
