14
Frame=0 idx=008376 GeodesicLength=0.0 rxn_smarts="[O:1]([C@@:2]1([H:9])[C:3]([H:10])([H:11])[N:4]([H:12])[C@:5]1([C:6](=[O:7])[H:14])[H:13])[H:8]>>[O:1]([C@@:2]1([H:9])[C:3]([H:10])([H:11])[N+:4]([H:12])([H:13])[C:5]1=[C:6]([O-:7])[H:14])[H:8]"
O       -0.83514678      -1.21183534       1.21542655
C       -0.71749997      -0.70777732      -0.09917241
C       -1.17058080       0.76178050      -0.25242311
N        0.18103511       1.24571530      -0.61937329
C        0.68465212      -0.25732628      -0.43107896
C        1.89238891      -0.38296312       0.30718132
O        2.63457360       0.55969391       0.54318315
H       -1.60811087      -1.77599108       1.26914612
H       -1.17124801      -1.40809968      -0.80638088
H       -1.47371509       1.16740508       0.71175878
H       -1.92214322       0.98534593      -1.00939449
H        0.70147474       1.87938654      -0.01957229
H        0.66444676       0.55134475      -1.45188886
H        2.13987349      -1.40667917       0.64258831
14
Frame=1 idx=008376 GeodesicLength=0.04661140800921632 rxn_smarts="[O:1]([C@@:2]1([H:9])[C:3]([H:10])([H:11])[N:4]([H:12])[C@:5]1([C:6](=[O:7])[H:14])[H:13])[H:8]>>[O:1]([C@@:2]1([H:9])[C:3]([H:10])([H:11])[N+:4]([H:12])([H:13])[C:5]1=[C:6]([O-:7])[H:14])[H:8]"
O       -0.83335580      -1.21686769       1.21505548
C       -0.71716501      -0.70770297      -0.09754730
C       -1.17040467       0.76184433      -0.24820374
N        0.18143042       1.24002950      -0.62322803
C        0.68349540      -0.25372951      -0.43116524
C        1.88984258      -0.38128536       0.31142135
O        2.62793121       0.56164408       0.55809182
H       -1.61120771      -1.77418762       1.26986520
H       -1.17092569      -1.40515150      -0.80762666
H       -1.46923047       1.16939666       0.71665358
H       -1.92445051       0.98545333      -1.00269905
H        0.69905219       1.88028134      -0.02803854
H        0.67283193       0.54790021      -1.46775921
H        2.14215613      -1.40762480       0.63518033
14
Frame=2 idx=008376 GeodesicLength=0.09322632977271719 rxn_smarts="[O:1]([C@@:2]1([H:9])[C:3]([H:10])([H:11])[N:4]([H:12])[C@:5]1([C:6](=[O:7])[H:14])[H:13])[H:8]>>[O:1]([C@@:2]1([H:9])[C:3]([H:10])([H:11])[N+:4]([H:12])([H:13])[C:5]1=[C:6]([O-:7])[H:14])[H:8]"
O       -0.83153153      -1.22199329       1.21457831
C       -0.71685035      -0.70763965      -0.09597719
C       -1.17018691       0.76192803      -0.24390374
N        0.18177789       1.23433743      -0.62713725
C        0.68231956      -0.25020761      -0.43137376
C        1.88726250      -0.37961420       0.31556372
O        2.62102813       0.56358835       0.57304200
H       -1.61421761      -1.77241351       1.27057528
H       -1.17071027      -1.40213674      -0.80892636
H       -1.46458389       1.17137284       0.72165701
H       -1.92676260       0.98564344      -0.99584314
H        0.69664421       1.88110291      -0.03665768
H        0.68143136       0.54435468      -1.48359915
H        2.14437950      -1.40832268       0.62800196
14
Frame=3 idx=008376 GeodesicLength=0.1398443363937743 rxn_smarts="[O:1]([C@@:2]1([H:9])[C:3]([H:10])([H:11])[N:4]([H:12])[C@:5]1([C:6](=[O:7])[H:14])[H:13])[H:8]>>[O:1]([C@@:2]1([H:9])[C:3]([H:10])([H:11])[N+:4]([H:12])([H:13])[C:5]1=[C:6]([O-:7])[H:14])[H:8]"
O       -0.82967700      -1.22721276       1.21399295
C       -0.71655683      -0.70758739      -0.09446241
C       -1.16992868       0.76203091      -0.23952318
N        0.18207495       1.22864092      -0.63109518
C        0.68112389      -0.24675881      -0.43170121
C        1.88464811      -0.37794604       0.31961115
O        2.61388025       0.56552847       0.58800412
H       -1.61714144      -1.77067056       1.27127549
H       -1.17060081      -1.39905504      -0.81028101
H       -1.45978007       1.17333090       0.72676762
H       -1.92907832       0.98591597      -0.98882835
H        0.69424768       1.88185050      -0.04541913
H        0.69025062       0.54071189      -1.49941049
H        2.14653763      -1.40877895       0.62106964
14
Frame=4 idx=008376 GeodesicLength=0.18646953420836299 rxn_smarts="[O:1]([C@@:2]1([H:9])[C:3]([H:10])([H:11])[N:4]([H:12])[C@:5]1([C:6](=[O:7])[H:14])[H:13])[H:8]>>[O:1]([C@@:2]1([H:9])[C:3]([H:10])([H:11])[N+:4]([H:12])([H:13])[C:5]1=[C:6]([O-:7])[H:14])[H:8]"
O       -0.82779254      -1.23252447       1.21329914
C       -0.71628490      -0.70754593      -0.09300212
C       -1.16962883       0.76215248      -0.23506272
N        0.18231916       1.22293957      -0.63509955
C        0.67990788      -0.24338239      -0.43214644
C        1.88200025      -0.37627352       0.32356388
O        2.60647299       0.56746235       0.60297989
H       -1.61998075      -1.76895383       1.27197054
H       -1.17059782      -1.39590645      -0.81168778
H       -1.45481800       1.17526987       0.73198246
H       -1.93139393       0.98627049      -0.98165408
H        0.69186088       1.88252007      -0.05431875
H        0.69929599       0.53697198      -1.51519825
H        2.14863963      -1.40900022       0.61437380
14
Frame=5 idx=008376 GeodesicLength=0.2331013684158232 rxn_smarts="[O:1]([C@@:2]1([H:9])[C:3]([H:10])([H:11])[N:4]([H:12])[C@:5]1([C:6](=[O:7])[H:14])[H:13])[H:8]>>[O:1]([C@@:2]1([H:9])[C:3]([H:10])([H:11])[N+:4]([H:12])([H:13])[C:5]1=[C:6]([O-:7])[H:14])[H:8]"
O       -0.82588162      -1.23792849       1.21249518
C       -0.71603549      -0.70751521      -0.09159638
C       -1.16928906       0.76229204      -0.23052258
N        0.18250792       1.21723568      -0.63914513
C        0.67867077      -0.24007603      -0.43270547
C        1.87931755      -0.37459287       0.32742675
O        2.59882313       0.56939124       0.61794089
H       -1.62273622      -1.76726512       1.27265983
H       -1.17069977      -1.39269088      -0.81314733
H       -1.44970304       1.17718736       0.73729994
H       -1.93370881       0.98670615      -0.97432241
H        0.68948024       1.88311248      -0.06334665
H        0.70857456       0.53313718      -1.53096273
H        2.15067982      -1.40899351       0.60792609
14
Frame=6 idx=008376 GeodesicLength=0.2797413452093383 rxn_smarts="[O:1]([C@@:2]1([H:9])[C:3]([H:10])([H:11])[N:4]([H:12])[C@:5]1([C:6](=[O:7])[H:14])[H:13])[H:8]>>[O:1]([C@@:2]1([H:9])[C:3]([H:10])([H:11])[N+:4]([H:12])([H:13])[C:5]1=[C:6]([O-:7])[H:14])[H:8]"
O       -0.82394487      -1.24342407       1.21157994
C       -0.71580931      -0.70749492      -0.09024488
C       -1.16890799       0.76244935      -0.22590252
N        0.18263868       1.21152896      -0.64323030
C        0.67741193      -0.23683915      -0.43337766
C        1.87659990      -0.37289805       0.33119991
O        2.59091908       0.57131458       0.63288496
H       -1.62540815      -1.76560170       1.27334646
H       -1.17090789      -1.38940762      -0.81465783
H       -1.44443276       1.17908203       0.74271806
H       -1.93601975       0.98722332      -0.96683155
H        0.68710392       1.88362424      -0.07249940
H        0.71809303       0.52920674      -1.54670764
H        2.15266418      -1.40876370       0.60172247
14
Frame=7 idx=008376 GeodesicLength=0.32639147296632937 rxn_smarts="[O:1]([C@@:2]1([H:9])[C:3]([H:10])([H:11])[N:4]([H:12])[C@:5]1([C:6](=[O:7])[H:14])[H:13])[H:8]>>[O:1]([C@@:2]1([H:9])[C:3]([H:10])([H:11])[N+:4]([H:12])([H:13])[C:5]1=[C:6]([O-:7])[H:14])[H:8]"
O       -0.82198579      -1.24901045       1.21055248
C       -0.71560711      -0.70748487      -0.08894718
C       -1.16848735       0.76262354      -0.22120355
N        0.18270925       1.20582178      -0.64734995
C        0.67613060      -0.23366904      -0.43415844
C        1.87384626      -0.37118584       0.33488907
O        2.58277724       0.57323317       0.64778855
H       -1.62799742      -1.76396471       1.27403070
H       -1.17122042      -1.38605685      -0.81621918
H       -1.43901351       1.18095201       0.74823486
H       -1.93832705       0.98782043      -0.95918447
H        0.68472843       1.88405745      -0.08176770
H        0.72785795       0.52518216      -1.56243388
H        2.15458892      -1.40831877       0.59576871
14
Frame=8 idx=008376 GeodesicLength=0.37305179661334864 rxn_smarts="[O:1]([C@@:2]1([H:9])[C:3]([H:10])([H:11])[N:4]([H:12])[C@:5]1([C:6](=[O:7])[H:14])[H:13])[H:8]>>[O:1]([C@@:2]1([H:9])[C:3]([H:10])([H:11])[N+:4]([H:12])([H:13])[C:5]1=[C:6]([O-:7])[H:14])[H:8]"
O       -0.82000707      -1.25468691       1.20941174
C       -0.71542998      -0.70748491      -0.08770282
C       -1.16802729       0.76281408      -0.21642584
N        0.18271708       1.20011470      -0.65150147
C        0.67482581      -0.23056432      -0.43504532
C        1.87105528      -0.36945268       0.33849732
O        2.57440193       0.57514991       0.66263974
H       -1.63050458      -1.76235405       1.27471378
H       -1.17163768      -1.38263807      -0.81783018
H       -1.43344670       1.18279582       0.75384843
H       -1.94062927       0.98849706      -0.95138109
H        0.68235069       1.88441153      -0.09114626
H        0.73787708       0.52106347      -1.57814267
H        2.15645469      -1.40766565       0.59006465
14
Frame=9 idx=008376 GeodesicLength=0.41972572560506116 rxn_smarts="[O:1]([C@@:2]1([H:9])[C:3]([H:10])([H:11])[N:4]([H:12])[C@:5]1([C:6](=[O:7])[H:14])[H:13])[H:8]>>[O:1]([C@@:2]1([H:9])[C:3]([H:10])([H:11])[N+:4]([H:12])([H:13])[C:5]1=[C:6]([O-:7])[H:14])[H:8]"
O       -0.81800813      -1.26045273       1.20815630
C       -0.71527844      -0.70749451      -0.08651177
C       -1.16752643       0.76302078      -0.21156894
N        0.18265934       1.19440760      -0.65568427
C        0.67349702      -0.22752371      -0.43603814
C        1.86822691      -0.36769158       0.34202456
O        2.56578003       0.57706271       0.67743736
H       -1.63292816      -1.76076783       1.27539896
H       -1.17216078      -1.37915037      -0.81948927
H       -1.42772861       1.18461199       0.75955702
H       -1.94292282       0.98925350      -0.94341804
H        0.67996820       1.88468384      -0.10063265
H        0.74815839       0.51684897      -1.59383774
H        2.15826349      -1.40680868       0.58460661
14
Frame=10 idx=008376 GeodesicLength=0.4664107433518849 rxn_smarts="[O:1]([C@@:2]1([H:9])[C:3]([H:10])([H:11])[N:4]([H:12])[C@:5]1([C:6](=[O:7])[H:14])[H:13])[H:8]>>[O:1]([C@@:2]1([H:9])[C:3]([H:10])([H:11])[N+:4]([H:12])([H:13])[C:5]1=[C:6]([O-:7])[H:14])[H:8]"
O       -0.81599265      -1.26630736       1.20678408
C       -0.71515424      -0.70751331      -0.08537385
C       -1.16698622       0.76324302      -0.20663329
N        0.18253242       1.18870315      -0.65989463
C        0.67214294      -0.22454472      -0.43713371
C        1.86535942      -0.36590146       0.34547581
O        2.55693251       0.57897457       0.69216287
H       -1.63526820      -1.75920886       1.27608507
H       -1.17278959      -1.37559312      -0.82119589
H       -1.42186315       1.18639868       0.76535890
H       -1.94520851       0.99008881      -0.93529655
H        0.67757564       1.88487798      -0.11022112
H        0.75870840       0.51253762      -1.60951830
H        2.16001125      -1.40575500       0.57940061
14
Frame=11 idx=008376 GeodesicLength=0.5132160886266182 rxn_smarts="[O:1]([C@@:2]1([H:9])[C:3]([H:10])([H:11])[N:4]([H:12])[C@:5]1([C:6](=[O:7])[H:14])[H:13])[H:8]>>[O:1]([C@@:2]1([H:9])[C:3]([H:10])([H:11])[N+:4]([H:12])([H:13])[C:5]1=[C:6]([O-:7])[H:14])[H:8]"
O       -0.81396263      -1.27217659       1.20532698
C       -0.71505783      -0.70753921      -0.08427381
C       -1.16643032       0.76346550      -0.20169178
N        0.18236347       1.18299452      -0.66410544
C        0.67076667      -0.22159946      -0.43828183
C        1.86247779      -0.36406972       0.34884159
O        2.54781393       0.58082421       0.70694879
H       -1.63748684      -1.75763818       1.27682953
H       -1.17349100      -1.37199821      -0.82291735
H       -1.41591075       1.18818701       0.77119082
H       -1.94746987       0.99098276      -0.92705969
H        0.67517096       1.88498627      -0.11984004
H        0.76944582       0.50816081      -1.62524464
H        2.16177058      -1.40457970       0.57427687
14
Frame=12 idx=008376 GeodesicLength=0.5599032108464489 rxn_smarts="[O:1]([C@@:2]1([H:9])[C:3]([H:10])([H:11])[N:4]([H:12])[C@:5]1([C:6](=[O:7])[H:14])[H:13])[H:8]>>[O:1]([C@@:2]1([H:9])[C:3]([H:10])([H:11])[N+:4]([H:12])([H:13])[C:5]1=[C:6]([O-:7])[H:14])[H:8]"
O       -0.81191178      -1.27824190       1.20373040
C       -0.71498717      -0.70757924      -0.08323978
C       -1.16579550       0.76372618      -0.19655474
N        0.18209811       1.17727144      -0.66840944
C        0.66936169      -0.21874971      -0.43959007
C        1.85952387      -0.36220662       0.35215944
O        2.53842510       0.58278247       0.72160319
H       -1.63971017      -1.75612638       1.27750899
H       -1.17434367      -1.36829100      -0.82472409
H       -1.40969434       1.18990660       0.77721536
H       -1.94975561       0.99198286      -0.91859513
H        0.67277351       1.88504125      -0.12970732
H        0.78057703       0.50362463      -1.64090392
H        2.16343894      -1.40314059       0.56950710
14
Frame=13 idx=008376 GeodesicLength=0.6066040537155679 rxn_smarts="[O:1]([C@@:2]1([H:9])[C:3]([H:10])([H:11])[N:4]([H:12])[C@:5]1([C:6](=[O:7])[H:14])[H:13])[H:8]>>[O:1]([C@@:2]1([H:9])[C:3]([H:10])([H:11])[N+:4]([H:12])([H:13])[C:5]1=[C:6]([O-:7])[H:14])[H:8]"
O       -0.80984858      -1.28440461       1.20199318
C       -0.71494774      -0.70762683      -0.08225997
C       -1.16510514       0.76400460      -0.19132991
N        0.18175114       1.17153948      -0.67278115
C        0.66792937      -0.21596474      -0.44100049
C        1.85652207      -0.36029587       0.35541285
O        2.52873200       0.58476245       0.73626016
H       -1.64184581      -1.75466017       1.27817401
H       -1.17532034      -1.36450312      -0.82658750
H       -1.40326187       1.19160296       0.78336375
H       -1.95204352       0.99308272      -0.90989718
H        0.67036227       1.88501123      -0.13975483
H        0.79200738       0.49895550      -1.65657035
H        2.16506877      -1.40150361       0.56497743
14
Frame=14 idx=008376 GeodesicLength=0.6533086852182779 rxn_smarts="[O:1]([C@@:2]1([H:9])[C:3]([H:10])([H:11])[N:4]([H:12])[C@:5]1([C:6](=[O:7])[H:14])[H:13])[H:8]>>[O:1]([C@@:2]1([H:9])[C:3]([H:10])([H:11])[N+:4]([H:12])([H:13])[C:5]1=[C:6]([O-:7])[H:14])[H:8]"
O       -0.80777785      -1.29069626       1.20005601
C       -0.71495207      -0.70769206      -0.08137153
C       -1.16435834       0.76429996      -0.18599998
N        0.18129274       1.16582391      -0.67721489
C        0.66645901      -0.21327030      -0.44254457
C        1.85344795      -0.35833229       0.35858042
O        2.51868571       0.58676109       0.75091657
H       -1.64382592      -1.75321471       1.27886688
H       -1.17645911      -1.36060394      -0.82852266
H       -1.39659072       1.19326294       0.78965517
H       -1.95434762       0.99429995      -0.90093602
H        0.66793682       1.88490296      -0.14999576
H        0.80384338       0.49407862      -1.67220522
H        2.16664602      -1.39961989       0.56071556
14
Frame=15 idx=008376 GeodesicLength=0.7001288904690115 rxn_smarts="[O:1]([C@@:2]1([H:9])[C:3]([H:10])([H:11])[N:4]([H:12])[C@:5]1([C:6](=[O:7])[H:14])[H:13])[H:8]>>[O:1]([C@@:2]1([H:9])[C:3]([H:10])([H:11])[N+:4]([H:12])([H:13])[C:5]1=[C:6]([O-:7])[H:14])[H:8]"
O       -0.80569995      -1.29702539       1.19813259
C       -0.71497806      -0.70775653      -0.08044866
C       -1.16358015       0.76458713      -0.18066492
N        0.18082704       1.16006001      -0.68163154
C        0.66498347      -0.21056101      -0.44410672
C        1.85036772      -0.35633442       0.36173991
O        2.50850406       0.58871115       0.76556575
H       -1.64586143      -1.75174135       1.27963435
H       -1.17760910      -1.35672492      -0.83042725
H       -1.38988941       1.19493209       0.79591439
H       -1.95662039       0.99549892      -0.89199334
H        0.66550419       1.88474115      -0.16020029
H        0.81577842       0.48933120      -1.68792796
H        2.16827361      -1.39771803       0.55641367
14
Frame=16 idx=008376 GeodesicLength=0.7468648914356729 rxn_smarts="[O:1]([C@@:2]1([H:9])[C:3]([H:10])([H:11])[N:4]([H:12])[C@:5]1([C:6](=[O:7])[H:14])[H:13])[H:8]>>[O:1]([C@@:2]1([H:9])[C:3]([H:10])([H:11])[N+:4]([H:12])([H:13])[C:5]1=[C:6]([O-:7])[H:14])[H:8]"
O       -0.80358925      -1.30350623       1.19588739
C       -0.71504305      -0.70784447      -0.07971750
C       -1.16274655       0.76492315      -0.17512133
N        0.18018486       1.15434890      -0.68616957
C        0.66344314      -0.20799892      -0.44586488
C        1.84720686      -0.35424374       0.36473320
O        2.49783285       0.59076816       0.78011181
H       -1.64761799      -1.75035888       1.28028669
H       -1.17901121      -1.35262276      -0.83250027
H       -1.38279580       1.19648648       0.80247862
H       -1.95891307       0.99694317      -0.88254509
H        0.66302741       1.88447114      -0.17075378
H        0.82830600       0.48406134      -1.70354170
H        2.16971580      -1.39542735       0.55271641
