10
Frame=0 idx=010293 GeodesicLength=0.0 rxn_smarts="[N:1](=[C:2]=[C:7]([C:6](=[O:5])[H:9])[H:10])[H:8].[N:3]#[N:4]>>[N:1](=[C:2]=[C:7]([C:6](=[N:3][N:4]=[O:5])[H:9])[H:10])[H:8]"
N        2.35810461      -0.30262815       0.55704780
C        1.27852837      -0.63812372       0.19956708
N       -0.55283430       1.28920312      -0.63681424
N       -1.33651944       1.96814663       0.09704185
O       -1.86242476       1.18432815       0.95639903
C       -0.92541258      -0.01352162      -0.33617894
C        0.02619035      -1.01919788      -0.08640332
H        3.15177849      -0.07487467      -0.02405881
H       -1.92875343      -0.31939873      -0.61959148
H       -0.20865731      -2.07393313      -0.10700897
10
Frame=1 idx=010293 GeodesicLength=0.13017311087702527 rxn_smarts="[N:1](=[C:2]=[C:7]([C:6](=[O:5])[H:9])[H:10])[H:8].[N:3]#[N:4]>>[N:1](=[C:2]=[C:7]([C:6](=[N:3][N:4]=[O:5])[H:9])[H:10])[H:8]"
N        2.35893040      -0.31142941       0.56047183
C        1.27408006      -0.64902411       0.21756854
N       -0.54195819       1.30376864      -0.64373273
N       -1.31603412       1.98967213       0.09171293
O       -1.86131445       1.17609051       0.95086928
C       -0.93096953      -0.01925617      -0.32020292
C        0.02322428      -1.02767141      -0.07289390
H        3.12895762      -0.04830351      -0.03798835
H       -1.92914025      -0.33117487      -0.61976112
H       -0.20577581      -2.08267180      -0.12604357
10
Frame=2 idx=010293 GeodesicLength=0.2604147728657705 rxn_smarts="[N:1](=[C:2]=[C:7]([C:6](=[O:5])[H:9])[H:10])[H:8].[N:3]#[N:4]>>[N:1](=[C:2]=[C:7]([C:6](=[N:3][N:4]=[O:5])[H:9])[H:10])[H:8]"
N        2.35934532      -0.32016382       0.56330481
C        1.26979365      -0.65978611       0.23375368
N       -0.53098921       1.31843516      -0.65130641
N       -1.29554825       2.01125380       0.08547351
O       -1.85882580       1.16798713       0.94624855
C       -0.93699096      -0.02535307      -0.30421772
C        0.02023817      -1.03631862      -0.06007420
H        3.10554638      -0.02178401      -0.04931005
H       -1.93005538      -0.34358845      -0.61845320
H       -0.20251393      -2.09068200      -0.14541896
10
Frame=3 idx=010293 GeodesicLength=0.39078637753862167 rxn_smarts="[N:1](=[C:2]=[C:7]([C:6](=[O:5])[H:9])[H:10])[H:8].[N:3]#[N:4]>>[N:1](=[C:2]=[C:7]([C:6](=[N:3][N:4]=[O:5])[H:9])[H:10])[H:8]"
N        2.35962678      -0.32815645       0.56539096
C        1.26555532      -0.67012257       0.24947302
N       -0.51963312       1.33359541      -0.65873807
N       -1.27557912       2.03292333       0.07862205
O       -1.85614370       1.15950317       0.94213786
C       -0.94329592      -0.03165667      -0.28826710
C        0.01733985      -1.04492299      -0.04749820
H        3.08187883       0.00310593      -0.05959793
H       -1.93103931      -0.35649388      -0.61674620
H       -0.19870960      -2.09777528      -0.16477637
10
Frame=4 idx=010293 GeodesicLength=0.5211841652832263 rxn_smarts="[N:1](=[C:2]=[C:7]([C:6](=[O:5])[H:9])[H:10])[H:8].[N:3]#[N:4]>>[N:1](=[C:2]=[C:7]([C:6](=[N:3][N:4]=[O:5])[H:9])[H:10])[H:8]"
N        2.35960706      -0.33605367       0.56696845
C        1.26144789      -0.68032297       0.26374905
N       -0.50804378       1.34900644      -0.66666205
N       -1.25574292       2.05472889       0.07084169
O       -1.85241395       1.15094207       0.93887994
C       -0.95000880      -0.03831459      -0.27229331
C        0.01446812      -1.05368672      -0.03564446
H        3.05785358       0.02780682      -0.06774154
H       -1.93251263      -0.36994531      -0.61382239
H       -0.19465457      -2.10416096      -0.18427539
10
Frame=5 idx=010293 GeodesicLength=0.6516940861206522 rxn_smarts="[N:1](=[C:2]=[C:7]([C:6](=[O:5])[H:9])[H:10])[H:8].[N:3]#[N:4]>>[N:1](=[C:2]=[C:7]([C:6](=[N:3][N:4]=[O:5])[H:9])[H:10])[H:8]"
N        2.35939760      -0.34318725       0.56797785
C        1.25738450      -0.69012938       0.27756700
N       -0.49600344       1.36502034      -0.67439164
N       -1.23639116       2.07674568       0.06250542
O       -1.84861523       1.14182613       0.93613650
C       -0.95700034      -0.04521434      -0.25639662
C        0.01173806      -1.06241752      -0.02428388
H        3.03381029       0.05092675      -0.07506574
H       -1.93409092      -0.38383901      -0.61062461
H       -0.19022937      -2.10973141      -0.20342428
10
Frame=6 idx=010293 GeodesicLength=0.7821523985278824 rxn_smarts="[N:1](=[C:2]=[C:7]([C:6](=[O:5])[H:9])[H:10])[H:8].[N:3]#[N:4]>>[N:1](=[C:2]=[C:7]([C:6](=[N:3][N:4]=[O:5])[H:9])[H:10])[H:8]"
N        2.35889735      -0.35021028       0.56857982
C        1.25345331      -0.69983044       0.28994363
N       -0.48368413       1.38138394      -0.68260558
N       -1.21706390       2.09898091       0.05331070
O       -1.84392489       1.13251001       0.93420763
C       -0.96439566      -0.05250950      -0.24048967
C        0.00907189      -1.07131549      -0.01381719
H        3.00959621       0.07397664      -0.08036780
H       -1.93621000      -0.39824670      -0.60630714
H       -0.18574018      -2.11473908      -0.22245440
10
Frame=7 idx=010293 GeodesicLength=0.9125841257754623 rxn_smarts="[N:1](=[C:2]=[C:7]([C:6](=[O:5])[H:9])[H:10])[H:8].[N:3]#[N:4]>>[N:1](=[C:2]=[C:7]([C:6](=[N:3][N:4]=[O:5])[H:9])[H:10])[H:8]"
N        2.35815910      -0.35677508       0.56876876
C        1.24959809      -0.70928822       0.30142569
N       -0.47096968       1.39829006      -0.69093981
N       -1.19785007       2.12149118       0.04347050
O       -1.83891029       1.12276696       0.93287478
C       -0.97214077      -0.06016626      -0.22459791
C        0.00651848      -1.08028164      -0.00406655
H        2.98538794       0.09626302      -0.08440337
H       -1.93868194      -0.41313421      -0.60135257
H       -0.18111086      -2.11916582      -0.24117951
10
Frame=8 idx=010293 GeodesicLength=1.0427433070539098 rxn_smarts="[N:1](=[C:2]=[C:7]([C:6](=[O:5])[H:9])[H:10])[H:8].[N:3]#[N:4]>>[N:1](=[C:2]=[C:7]([C:6](=[N:3][N:4]=[O:5])[H:9])[H:10])[H:8]"
N        2.35718944      -0.36331886       0.56860637
C        1.24588059      -0.71870476       0.31135149
N       -0.45794274       1.41558394      -0.69991606
N       -1.17845785       2.14425297       0.03282996
O       -1.83301856       1.11285504       0.93229620
C       -0.98031989      -0.06829521      -0.20864614
C        0.00400686      -1.08945798       0.00471014
H        2.96110323       0.11887156      -0.08629197
H       -1.94181957      -0.42856334      -0.59517982
H       -0.17662151      -2.12322337      -0.25976018
10
Frame=9 idx=010293 GeodesicLength=1.1731151869487053 rxn_smarts="[N:1](=[C:2]=[C:7]([C:6](=[O:5])[H:9])[H:10])[H:8].[N:3]#[N:4]>>[N:1](=[C:2]=[C:7]([C:6](=[N:3][N:4]=[O:5])[H:9])[H:10])[H:8]"
N        2.35597204      -0.36852104       0.56806283
C        1.24206690      -0.72746741       0.32186697
N       -0.44423365       1.43389160      -0.70788856
N       -1.15933813       2.16748818       0.02205285
O       -1.82830048       1.10194729       0.93172801
C       -0.98872718      -0.07671333      -0.19278199
C        0.00174416      -1.09841871       0.01335741
H        2.93711808       0.13875326      -0.08910031
H       -1.94474552      -0.44442643      -0.58964407
H       -0.17155621      -2.12653340      -0.27765314
10
Frame=10 idx=010293 GeodesicLength=1.3031268260200735 rxn_smarts="[N:1](=[C:2]=[C:7]([C:6](=[O:5])[H:9])[H:10])[H:8].[N:3]#[N:4]>>[N:1](=[C:2]=[C:7]([C:6](=[N:3][N:4]=[O:5])[H:9])[H:10])[H:8]"
N        2.35448018      -0.37351374       0.56733653
C        1.23835500      -0.73613380       0.33105034
N       -0.43011523       1.45271857      -0.71636896
N       -1.13999657       2.19103940       0.01049859
O       -1.82295550       1.09083446       0.93179069
C       -0.99759546      -0.08567286      -0.17679373
C       -0.00047323      -1.10756406       0.02114082
H        2.91321452       0.15870920      -0.09015914
H       -1.94833684      -0.46089201      -0.58296410
H       -0.16657687      -2.12952516      -0.29553103
10
Frame=11 idx=010293 GeodesicLength=1.433017387731034 rxn_smarts="[N:1](=[C:2]=[C:7]([C:6](=[O:5])[H:9])[H:10])[H:8].[N:3]#[N:4]>>[N:1](=[C:2]=[C:7]([C:6](=[N:3][N:4]=[O:5])[H:9])[H:10])[H:8]"
N        2.35269787      -0.37790600       0.56647315
C        1.23467032      -0.74453423       0.33955993
N       -0.41542106       1.47228624      -0.72479699
N       -1.12061064       2.21505339      -0.00173601
O       -1.81761315       1.07924649       0.93228484
C       -1.00686804      -0.09514752      -0.16068990
C       -0.00257995      -1.11676802       0.02831514
H        2.88953499       0.17781156      -0.09045633
H       -1.95234545      -0.47795162      -0.57566532
H       -0.16146489      -2.13209028      -0.31328851
10
Frame=12 idx=010293 GeodesicLength=1.5627649930438274 rxn_smarts="[N:1](=[C:2]=[C:7]([C:6](=[O:5])[H:9])[H:10])[H:8].[N:3]#[N:4]>>[N:1](=[C:2]=[C:7]([C:6](=[N:3][N:4]=[O:5])[H:9])[H:10])[H:8]"
N        2.35064675      -0.38194860       0.56555106
C        1.23104878      -0.75279525       0.34711292
N       -0.40012492       1.49255213      -0.73338781
N       -1.10126090       2.23956550      -0.01500971
O       -1.81192435       1.06732944       0.93339436
C       -1.01657448      -0.10520389      -0.14434750
C       -0.00460071      -1.12610612       0.03475846
H        2.86605624       0.19653146      -0.08950603
H       -1.95695317      -0.49565345      -0.56731586
H       -0.15631324      -2.13427122      -0.33124990
10
Frame=13 idx=010293 GeodesicLength=1.6925754852947161 rxn_smarts="[N:1](=[C:2]=[C:7]([C:6](=[O:5])[H:9])[H:10])[H:8].[N:3]#[N:4]>>[N:1](=[C:2]=[C:7]([C:6](=[N:3][N:4]=[O:5])[H:9])[H:10])[H:8]"
N        2.34829892      -0.38528949       0.56468890
C        1.22744165      -0.76078762       0.35428335
N       -0.38394077       1.51378206      -0.74150199
N       -1.08241154       2.26481158      -0.02931912
O       -1.80641208       1.05479104       0.93498187
C       -1.02665735      -0.11581742      -0.12780466
C       -0.00646880      -1.13545298       0.04065433
H        2.84301232       0.21391496      -0.08832084
H       -1.96191170      -0.51397991      -0.55842966
H       -0.15095063      -2.13597221      -0.34923218
10
Frame=14 idx=010293 GeodesicLength=1.8224197004467535 rxn_smarts="[N:1](=[C:2]=[C:7]([C:6](=[O:5])[H:9])[H:10])[H:8].[N:3]#[N:4]>>[N:1](=[C:2]=[C:7]([C:6](=[N:3][N:4]=[O:5])[H:9])[H:10])[H:8]"
N        2.34571509      -0.38838030       0.56400435
C        1.22392884      -0.76874488       0.36060773
N       -0.36677795       1.53591205      -0.74940468
N       -1.06450236       2.29086513      -0.04542984
O       -1.80041452       1.04186219       0.93743254
C       -1.03712746      -0.12705382      -0.11085926
C       -0.00820463      -1.14491861       0.04575434
H        2.82039698       0.23061509      -0.08603161
H       -1.96749630      -0.53296948      -0.54826378
H       -0.14551770      -2.13718737      -0.36780978
10
Frame=15 idx=010293 GeodesicLength=1.9524113450327871 rxn_smarts="[N:1](=[C:2]=[C:7]([C:6](=[O:5])[H:9])[H:10])[H:8].[N:3]#[N:4]>>[N:1](=[C:2]=[C:7]([C:6](=[N:3][N:4]=[O:5])[H:9])[H:10])[H:8]"
N        2.34290595      -0.39113297       0.56366110
C        1.22051965      -0.77667685       0.36637272
N       -0.34827377       1.55920250      -0.75652290
N       -1.04836304       2.31795042      -0.06378548
O       -1.79405791       1.02838946       0.94082752
C       -1.04791774      -0.13889462      -0.09347367
C       -0.00974760      -1.15442731       0.05007121
H        2.79846315       0.24599030      -0.08316678
H       -1.97358837      -0.55259069      -0.53695340
H       -0.13994031      -2.13781024      -0.38703032
10
Frame=16 idx=010293 GeodesicLength=2.0825772456892198 rxn_smarts="[N:1](=[C:2]=[C:7]([C:6](=[O:5])[H:9])[H:10])[H:8].[N:3]#[N:4]>>[N:1](=[C:2]=[C:7]([C:6](=[N:3][N:4]=[O:5])[H:9])[H:10])[H:8]"
N        2.33991724      -0.39381758       0.56386700
C        1.21727881      -0.78476639       0.37143369
N       -0.32813453       1.58378237      -0.76260840
N       -1.03491781       2.34616995      -0.08535896
O       -1.78690872       1.01448120       0.94551548
C       -1.05898214      -0.15135780      -0.07544549
C       -0.01107112      -1.16400194       0.05341600
H        2.77738839       0.26002946      -0.07938369
H       -1.98032231      -0.57284300      -0.52397590
H       -0.13424781      -2.13767627      -0.40745972
