14
Frame=0 idx=006916 GeodesicLength=0.0 rxn_smarts="[N:1]([c:2]1[c:3]([H:10])[c:4]([N:5]([H:11])[H:12])[c:6]([H:13])[n:7]1[H:14])([H:8])[H:9]>>[N:1]([C:2]1=[C-:3][C@@:4]([N:5]([H:11])[H:12])([H:10])[C+:6]([H:13])[N:7]1[H:14])([H:8])[H:9]"
N       -2.55476264      -0.31575115      -0.06654909
C       -1.15047286      -0.16121487       0.01036094
C       -0.12782243      -1.08002758       0.14210941
C        1.07687746      -0.18416596       0.03961235
N        2.36891237      -0.58615504       0.46800222
C        0.64526075       1.18483958       0.00152269
N       -0.67466637       1.13776410      -0.06286373
H       -2.77024753      -1.16572669      -0.56786063
H       -2.96791673      -0.39926265       0.85362236
H        0.77750213      -0.52039369      -1.03654346
H        3.09911811      -0.37067807      -0.19453341
H        2.35723662      -1.58043170       0.64691922
H        1.19779629       2.11147692       0.00215860
H       -1.27681517       1.92972685      -0.23595745
14
Frame=1 idx=006916 GeodesicLength=0.06626709970490141 rxn_smarts="[N:1]([c:2]1[c:3]([H:10])[c:4]([N:5]([H:11])[H:12])[c:6]([H:13])[n:7]1[H:14])([H:8])[H:9]>>[N:1]([C:2]1=[C-:3][C@@:4]([N:5]([H:11])[H:12])([H:10])[C+:6]([H:13])[N:7]1[H:14])([H:8])[H:9]"
N       -2.55577924      -0.31148936      -0.06150046
C       -1.15172720      -0.15753233       0.01989692
C       -0.12769095      -1.07368557       0.14475209
C        1.07752455      -0.18446348       0.03548945
N        2.36721081      -0.58250429       0.47537243
C        0.64738499       1.18417628      -0.01614982
N       -0.67397096       1.14126520      -0.05992857
H       -2.77279833      -1.14468839      -0.58964388
H       -2.96762464      -0.42314413       0.85616770
H        0.76929124      -0.55910553      -1.04337436
H        3.10338031      -0.35678794      -0.17703084
H        2.36131016      -1.57859333       0.64384489
H        1.20133827       2.11006716      -0.01838536
H       -1.27784900       1.93648571      -0.20951018
14
Frame=2 idx=006916 GeodesicLength=0.1324361346933542 rxn_smarts="[N:1]([c:2]1[c:3]([H:10])[c:4]([N:5]([H:11])[H:12])[c:6]([H:13])[n:7]1[H:14])([H:8])[H:9]>>[N:1]([C:2]1=[C-:3][C@@:4]([N:5]([H:11])[H:12])([H:10])[C+:6]([H:13])[N:7]1[H:14])([H:8])[H:9]"
N       -2.55669760      -0.30726480      -0.05688569
C       -1.15291091      -0.15388103       0.02936518
C       -0.12753260      -1.06730266       0.14799411
C        1.07813054      -0.18477310       0.03112045
N        2.36553211      -0.57846429       0.48236829
C        0.64924200       1.18332531      -0.03402722
N       -0.67323832       1.14476021      -0.05677492
H       -2.77503192      -1.12289891      -0.61135934
H       -2.96747706      -0.44711028       0.85731030
H        0.76063734      -0.59915651      -1.04907993
H        3.10722700      -0.34274782      -0.16012650
H        2.36575097      -1.57612562       0.64101096
H        1.20464158       2.10845529      -0.03953684
H       -1.27827313       1.94318420      -0.18137885
14
Frame=3 idx=006916 GeodesicLength=0.19856847153371032 rxn_smarts="[N:1]([c:2]1[c:3]([H:10])[c:4]([N:5]([H:11])[H:12])[c:6]([H:13])[n:7]1[H:14])([H:8])[H:9]>>[N:1]([C:2]1=[C-:3][C@@:4]([N:5]([H:11])[H:12])([H:10])[C+:6]([H:13])[N:7]1[H:14])([H:8])[H:9]"
N       -2.55753369      -0.30306741      -0.05256924
C       -1.15403552      -0.15026562       0.03881339
C       -0.12734436      -1.06089784       0.15169796
C        1.07868223      -0.18508976       0.02656919
N        2.36388366      -0.57409683       0.48893661
C        0.65079777       1.18230224      -0.05175843
N       -0.67248320       1.14826736      -0.05318295
H       -2.77698657      -1.10031879      -0.63290078
H       -2.96741648      -0.47116938       0.85720324
H        0.75152809      -0.64037344      -1.05359366
H        3.11065169      -0.32848100      -0.14386418
H        2.37056549      -1.57312977       0.63817965
H        1.20766712       2.10665908      -0.06089019
H       -1.27797622       1.94966116      -0.15264063
14
Frame=4 idx=006916 GeodesicLength=0.2647000992708561 rxn_smarts="[N:1]([c:2]1[c:3]([H:10])[c:4]([N:5]([H:11])[H:12])[c:6]([H:13])[n:7]1[H:14])([H:8])[H:9]>>[N:1]([C:2]1=[C-:3][C@@:4]([N:5]([H:11])[H:12])([H:10])[C+:6]([H:13])[N:7]1[H:14])([H:8])[H:9]"
N       -2.55828189      -0.29890777      -0.04862082
C       -1.15510102      -0.14670008       0.04818226
C       -0.12711173      -1.05447509       0.15585060
C        1.07918093      -0.18542127       0.02181230
N        2.36227317      -0.56936738       0.49508279
C        0.65203658       1.18110185      -0.06941769
N       -0.67168294       1.15176050      -0.04925275
H       -2.77865732      -1.07691955      -0.65423905
H       -2.96743859      -0.49524882       0.85571954
H        0.74196875      -0.68287126      -1.05681293
H        3.11366802      -0.31397316      -0.12825961
H        2.37575442      -1.56956774       0.63542029
H        1.21035068       2.10466185      -0.08258768
H       -1.27695905       1.95592793      -0.12287724
14
Frame=5 idx=006916 GeodesicLength=0.33092843980384284 rxn_smarts="[N:1]([c:2]1[c:3]([H:10])[c:4]([N:5]([H:11])[H:12])[c:6]([H:13])[n:7]1[H:14])([H:8])[H:9]>>[N:1]([C:2]1=[C-:3][C@@:4]([N:5]([H:11])[H:12])([H:10])[C+:6]([H:13])[N:7]1[H:14])([H:8])[H:9]"
N       -2.55896214      -0.29477242      -0.04469140
C       -1.15611717      -0.14317838       0.05758353
C       -0.12683963      -1.04806662       0.16015911
C        1.07961676      -0.18574054       0.01699316
N        2.36071108      -0.56448249       0.50071636
C        0.65295577       1.17980335      -0.08624588
N       -0.67087466       1.15530652      -0.04444339
H       -2.78017978      -1.05269632      -0.67514296
H       -2.96737096      -0.51947249       0.85331911
H        0.73195791      -0.72617765      -1.05877657
H        3.11627144      -0.29916170      -0.11331625
H        2.38130822      -1.56570990       0.63218368
H        1.21275345       2.10257390      -0.10363774
H       -1.27523030       1.96177472      -0.09470075
14
Frame=6 idx=006916 GeodesicLength=0.3972653851448963 rxn_smarts="[N:1]([c:2]1[c:3]([H:10])[c:4]([N:5]([H:11])[H:12])[c:6]([H:13])[n:7]1[H:14])([H:8])[H:9]>>[N:1]([C:2]1=[C-:3][C@@:4]([N:5]([H:11])[H:12])([H:10])[C+:6]([H:13])[N:7]1[H:14])([H:8])[H:9]"
N       -2.55955310      -0.29067553      -0.04097715
C       -1.15706985      -0.13971101       0.06692634
C       -0.12650115      -1.04166327       0.16471018
C        1.08000718      -0.18606162       0.01202696
N        2.35921509      -0.55934338       0.50586901
C        0.65356247       1.17839515      -0.10260076
N       -0.66999869       1.15884619      -0.03906000
H       -2.78148966      -1.02759025      -0.69563971
H       -2.96727347      -0.54374800       0.84967280
H        0.72150150      -0.77062544      -1.05933035
H        3.11849851      -0.28408468      -0.09906721
H        2.38722890      -1.56142514       0.62873786
H        1.21476921       2.10033863      -0.12450532
H       -1.27289693       1.96734833      -0.06676267
14
Frame=7 idx=006916 GeodesicLength=0.46371677435599584 rxn_smarts="[N:1]([c:2]1[c:3]([H:10])[c:4]([N:5]([H:11])[H:12])[c:6]([H:13])[n:7]1[H:14])([H:8])[H:9]>>[N:1]([C:2]1=[C-:3][C@@:4]([N:5]([H:11])[H:12])([H:10])[C+:6]([H:13])[N:7]1[H:14])([H:8])[H:9]"
N       -2.56005907      -0.28662321      -0.03730636
C       -1.15795851      -0.13630232       0.07622409
C       -0.12609250      -1.03528097       0.16932002
C        1.08035475      -0.18637418       0.00694100
N        2.35778400      -0.55406648       0.51050192
C        0.65387421       1.17693776      -0.11811713
N       -0.66906384       1.16241018      -0.03288177
H       -2.78267200      -1.00163925      -0.71558682
H       -2.96703523      -0.56811019       0.84499612
H        0.71062170      -0.81601821      -1.05846929
H        3.12036235      -0.26873669      -0.08547862
H        2.39349359      -1.55685428       0.62482092
H        1.21646719       2.09805087      -0.14470781
H       -1.27007663       1.97260698      -0.04025630
14
Frame=8 idx=006916 GeodesicLength=0.5303010025446561 rxn_smarts="[N:1]([c:2]1[c:3]([H:10])[c:4]([N:5]([H:11])[H:12])[c:6]([H:13])[n:7]1[H:14])([H:8])[H:9]>>[N:1]([C:2]1=[C-:3][C@@:4]([N:5]([H:11])[H:12])([H:10])[C+:6]([H:13])[N:7]1[H:14])([H:8])[H:9]"
N       -2.56046796      -0.28261165      -0.03379987
C       -1.15877691      -0.13294887       0.08538838
C       -0.12559521      -1.02891446       0.17398495
C        1.08067402      -0.18668464       0.00167079
N        2.35642040      -0.54860232       0.51463986
C        0.65391642       1.17544039      -0.13298684
N       -0.66802300       1.16595645      -0.02611254
H       -2.78371043      -0.97483362      -0.73497333
H       -2.96667279      -0.59251116       0.83908448
H        0.69934183      -0.86257196      -1.05604192
H        3.12189728      -0.25314210      -0.07254516
H        2.40008430      -1.55193303       0.62058101
H        1.21778079       2.09569488      -0.16456623
H       -1.26686875       1.97766211      -0.01432358
14
Frame=9 idx=006916 GeodesicLength=0.5962926350603652 rxn_smarts="[N:1]([c:2]1[c:3]([H:10])[c:4]([N:5]([H:11])[H:12])[c:6]([H:13])[n:7]1[H:14])([H:8])[H:9]>>[N:1]([C:2]1=[C-:3][C@@:4]([N:5]([H:11])[H:12])([H:10])[C+:6]([H:13])[N:7]1[H:14])([H:8])[H:9]"
N       -2.56081942      -0.27861066      -0.03044075
C       -1.15953723      -0.12964642       0.09437361
C       -0.12503746      -1.02254802       0.17861368
C        1.08094030      -0.18700602      -0.00400959
N        2.35505482      -0.54302876       0.51819282
C        0.65369805       1.17397086      -0.14677226
N       -0.66696104       1.16958075      -0.01856304
H       -2.78456149      -0.94757079      -0.75390948
H       -2.96617805      -0.61679643       0.83228146
H        0.68771479      -0.91006369      -1.05186109
H        3.12309318      -0.23731897      -0.06026533
H        2.40692621      -1.54674982       0.61584437
H        1.21887665       2.09338158      -0.18385752
H       -1.26320930       1.98240639       0.01037311
14
Frame=10 idx=006916 GeodesicLength=0.6624059762891511 rxn_smarts="[N:1]([c:2]1[c:3]([H:10])[c:4]([N:5]([H:11])[H:12])[c:6]([H:13])[n:7]1[H:14])([H:8])[H:9]>>[N:1]([C:2]1=[C-:3][C@@:4]([N:5]([H:11])[H:12])([H:10])[C+:6]([H:13])[N:7]1[H:14])([H:8])[H:9]"
N       -2.56106066      -0.27467034      -0.02715029
C       -1.16020935      -0.12640280       0.10327320
C       -0.12436921      -1.01619500       0.18320004
C        1.08118958      -0.18732096      -0.00992227
N        2.35377740      -0.53735960       0.52115272
C        0.65325907       1.17254975      -0.15969433
N       -0.66577005       1.17319256      -0.01035898
H       -2.78528672      -0.91943921      -0.77219541
H       -2.96547461      -0.64112612       0.82432374
H        0.67568845      -0.95871783      -1.04587186
H        3.12398557      -0.22129228      -0.04872016
H        2.41408230      -1.54131566       0.61057677
H        1.21961299       2.09110258      -0.20227955
H       -1.25942477       1.98699490       0.03366639
14
Frame=11 idx=006916 GeodesicLength=0.7286383860911982 rxn_smarts="[N:1]([c:2]1[c:3]([H:10])[c:4]([N:5]([H:11])[H:12])[c:6]([H:13])[n:7]1[H:14])([H:8])[H:9]>>[N:1]([C:2]1=[C-:3][C@@:4]([N:5]([H:11])[H:12])([H:10])[C+:6]([H:13])[N:7]1[H:14])([H:8])[H:9]"
N       -2.56119855      -0.27080911      -0.02398425
C       -1.16080106      -0.12322160       0.11197256
C       -0.12359474      -1.00984429       0.18770672
C        1.08141558      -0.18761699      -0.01609781
N        2.35257819      -0.53160334       0.52350859
C        0.65261434       1.17121084      -0.17175334
N       -0.66448238       1.17680277      -0.00167508
H       -2.78592622      -0.89062833      -0.78981093
H       -2.96452833      -0.66536099       0.81525609
H        0.66329657      -1.00856010      -1.03797483
H        3.12457982      -0.20509386      -0.03791148
H        2.42152285      -1.53563609       0.60476552
H        1.22006285       2.08893151      -0.21975883
H       -1.25553891       1.99142959       0.05575706
14
Frame=12 idx=006916 GeodesicLength=0.7949683586462624 rxn_smarts="[N:1]([c:2]1[c:3]([H:10])[c:4]([N:5]([H:11])[H:12])[c:6]([H:13])[n:7]1[H:14])([H:8])[H:9]>>[N:1]([C:2]1=[C-:3][C@@:4]([N:5]([H:11])[H:12])([H:10])[C+:6]([H:13])[N:7]1[H:14])([H:8])[H:9]"
N       -2.56122084      -0.26703593      -0.02097543
C       -1.16130422      -0.12009631       0.12053220
C       -0.12270168      -1.00347752       0.19221406
C        1.08161860      -0.18789192      -0.02257238
N        2.35148148      -0.52575453       0.52519337
C        0.65177860       1.16998020      -0.18295623
N       -0.66308635       1.18039897       0.00746536
H       -2.78641704      -0.86102747      -0.80678686
H       -2.96336903      -0.68954914       0.80494206
H        0.65051028      -1.05970207      -1.02792820
H        3.12488584      -0.18874876      -0.02794729
H        2.42925642      -1.52969941       0.59838186
H        1.22019240       2.08688070      -0.23627128
H       -1.25162446       1.99572320       0.07670875
14
Frame=13 idx=006916 GeodesicLength=0.8613617860324613 rxn_smarts="[N:1]([c:2]1[c:3]([H:10])[c:4]([N:5]([H:11])[H:12])[c:6]([H:13])[n:7]1[H:14])([H:8])[H:9]>>[N:1]([C:2]1=[C-:3][C@@:4]([N:5]([H:11])[H:12])([H:10])[C+:6]([H:13])[N:7]1[H:14])([H:8])[H:9]"
N       -2.56113675      -0.26336446      -0.01818020
C       -1.16172940      -0.11703247       0.12881554
C       -0.12169198      -0.99709170       0.19662444
C        1.08179246      -0.18813165      -0.02936925
N        2.35047051      -0.51984060       0.52620386
C        0.65078413       1.16889973      -0.19327480
N       -0.66160999       1.18400208       0.01699041
H       -2.78683446      -0.83085650      -0.82310860
H       -2.96193436      -0.71356872       0.79346571
H        0.63738479      -1.11211143      -1.01561256
H        3.12491684      -0.17230023      -0.01881366
H        2.43723660      -1.52353665       0.59139818
H        1.22009150       2.08502764      -0.25177549
H       -1.24773990       1.99990496       0.09663642
14
Frame=14 idx=006916 GeodesicLength=0.9277978509986015 rxn_smarts="[N:1]([c:2]1[c:3]([H:10])[c:4]([N:5]([H:11])[H:12])[c:6]([H:13])[n:7]1[H:14])([H:8])[H:9]>>[N:1]([C:2]1=[C-:3][C@@:4]([N:5]([H:11])[H:12])([H:10])[C+:6]([H:13])[N:7]1[H:14])([H:8])[H:9]"
N       -2.56094010      -0.25978750      -0.01562649
C       -1.16207116      -0.11401874       0.13689392
C       -0.12055349      -0.99067472       0.20097211
C        1.08193216      -0.18833513      -0.03655563
N        2.34955851      -0.51383739       0.52647003
C        0.64963721       1.16798873      -0.20275741
N       -0.66004030       1.18760137       0.02691638
H       -2.78710348      -0.79995938      -0.83885660
H       -2.96025303      -0.73751870       0.78065736
H        0.62388807      -1.16591988      -1.00068016
H        3.12468155      -0.15576961      -0.01062450
H        2.44546231      -1.51711715       0.58381082
H        1.21971661       2.08337866      -0.26633232
H       -1.24391487       2.00396942       0.11571250
14
Frame=15 idx=006916 GeodesicLength=0.9941725056498554 rxn_smarts="[N:1]([c:2]1[c:3]([H:10])[c:4]([N:5]([H:11])[H:12])[c:6]([H:13])[n:7]1[H:14])([H:8])[H:9]>>[N:1]([C:2]1=[C-:3][C@@:4]([N:5]([H:11])[H:12])([H:10])[C+:6]([H:13])[N:7]1[H:14])([H:8])[H:9]"
N       -2.56063555      -0.25630906      -0.01337306
C       -1.16233550      -0.11106433       0.14469566
C       -0.11928504      -0.98422812       0.20518083
C        1.08202886      -0.18850430      -0.04420737
N        2.34872673      -0.50774753       0.52596153
C        0.64835762       1.16727135      -0.21142549
N       -0.65838721       1.19120153       0.03721835
H       -2.78724971      -0.76844151      -0.85408202
H       -2.95830265      -0.76133198       0.76651449
H        0.61006255      -1.22111648      -0.98287115
H        3.12418889      -0.13918732      -0.00340130
H        2.45389540      -1.51044317       0.57561235
H        1.21910364       2.08197698      -0.27998514
H       -1.24016802       2.00792395       0.13416231
14
Frame=16 idx=006916 GeodesicLength=1.0604417078612698 rxn_smarts="[N:1]([c:2]1[c:3]([H:10])[c:4]([N:5]([H:11])[H:12])[c:6]([H:13])[n:7]1[H:14])([H:8])[H:9]>>[N:1]([C:2]1=[C-:3][C@@:4]([N:5]([H:11])[H:12])([H:10])[C+:6]([H:13])[N:7]1[H:14])([H:8])[H:9]"
N       -2.56022128      -0.25291290      -0.01147873
C       -1.16252681      -0.10817333       0.15226508
C       -0.11788387      -0.97775319       0.20923737
C        1.08206584      -0.18864723      -0.05241393
N        2.34797132      -0.50153713       0.52460817
C        0.64693880       1.16675314      -0.21935656
N       -0.65664090       1.19479912       0.04798121
H       -2.78721399      -0.73618831      -0.86894012
H       -2.95609788      -0.78510279       0.75088381
H        0.59590723      -1.27778042      -0.96174517
H        3.12343895      -0.12257586       0.00273657
H        2.46251768      -1.50347842       0.56682750
H        1.21823096       2.08082850      -0.29290509
H       -1.23648607       2.01176880       0.15229988
