12
Frame=0 idx=001269 GeodesicLength=0.0 rxn_smarts="[C:1]([c:2]1[c:3]([H:10])[n:4]([H:11])[c:5]([H:12])[n:6]1)([H:7])([H:8])[H:9]>>[C:1]([n+:6]1[c-:2][c:3]([H:10])[n:4]([H:11])[c:5]1[H:12])([H:7])([H:8])[H:9]"
C       -1.65469935      -0.59271505       0.06743427
C       -0.49291924       0.79357142      -0.67078001
C        0.55472748       1.38694058       0.02975573
N        1.52727903       0.44756552       0.22872362
C        1.10769013      -0.73009192      -0.23887404
N       -0.09136781      -0.56956957      -0.81283957
H       -1.95406364       0.10220172       0.84653123
H       -1.44716568      -1.56853503       0.50584375
H       -2.38274721      -0.65039248      -0.72675636
H        0.69667497       2.40201817       0.36309968
H        2.45332506       0.61951791       0.58646012
H        1.68326623      -1.64051125      -0.17859846
12
Frame=1 idx=001269 GeodesicLength=0.02500867315426405 rxn_smarts="[C:1]([c:2]1[c:3]([H:10])[n:4]([H:11])[c:5]([H:12])[n:6]1)([H:7])([H:8])[H:9]>>[C:1]([n+:6]1[c-:2][c:3]([H:10])[n:4]([H:11])[c:5]1[H:12])([H:7])([H:8])[H:9]"
C       -1.65852819      -0.59002224       0.06443636
C       -0.48972040       0.78901630      -0.66303893
C        0.55777665       1.38569197       0.03176945
N        1.53816265       0.45066327       0.21965567
C        1.11292024      -0.72980066      -0.23665705
N       -0.08674018      -0.57045979      -0.80628712
H       -1.97320125       0.10174568       0.84067717
H       -1.46027608      -1.56450445       0.51048489
H       -2.38235047      -0.65344260      -0.73420788
H        0.68877257       2.39664742       0.38156652
H        2.46937061       0.62712806       0.56080715
H        1.68381385      -1.64266297      -0.16920623
12
Frame=2 idx=001269 GeodesicLength=0.04994339514908202 rxn_smarts="[C:1]([c:2]1[c:3]([H:10])[n:4]([H:11])[c:5]([H:12])[n:6]1)([H:7])([H:8])[H:9]>>[C:1]([n+:6]1[c-:2][c:3]([H:10])[n:4]([H:11])[c:5]1[H:12])([H:7])([H:8])[H:9]"
C       -1.66221734      -0.58743535       0.06169520
C       -0.48668165       0.78452563      -0.65496195
C        0.56082070       1.38449600       0.03373645
N        1.54883837       0.45384388       0.21022753
C        1.11821577      -0.72925663      -0.23499544
N       -0.08223685      -0.57118068      -0.79974569
H       -1.99212661       0.10096423       0.83493481
H       -1.47326360      -1.56055967       0.51502011
H       -2.38186173      -0.65650413      -0.74121930
H        0.68187936       2.39125239       0.39861943
H        2.48411276       0.63422079       0.53713947
H        1.68452083      -1.64436645      -0.16045062
12
Frame=3 idx=001269 GeodesicLength=0.07471159692223282 rxn_smarts="[C:1]([c:2]1[c:3]([H:10])[n:4]([H:11])[c:5]([H:12])[n:6]1)([H:7])([H:8])[H:9]>>[C:1]([n+:6]1[c-:2][c:3]([H:10])[n:4]([H:11])[c:5]1[H:12])([H:7])([H:8])[H:9]"
C       -1.66591543      -0.58512563       0.05918231
C       -0.48399017       0.78022704      -0.64614285
C        0.56369728       1.38336941       0.03628720
N        1.55922648       0.45704743       0.20092079
C        1.12358233      -0.72847035      -0.23388395
N       -0.07792842      -0.57162198      -0.79322006
H       -2.01099735       0.09947462       0.82953642
H       -1.48618546      -1.55708586       0.51910492
H       -2.38148820      -0.65953985      -0.74789432
H        0.67678268       2.38663162       0.41299495
H        2.49773856       0.64078536       0.51569195
H        1.68547770      -1.64569182      -0.15257735
12
Frame=4 idx=001269 GeodesicLength=0.09933050461999607 rxn_smarts="[C:1]([c:2]1[c:3]([H:10])[n:4]([H:11])[c:5]([H:12])[n:6]1)([H:7])([H:8])[H:9]>>[C:1]([n+:6]1[c-:2][c:3]([H:10])[n:4]([H:11])[c:5]1[H:12])([H:7])([H:8])[H:9]"
C       -1.66955895      -0.58310478       0.05698787
C       -0.48165956       0.77609690      -0.63663247
C        0.56643125       1.38230303       0.03922625
N        1.56926472       0.46026611       0.19164486
C        1.12901053      -0.72740608      -0.23357038
N       -0.07385142      -0.57176821      -0.78679846
H       -2.02963829       0.09724157       0.82462934
H       -1.49893049      -1.55408629       0.52279715
H       -2.38123512      -0.66252786      -0.75405997
H        0.67352798       2.38298276       0.42428624
H        2.50995344       0.64659594       0.49744982
H        1.68668590      -1.64659309      -0.14596026
12
Frame=5 idx=001269 GeodesicLength=0.12384342736121944 rxn_smarts="[C:1]([c:2]1[c:3]([H:10])[n:4]([H:11])[c:5]([H:12])[n:6]1)([H:7])([H:8])[H:9]>>[C:1]([n+:6]1[c-:2][c:3]([H:10])[n:4]([H:11])[c:5]1[H:12])([H:7])([H:8])[H:9]"
C       -1.67315699      -0.58119235       0.05499771
C       -0.47948920       0.77200870      -0.62678822
C        0.56916554       1.38127690       0.04218766
N        1.57912967       0.46352404       0.18216545
C        1.13452492      -0.72619899      -0.23376537
N       -0.06989470      -0.57182170      -0.78039580
H       -2.04813657       0.09469754       0.81983353
H       -1.51163789      -1.55127053       0.52630778
H       -2.38100174      -0.66548014      -0.75991950
H        0.67106873       2.37965070       0.43441249
H        2.52142255       0.65206475       0.48071619
H        1.68800568      -1.64725891      -0.13975192
12
Frame=6 idx=001269 GeodesicLength=0.1482758160616402 rxn_smarts="[C:1]([c:2]1[c:3]([H:10])[n:4]([H:11])[c:5]([H:12])[n:6]1)([H:7])([H:8])[H:9]>>[C:1]([n+:6]1[c-:2][c:3]([H:10])[n:4]([H:11])[c:5]1[H:12])([H:7])([H:8])[H:9]"
C       -1.67675286      -0.57931431       0.05312339
C       -0.47737576       0.76789286      -0.61670800
C        0.57194588       1.38025782       0.04512891
N        1.58888124       0.46682641       0.17247910
C        1.14011474      -0.72492328      -0.23420251
N       -0.06599834      -0.57188434      -0.77389672
H       -2.06662466       0.09203487       0.81490777
H       -1.52444913      -1.54850463       0.52970615
H       -2.38073277      -0.66840942      -0.76564509
H        0.66896558       2.37631817       0.44428605
H        2.53261003       0.65747109       0.46435984
H        1.68941606      -1.64776524      -0.13353889
12
Frame=7 idx=001269 GeodesicLength=0.17268642063184342 rxn_smarts="[C:1]([c:2]1[c:3]([H:10])[n:4]([H:11])[c:5]([H:12])[n:6]1)([H:7])([H:8])[H:9]>>[C:1]([n+:6]1[c-:2][c:3]([H:10])[n:4]([H:11])[c:5]1[H:12])([H:7])([H:8])[H:9]"
C       -1.68029821      -0.57729290       0.05132535
C       -0.47515378       0.76365198      -0.60681455
C        0.57491654       1.37929586       0.04748541
N        1.59868411       0.47026098       0.16211699
C        1.14583108      -0.72363642      -0.23477950
N       -0.06206939      -0.57212565      -0.76727874
H       -2.08508263       0.08971184       0.80954675
H       -1.53739095      -1.54546229       0.53331065
H       -2.38032812      -0.67139285      -0.77129343
H        0.66632685       2.37218141       0.45560952
H        2.54371870       0.66298719       0.44747804
H        1.69084580      -1.64817914      -0.12670649
12
Frame=8 idx=001269 GeodesicLength=0.1969730941793245 rxn_smarts="[C:1]([c:2]1[c:3]([H:10])[n:4]([H:11])[c:5]([H:12])[n:6]1)([H:7])([H:8])[H:9]>>[C:1]([n+:6]1[c-:2][c:3]([H:10])[n:4]([H:11])[c:5]1[H:12])([H:7])([H:8])[H:9]"
C       -1.68375389      -0.57551705       0.04993584
C       -0.47328297       0.75949871      -0.59636197
C        0.57779467       1.37837050       0.04993507
N        1.60825476       0.47375953       0.15130944
C        1.15160178      -0.72211164      -0.23636013
N       -0.05840128      -0.57214659      -0.76084875
H       -2.10316905       0.08671994       0.80480249
H       -1.55008469      -1.54284073       0.53662306
H       -2.38008350      -0.67427921      -0.77628060
H        0.66527209       2.36915581       0.46382195
H        2.55331264       0.66756890       0.43481133
H        1.69253943      -1.64817817      -0.12138775
12
Frame=9 idx=001269 GeodesicLength=0.22117273166717333 rxn_smarts="[C:1]([c:2]1[c:3]([H:10])[n:4]([H:11])[c:5]([H:12])[n:6]1)([H:7])([H:8])[H:9]>>[C:1]([n+:6]1[c-:2][c:3]([H:10])[n:4]([H:11])[c:5]1[H:12])([H:7])([H:8])[H:9]"
C       -1.68714241      -0.57388990       0.04887858
C       -0.47162748       0.75539095      -0.58555222
C        0.58067031       1.37750239       0.05226765
N        1.61770004       0.47738334       0.13988348
C        1.15743702      -0.72040461      -0.23873720
N       -0.05491772      -0.57204645      -0.75453297
H       -2.12097088       0.08331449       0.80042369
H       -1.56264294      -1.54051400       0.53979177
H       -2.37996529      -0.67710001      -0.78076416
H        0.66518099       2.36681759       0.47011080
H        2.56185081       0.67143190       0.42525814
H        1.69442754      -1.64788569      -0.11702755
12
Frame=10 idx=001269 GeodesicLength=0.24531454591607274 rxn_smarts="[C:1]([c:2]1[c:3]([H:10])[n:4]([H:11])[c:5]([H:12])[n:6]1)([H:7])([H:8])[H:9]>>[C:1]([n+:6]1[c-:2][c:3]([H:10])[n:4]([H:11])[c:5]1[H:12])([H:7])([H:8])[H:9]"
C       -1.69049006      -0.57232514       0.04806186
C       -0.47006913       0.75125491      -0.57449333
C        0.58358865       1.37665592       0.05444110
N        1.62707792       0.48112869       0.12785367
C        1.16334040      -0.71858310      -0.24164914
N       -0.05153809      -0.57192969      -0.74822085
H       -2.13861421       0.07971346       0.79615589
H       -1.57518724      -1.53830836       0.54289744
H       -2.37987488      -0.67987216      -0.78492227
H        0.66559831       2.36476453       0.47546546
H        2.56969227       0.67486237       0.41756397
H        1.69647606      -1.64736144      -0.11315381
12
Frame=11 idx=001269 GeodesicLength=0.2694170222033485 rxn_smarts="[C:1]([c:2]1[c:3]([H:10])[n:4]([H:11])[c:5]([H:12])[n:6]1)([H:7])([H:8])[H:9]>>[C:1]([n+:6]1[c-:2][c:3]([H:10])[n:4]([H:11])[c:5]1[H:12])([H:7])([H:8])[H:9]"
C       -1.69385333      -0.57078306       0.04737917
C       -0.46851445       0.74705024      -0.56316661
C        0.58656097       1.37578998       0.05659733
N        1.63637827       0.48493951       0.11549293
C        1.16929828      -0.71671509      -0.24477423
N       -0.04819197      -0.57185942      -0.74176278
H       -2.15626955       0.07602794       0.79176062
H       -1.58787739      -1.53614592       0.54593113
H       -2.37973041      -0.68259982      -0.78897053
H        0.66629027       2.36277253       0.48054088
H        2.57723421       0.67816577       0.41036526
H        1.69867511      -1.64664266      -0.10939317
12
Frame=12 idx=001269 GeodesicLength=0.29350260945907086 rxn_smarts="[C:1]([c:2]1[c:3]([H:10])[n:4]([H:11])[c:5]([H:12])[n:6]1)([H:7])([H:8])[H:9]>>[C:1]([n+:6]1[c-:2][c:3]([H:10])[n:4]([H:11])[c:5]1[H:12])([H:7])([H:8])[H:9]"
C       -1.69732233      -0.56924077       0.04666450
C       -0.46686916       0.74274929      -0.55145437
C        0.58957645       1.37484448       0.05905594
N        1.64554727       0.48874247       0.10328588
C        1.17528577      -0.71487445      -0.24766775
N       -0.04479534      -0.57187828      -0.73495239
H       -2.17417341       0.07230329       0.78695424
H       -1.60095048      -1.53400662       0.54875146
H       -2.37942997      -0.68524441      -0.79323508
H        0.66707431       2.36061176       0.48608022
H        2.58509756       0.68181328       0.40162559
H        1.70095932      -1.64582003      -0.10510823
12
Frame=13 idx=001269 GeodesicLength=0.3175884420144286 rxn_smarts="[C:1]([c:2]1[c:3]([H:10])[n:4]([H:11])[c:5]([H:12])[n:6]1)([H:7])([H:8])[H:9]>>[C:1]([n+:6]1[c-:2][c:3]([H:10])[n:4]([H:11])[c:5]1[H:12])([H:7])([H:8])[H:9]"
C       -1.70092588      -0.56764503       0.04584418
C       -0.46507266       0.73830775      -0.53941604
C        0.59266014       1.37381153       0.06178174
N        1.65459560       0.49252140       0.09128263
C        1.18131066      -0.71311174      -0.25013349
N       -0.04130437      -0.57205942      -0.72768829
H       -2.19242068       0.06868757       0.78152011
H       -1.61451246      -1.53177965       0.55139264
H       -2.37890888      -0.68783103      -0.79784851
H        0.66769024       2.35795360       0.49283132
H        2.59358359       0.68606261       0.39034101
H        1.70330468      -1.64491760      -0.09990731
12
Frame=14 idx=001269 GeodesicLength=0.3416903614025414 rxn_smarts="[C:1]([c:2]1[c:3]([H:10])[n:4]([H:11])[c:5]([H:12])[n:6]1)([H:7])([H:8])[H:9]>>[C:1]([n+:6]1[c-:2][c:3]([H:10])[n:4]([H:11])[c:5]1[H:12])([H:7])([H:8])[H:9]"
C       -1.70469041      -0.56596811       0.04487453
C       -0.46310030       0.73370019      -0.52706287
C        0.59581672       1.37268515       0.06478042
N        1.66353652       0.49628261       0.07943922
C        1.18737694      -0.71145846      -0.25203999
N       -0.03769964      -0.57245019      -0.71988759
H       -2.21108714       0.06526514       0.77531204
H       -1.62864327      -1.52940286       0.55386977
H       -2.37812351      -0.69038059      -0.80289551
H        0.66803366       2.35459162       0.50123682
H        2.60285754       0.69106907       0.37592307
H        1.70572289      -1.64393357      -0.09354992
12
Frame=15 idx=001269 GeodesicLength=0.3658325276746016 rxn_smarts="[C:1]([c:2]1[c:3]([H:10])[n:4]([H:11])[c:5]([H:12])[n:6]1)([H:7])([H:8])[H:9]>>[C:1]([n+:6]1[c-:2][c:3]([H:10])[n:4]([H:11])[c:5]1[H:12])([H:7])([H:8])[H:9]"
C       -1.70861549      -0.56418529       0.04374622
C       -0.46094211       0.72890172      -0.51443261
C        0.59906355       1.37146587       0.06797554
N        1.67240991       0.50006011       0.06754474
C        1.19350187      -0.70991914      -0.25337226
N       -0.03397732      -0.57309058      -0.71151047
H       -2.23018761       0.06212303       0.76822763
H       -1.64336294      -1.52680003       0.55623756
H       -2.37704341      -0.69292980      -0.80838774
H        0.66805083       2.35031057       0.51164163
H        2.61287482       0.69688920       0.35820810
H        1.70822790      -1.64282566      -0.08587834
12
Frame=16 idx=001269 GeodesicLength=0.38998908336392213 rxn_smarts="[C:1]([c:2]1[c:3]([H:10])[n:4]([H:11])[c:5]([H:12])[n:6]1)([H:7])([H:8])[H:9]>>[C:1]([n+:6]1[c-:2][c:3]([H:10])[n:4]([H:11])[c:5]1[H:12])([H:7])([H:8])[H:9]"
C       -1.71267055      -0.56237763       0.04256580
C       -0.45869972       0.72396324      -0.50136521
C        0.60235968       1.37016642       0.07144545
N        1.68115621       0.50386086       0.05556740
C        1.19967388      -0.70842981      -0.25440135
N       -0.03020916      -0.57388412      -0.70265090
H       -2.24958004       0.05903913       0.76054798
H       -1.65855195      -1.52414599       0.55839872
H       -2.37574128      -0.69542733      -0.81414577
H        0.66818500       2.34559196       0.52292858
H        2.62319452       0.70317308       0.33856425
H        1.71088341      -1.64152980      -0.07745493
