14
Frame=0 idx=011691 GeodesicLength=0.0 rxn_smarts="[C:1]([c:2]1[c:3]([H:11])[o:4][c:5]([N:6]([H:12])[H:13])[c:7]1[H:14])([H:8])([H:9])[H:10]>>[C:1]([C:2]1=[C-:3][O+:4]=[C:5]([N:6]([H:12])[H:13])[C:7]1([H:11])[H:14])([H:8])([H:9])[H:10]"
C       -2.32867233       0.00441148      -0.11759004
C       -0.87634393      -0.34554454      -0.14917418
C       -0.30908791      -1.53105748      -0.59681481
O        1.08132034      -1.27479223      -0.54954665
C        1.39068873      -0.06165048      -0.12972568
N        2.70637111       0.28088373      -0.11381087
C        0.25244661       0.63699923       0.20492431
H       -2.62731085       0.48095878       0.81902975
H       -2.91219822      -0.90742304      -0.23869171
H       -2.58474444       0.68647092      -0.93167200
H       -0.28851853      -0.19386712       1.00182710
H        3.35687457      -0.48323994      -0.17936375
H        2.98236804       1.03867811       0.48282711
H        0.15680679       1.66917264       0.49778145
14
Frame=1 idx=011691 GeodesicLength=0.10726739956473602 rxn_smarts="[C:1]([c:2]1[c:3]([H:11])[o:4][c:5]([N:6]([H:12])[H:13])[c:7]1[H:14])([H:8])([H:9])[H:10]>>[C:1]([C:2]1=[C-:3][O+:4]=[C:5]([N:6]([H:12])[H:13])[C:7]1([H:11])[H:14])([H:8])([H:9])[H:10]"
C       -2.32855452       0.01218406      -0.12863160
C       -0.87685483      -0.33896344      -0.15509109
C       -0.31168651      -1.53992258      -0.55178680
O        1.08406762      -1.27349243      -0.55488802
C        1.39039191      -0.05979172      -0.13974245
N        2.70442530       0.28724355      -0.12513323
C        0.25126318       0.62547422       0.22906737
H       -2.63230371       0.48953871       0.80599105
H       -2.91429549      -0.89783917      -0.25308879
H       -2.57681026       0.69638364      -0.94344592
H       -0.28300498      -0.23870598       1.03115375
H        3.35866831      -0.47390882      -0.18872336
H        2.97811999       1.04986585       0.46644063
H        0.15657399       1.66193412       0.50787846
14
Frame=2 idx=011691 GeodesicLength=0.21420077623979472 rxn_smarts="[C:1]([c:2]1[c:3]([H:11])[o:4][c:5]([N:6]([H:12])[H:13])[c:7]1[H:14])([H:8])([H:9])[H:10]>>[C:1]([C:2]1=[C-:3][O+:4]=[C:5]([N:6]([H:12])[H:13])[C:7]1([H:11])[H:14])([H:8])([H:9])[H:10]"
C       -2.32811381       0.01952450      -0.13865505
C       -0.87698890      -0.33272144      -0.16040283
C       -0.31412190      -1.54571376      -0.51126222
O        1.08625631      -1.27254955      -0.55915823
C        1.38968226      -0.05792549      -0.14951809
N        2.70222033       0.29299663      -0.13548311
C        0.25013974       0.61424198       0.25170646
H       -2.63655684       0.49711255       0.79437405
H       -2.91570972      -0.88886769      -0.26673558
H       -2.56912731       0.70631936      -0.95357135
H       -0.27709341      -0.28325369       1.05974074
H        3.35988232      -0.46555195      -0.19559219
H        2.97331062       1.06097082       0.45039984
H        0.15622030       1.65541772       0.51415757
14
Frame=3 idx=011691 GeodesicLength=0.3210904795891401 rxn_smarts="[C:1]([c:2]1[c:3]([H:11])[o:4][c:5]([N:6]([H:12])[H:13])[c:7]1[H:14])([H:8])([H:9])[H:10]>>[C:1]([C:2]1=[C-:3][O+:4]=[C:5]([N:6]([H:12])[H:13])[C:7]1([H:11])[H:14])([H:8])([H:9])[H:10]"
C       -2.32744570       0.02656423      -0.14784067
C       -0.87683213      -0.32662807      -0.16555506
C       -0.31652168      -1.54911557      -0.47463185
O        1.08813535      -1.27202754      -0.56223134
C        1.38864357      -0.05612604      -0.15895728
N        2.69979893       0.29828680      -0.14498579
C        0.24904132       0.60331669       0.27283932
H       -2.64009764       0.50390203       0.78398204
H       -2.91660913      -0.88035008      -0.27961434
H       -2.56187980       0.71630609      -0.96229561
H       -0.27072902      -0.32765229       1.08763078
H        3.36068760      -0.45787246      -0.20038915
H        2.96799775       1.07203226       0.43465714
H        0.15581058       1.64936395       0.51739181
14
Frame=4 idx=011691 GeodesicLength=0.4280294140679809 rxn_smarts="[C:1]([c:2]1[c:3]([H:11])[o:4][c:5]([N:6]([H:12])[H:13])[c:7]1[H:14])([H:8])([H:9])[H:10]>>[C:1]([C:2]1=[C-:3][O+:4]=[C:5]([N:6]([H:12])[H:13])[C:7]1([H:11])[H:14])([H:8])([H:9])[H:10]"
C       -2.32660243       0.03340496      -0.15637624
C       -0.87645019      -0.32058067      -0.17080630
C       -0.31898198      -1.55067624      -0.44119796
O        1.08985658      -1.27193577      -0.56411744
C        1.38735192      -0.05447804      -0.16792653
N        2.69717407       0.30325293      -0.15377981
C        0.24792348       0.59270583       0.29251547
H       -2.64297865       0.51014252       0.77456521
H       -2.91712754      -0.87216145      -0.29174602
H       -2.55511711       0.72632031      -0.96992590
H       -0.26388635      -0.37200644       1.11491724
H        3.36119929      -0.45059465      -0.20366229
H        2.96224811       1.08304258       0.41922845
H        0.15539081       1.64356413       0.51831212
14
Frame=5 idx=011691 GeodesicLength=0.5352732663295758 rxn_smarts="[C:1]([c:2]1[c:3]([H:11])[o:4][c:5]([N:6]([H:12])[H:13])[c:7]1[H:14])([H:8])([H:9])[H:10]>>[C:1]([C:2]1=[C-:3][O+:4]=[C:5]([N:6]([H:12])[H:13])[C:7]1([H:11])[H:14])([H:8])([H:9])[H:10]"
C       -2.32564649       0.04009017      -0.16435850
C       -0.87586325      -0.31446313      -0.17648332
C       -0.32156354      -1.55074563      -0.41036922
O        1.09150757      -1.27217540      -0.56505356
C        1.38585674      -0.05294974      -0.17654178
N        2.69440462       0.30793136      -0.16187604
C        0.24672795       0.58247841       0.31065563
H       -2.64520282       0.51595458       0.76601188
H       -2.91735409      -0.86425578      -0.30305424
H       -2.54901649       0.73630453      -0.97662212
H       -0.25640984      -0.41637506       1.14165712
H        3.36149132      -0.44364485      -0.20552634
H        2.95609211       1.09391413       0.40422668
H        0.15497620       1.63793640       0.51733380
14
Frame=6 idx=011691 GeodesicLength=0.6426791832683809 rxn_smarts="[C:1]([c:2]1[c:3]([H:11])[o:4][c:5]([N:6]([H:12])[H:13])[c:7]1[H:14])([H:8])([H:9])[H:10]>>[C:1]([C:2]1=[C-:3][O+:4]=[C:5]([N:6]([H:12])[H:13])[C:7]1([H:11])[H:14])([H:8])([H:9])[H:10]"
C       -2.32460212       0.04667035      -0.17192615
C       -0.87511367      -0.30825069      -0.18267155
C       -0.32430178      -1.54961058      -0.38159436
O        1.09312817      -1.27273513      -0.56508546
C        1.38421127      -0.05158348      -0.18473568
N        2.69149679       0.31241200      -0.16938706
C        0.24541390       0.57266076       0.32733236
H       -2.64683786       0.52150952       0.75811473
H       -2.91736848      -0.85657983      -0.31358208
H       -2.54354584       0.74620490      -0.98264568
H       -0.24827858      -0.46083479       1.16794733
H        3.36162030      -0.43686368      -0.20646380
H        2.94959938       1.10459718       0.38972809
H        0.15457851       1.63240345       0.51496930
14
Frame=7 idx=011691 GeodesicLength=0.7503202941113676 rxn_smarts="[C:1]([c:2]1[c:3]([H:11])[o:4][c:5]([N:6]([H:12])[H:13])[c:7]1[H:14])([H:8])([H:9])[H:10]>>[C:1]([C:2]1=[C-:3][O+:4]=[C:5]([N:6]([H:12])[H:13])[C:7]1([H:11])[H:14])([H:8])([H:9])[H:10]"
C       -2.32349350       0.05316904      -0.17916008
C       -0.87421619      -0.30189297      -0.18954445
C       -0.32722192      -1.54743291      -0.35444492
O        1.09472213      -1.27354304      -0.56436057
C        1.38244746      -0.05036933      -0.19256536
N        2.68847893       0.31671323      -0.17634798
C        0.24393295       0.56329576       0.34255280
H       -2.64790093       0.52687112       0.75077722
H       -2.91722312      -0.84910605      -0.32333952
H       -2.53876334       0.75599382      -0.98812259
H       -0.23937284      -0.50548845       1.19387951
H        3.36160650      -0.43021420      -0.20657402
H        2.94280999       1.11505056       0.37574894
H        0.15419387       1.62695343       0.51150101
14
Frame=8 idx=011691 GeodesicLength=0.8581076546247068 rxn_smarts="[C:1]([c:2]1[c:3]([H:11])[o:4][c:5]([N:6]([H:12])[H:13])[c:7]1[H:14])([H:8])([H:9])[H:10]>>[C:1]([C:2]1=[C-:3][O+:4]=[C:5]([N:6]([H:12])[H:13])[C:7]1([H:11])[H:14])([H:8])([H:9])[H:10]"
C       -2.32233309       0.05961326      -0.18614714
C       -0.87319071      -0.29537807      -0.19718873
C       -0.33035051      -1.54433709      -0.32853570
O        1.09629060      -1.27458275      -0.56292542
C        1.38058352      -0.04930553      -0.20005033
N        2.68535212       0.32087702      -0.18281761
C        0.24224198       0.55439819       0.35637825
H       -2.64842731       0.53211315       0.74388308
H       -2.91695815      -0.84180357      -0.33237986
H       -2.53465451       0.76565591      -0.99319060
H       -0.22958190      -0.55043470       1.21955347
H        3.36147246      -0.42363711      -0.20611742
H        2.93574840       1.12522876       0.36236714
H        0.15380708       1.62159252       0.50717087
14
Frame=9 idx=011691 GeodesicLength=0.9655325173337646 rxn_smarts="[C:1]([c:2]1[c:3]([H:11])[o:4][c:5]([N:6]([H:12])[H:13])[c:7]1[H:14])([H:8])([H:9])[H:10]>>[C:1]([C:2]1=[C-:3][O+:4]=[C:5]([N:6]([H:12])[H:13])[C:7]1([H:11])[H:14])([H:8])([H:9])[H:10]"
C       -2.32111913       0.06602247      -0.19295213
C       -0.87205193      -0.28872861      -0.20539152
C       -0.33360328      -1.54043875      -0.30339945
O        1.09773385      -1.27570884      -0.56104119
C        1.37859947      -0.04831953      -0.20722967
N        2.68210949       0.32493308      -0.18886393
C        0.24037139       0.54599294       0.36893730
H       -2.64851361       0.53743317       0.73723835
H       -2.91655065      -0.83468327      -0.34069572
H       -2.53106911       0.77506540      -0.99807194
H       -0.21898028      -0.59591417       1.24490454
H        3.36117381      -0.41711550      -0.20529747
H        2.92847508       1.13508203       0.34959271
H        0.15342491       1.61637957       0.50227012
14
Frame=10 idx=011691 GeodesicLength=1.073114457368141 rxn_smarts="[C:1]([c:2]1[c:3]([H:11])[o:4][c:5]([N:6]([H:12])[H:13])[c:7]1[H:14])([H:8])([H:9])[H:10]>>[C:1]([C:2]1=[C-:3][O+:4]=[C:5]([N:6]([H:12])[H:13])[C:7]1([H:11])[H:14])([H:8])([H:9])[H:10]"
C       -2.31988191       0.07241230      -0.19960329
C       -0.87080737      -0.28189051      -0.21455772
C       -0.33710738      -1.53571474      -0.27896561
O        1.09912443      -1.27698273      -0.55863456
C        1.37653467      -0.04745217      -0.21415121
N        2.67877573       0.32887073      -0.19444248
C        0.23821276       0.53809303       0.38016978
H       -2.64809389       0.54269960       0.73093255
H       -2.91608930      -0.82768637      -0.34833885
H       -2.52820607       0.78434792      -1.00267361
H       -0.20718363      -0.64199802       1.27014161
H        3.36075442      -0.41066151      -0.20400031
H        2.92096427       1.14461976       0.33748815
H        0.15300327       1.61134270       0.49663556
14
Frame=11 idx=011691 GeodesicLength=1.1808504253369765 rxn_smarts="[C:1]([c:2]1[c:3]([H:11])[o:4][c:5]([N:6]([H:12])[H:13])[c:7]1[H:14])([H:8])([H:9])[H:10]>>[C:1]([C:2]1=[C-:3][O+:4]=[C:5]([N:6]([H:12])[H:13])[C:7]1([H:11])[H:14])([H:8])([H:9])[H:10]"
C       -2.31864097       0.07879577      -0.20613555
C       -0.86946275      -0.27484774      -0.22476726
C       -0.34087931      -1.53014607      -0.25499969
O        1.10041295      -1.27833605      -0.55582917
C        1.37438441      -0.04666788      -0.22087381
N        2.67536052       0.33267879      -0.19954681
C        0.23572027       0.53072394       0.39012055
H       -2.64719216       0.54792882       0.72492898
H       -2.91560202      -0.82079761      -0.35532959
H       -2.52609853       0.79350907      -1.00704674
H       -0.19394105      -0.68888836       1.29532948
H        3.36018690      -0.40431281      -0.20215745
H        2.91323992       1.15382760       0.32605496
H        0.15251182       1.60653253       0.49025210
14
Frame=12 idx=011691 GeodesicLength=1.288665944219127 rxn_smarts="[C:1]([c:2]1[c:3]([H:11])[o:4][c:5]([N:6]([H:12])[H:13])[c:7]1[H:14])([H:8])([H:9])[H:10]>>[C:1]([C:2]1=[C-:3][O+:4]=[C:5]([N:6]([H:12])[H:13])[C:7]1([H:11])[H:14])([H:8])([H:9])[H:10]"
C       -2.31739941       0.08518930      -0.21259278
C       -0.86803422      -0.26761025      -0.23603189
C       -0.34493431      -1.52370970      -0.23125961
O        1.10153832      -1.27971470      -0.55269959
C        1.37213490      -0.04594186      -0.22741938
N        2.67184896       0.33636957      -0.20418427
C        0.23285226       0.52390833       0.39884332
H       -2.64583651       0.55317936       0.71915320
H       -2.91510634      -0.81399715      -0.36168902
H       -2.52471732       0.80253012      -1.01127401
H       -0.17901501      -0.73680253       1.32052770
H        3.35944274      -0.39807658      -0.19986099
H        2.90530788       1.16266660       0.31538419
H        0.15191805       1.60200948       0.48310313
14
Frame=13 idx=011691 GeodesicLength=1.3965262405575096 rxn_smarts="[C:1]([c:2]1[c:3]([H:11])[o:4][c:5]([N:6]([H:12])[H:13])[c:7]1[H:14])([H:8])([H:9])[H:10]>>[C:1]([C:2]1=[C-:3][O+:4]=[C:5]([N:6]([H:12])[H:13])[C:7]1([H:11])[H:14])([H:8])([H:9])[H:10]"
C       -2.31617297       0.09161387      -0.21901372
C       -0.86653651      -0.26018858      -0.24832851
C       -0.34928950      -1.51634916      -0.20749808
O        1.10242747      -1.28104984      -0.54935230
C        1.36976369      -0.04523381      -0.23381311
N        2.66823344       0.33993916      -0.20835569
C        0.22956628       0.51768285       0.40640494
H       -2.64407853       0.55852234       0.71353070
H       -2.91462382      -0.80726267      -0.36743317
H       -2.52403720       0.81139424      -1.01544667
H       -0.16210589      -0.78604256       1.34574271
H        3.35847981      -0.39198200      -0.19707398
H        2.89718899       1.17112825       0.30546804
H        0.15118474       1.59782790       0.47516883
14
Frame=14 idx=011691 GeodesicLength=1.5043140204824914 rxn_smarts="[C:1]([c:2]1[c:3]([H:11])[o:4][c:5]([N:6]([H:12])[H:13])[c:7]1[H:14])([H:8])([H:9])[H:10]>>[C:1]([C:2]1=[C-:3][O+:4]=[C:5]([N:6]([H:12])[H:13])[C:7]1([H:11])[H:14])([H:8])([H:9])[H:10]"
C       -2.31496224       0.09809369      -0.22544829
C       -0.86499396      -0.25260940      -0.26158275
C       -0.35396316      -1.50801370      -0.18347122
O        1.10299577      -1.28229239      -0.54583929
C        1.36724215      -0.04452412      -0.24003759
N        2.66448191       0.34340273      -0.21207968
C        0.22582246       0.51207212       0.41290386
H       -2.64197678       0.56405112       0.70795516
H       -2.91416743      -0.80056474      -0.37259544
H       -2.52397629       0.82007673      -1.01967772
H       -0.14291799      -0.83690080       1.37097889
H        3.35725314      -0.38603351      -0.19388779
H        2.88888550       1.17919962       0.29634508
H        0.15027691       1.59404264       0.46643676
14
Frame=15 idx=011691 GeodesicLength=1.6119765776909731 rxn_smarts="[C:1]([c:2]1[c:3]([H:11])[o:4][c:5]([N:6]([H:12])[H:13])[c:7]1[H:14])([H:8])([H:9])[H:10]>>[C:1]([C:2]1=[C-:3][O+:4]=[C:5]([N:6]([H:12])[H:13])[C:7]1([H:11])[H:14])([H:8])([H:9])[H:10]"
C       -2.31378054       0.10465628      -0.23193482
C       -0.86343230      -0.24490305      -0.27566881
C       -0.35896570      -1.49862407      -0.15891599
O        1.10314459      -1.28336824      -0.54225510
C        1.36453545      -0.04377171      -0.24608099
N        2.66057233       0.34676014      -0.21535949
C        0.22158748       0.50712911       0.41843444
H       -2.63960694       0.56989548       0.70231462
H       -2.91375426      -0.79387769      -0.37717192
H       -2.52445565       0.82852990      -1.02409995
H       -0.12112034      -0.88978096       1.39615263
H        3.35570794      -0.38025774      -0.19028278
H        2.88040983       1.18688285       0.28799478
H        0.14915811       1.59072971       0.45687337
14
Frame=16 idx=011691 GeodesicLength=1.7194150029362378 rxn_smarts="[C:1]([c:2]1[c:3]([H:11])[o:4][c:5]([N:6]([H:12])[H:13])[c:7]1[H:14])([H:8])([H:9])[H:10]>>[C:1]([C:2]1=[C-:3][O+:4]=[C:5]([N:6]([H:12])[H:13])[C:7]1([H:11])[H:14])([H:8])([H:9])[H:10]"
C       -2.31263920       0.11133172      -0.23851262
C       -0.86188355      -0.23711499      -0.29039728
C       -0.36429939      -1.48809276      -0.13354631
O        1.10276821      -1.28420689      -0.53867162
C        1.36160607      -0.04293931      -0.25190523
N        2.65647497       0.35001910      -0.21820695
C        0.21683725       0.50291605       0.42311289
H       -2.63706145       0.57622555       0.69647158
H       -2.91339844      -0.78717600      -0.38114471
H       -2.52536350       0.83668295      -1.02887834
H       -0.09639821      -0.94511729       1.42110440
H        3.35379223      -0.37468165      -0.18628745
H        2.87177128       1.19419369       0.28040512
H        0.14779373       1.58795983       0.44645651
