16
Frame=0 idx=008597 GeodesicLength=0.0 rxn_smarts="[C:1]1([H:8])([H:9])[C@@:2]2([H:10])[C@@:3]3([H:11])[C:4]([H:12])([H:13])[C@:5]([H:14])([C:6]3([H:15])[H:16])[N:7]12>>[C-:1]([N+:7]1=[C:2]([H:10])[C@@:3]2([H:11])[C:4]([H:12])([H:13])[C@:5]1([H:14])[C:6]2([H:15])[H:16])([H:8])[H:9]"
C        1.88040527       0.98884525      -0.42805765
C        0.91046660      -0.52094868       0.68476219
C       -0.56427814      -0.54423772       0.99410617
C       -1.02429172      -1.22483912      -0.34492867
C       -0.46900064       0.07434142      -0.94493481
C       -1.02755471       0.78304666       0.32139626
N        0.97316756      -0.05805211      -0.57792071
H        2.68947693       1.09009713      -1.13932802
H        1.76069032       1.70002336       0.37508391
H        1.74422011      -0.99319782       1.17216777
H       -0.91047885      -0.87079001       1.96970538
H       -0.55486189      -2.16292289      -0.64087263
H       -2.10966869      -1.28103102      -0.40883656
H       -0.63538506       0.41245099      -1.96328798
H       -0.55180733       1.71268739       0.63029086
H       -2.11109983       0.89452723       0.30065454
16
Frame=1 idx=008597 GeodesicLength=0.03091740628208518 rxn_smarts="[C:1]1([H:8])([H:9])[C@@:2]2([H:10])[C@@:3]3([H:11])[C:4]([H:12])([H:13])[C@:5]([H:14])([C:6]3([H:15])[H:16])[N:7]12>>[C-:1]([N+:7]1=[C:2]([H:10])[C@@:3]2([H:11])[C:4]([H:12])([H:13])[C@:5]1([H:14])[C:6]2([H:15])[H:16])([H:8])[H:9]"
C        1.87935029       0.98185856      -0.42029825
C        0.91390926      -0.51396425       0.68602529
C       -0.56218111      -0.54188375       0.99303422
C       -1.02303866      -1.22388922      -0.34422677
C       -0.46884400       0.07667774      -0.94441352
C       -1.02912029       0.78370294       0.32105557
N        0.97353382      -0.06222812      -0.58343589
H        2.67993321       1.08697755      -1.14041702
H        1.76694978       1.70331954       0.37440017
H        1.74111631      -1.00098161       1.17058860
H       -0.90683458      -0.86824931       1.96934568
H       -0.55178838      -2.16143682      -0.63895672
H       -2.10825276      -1.28273890      -0.40994415
H       -0.63313487       0.41627326      -1.96263706
H       -0.55853807       1.71541154       0.63134696
H       -2.11305995       0.89115086       0.29853290
16
Frame=2 idx=008597 GeodesicLength=0.06184795224210998 rxn_smarts="[C:1]1([H:8])([H:9])[C@@:2]2([H:10])[C@@:3]3([H:11])[C:4]([H:12])([H:13])[C@:5]([H:14])([C:6]3([H:15])[H:16])[N:7]12>>[C-:1]([N+:7]1=[C:2]([H:10])[C@@:3]2([H:11])[C:4]([H:12])([H:13])[C@:5]1([H:14])[C:6]2([H:15])[H:16])([H:8])[H:9]"
C        1.87818064       0.97492543      -0.41275011
C        0.91733872      -0.50709511       0.68724927
C       -0.56008597      -0.53959946       0.99194810
C       -1.02179162      -1.22293747      -0.34356428
C       -0.46864507       0.07902857      -0.94385622
C       -1.03066987       0.78432065       0.32076526
N        0.97389119      -0.06637350      -0.58883446
H        2.67036571       1.08381494      -1.14141875
H        1.77346024       1.70648809       0.37344196
H        1.73784893      -1.00834209       1.16925615
H       -0.90320452      -0.86581629       1.96894728
H       -0.54875087      -2.15994050      -0.63712825
H       -2.10682747      -1.28441586      -0.41111423
H       -0.63084979       0.42015164      -1.96192566
H       -0.56528126       1.71804409       0.63253766
H       -2.11497902       0.88774689       0.29644626
16
Frame=3 idx=008597 GeodesicLength=0.09277931587454802 rxn_smarts="[C:1]1([H:8])([H:9])[C@@:2]2([H:10])[C@@:3]3([H:11])[C:4]([H:12])([H:13])[C@:5]([H:14])([C:6]3([H:15])[H:16])[N:7]12>>[C-:1]([N+:7]1=[C:2]([H:10])[C@@:3]2([H:11])[C:4]([H:12])([H:13])[C@:5]1([H:14])[C:6]2([H:15])[H:16])([H:8])[H:9]"
C        1.87688139       0.96808294      -0.40543790
C        0.92075765      -0.50032203       0.68842297
C       -0.55799194      -0.53738032       0.99084962
C       -1.02055641      -1.22198512      -0.34294210
C       -0.46842515       0.08139634      -0.94327092
C       -1.03221987       0.78489712       0.32052762
N        0.97422632      -0.07046712      -0.59413617
H        2.66088030       1.08053096      -1.14225682
H        1.78021960       1.70953707       0.37221808
H        1.73445723      -1.01526235       1.16813564
H       -0.89957985      -0.86349034       1.96851741
H       -0.54574843      -2.15842969      -0.63539574
H       -2.10540237      -1.28607435      -0.41233559
H       -0.62856666       0.42407629      -1.96116764
H       -0.57205453       1.72058459       0.63386236
H       -2.11687728       0.88430601       0.29440920
16
Frame=4 idx=008597 GeodesicLength=0.12370207655345532 rxn_smarts="[C:1]1([H:8])([H:9])[C@@:2]2([H:10])[C@@:3]3([H:11])[C:4]([H:12])([H:13])[C@:5]([H:14])([C:6]3([H:15])[H:16])[N:7]12>>[C-:1]([N+:7]1=[C:2]([H:10])[C@@:3]2([H:11])[C:4]([H:12])([H:13])[C@:5]1([H:14])[C:6]2([H:15])[H:16])([H:8])[H:9]"
C        1.87546782       0.96133896      -0.39835107
C        0.92416641      -0.49364132       0.68954923
C       -0.55590643      -0.53522334       0.98974138
C       -1.01933992      -1.22103912      -0.34236171
C       -0.46818678       0.08377742      -0.94265938
C       -1.03377842       0.78543670       0.32034523
N        0.97454619      -0.07450995      -0.59934600
H        2.65149426       1.07713547      -1.14295575
H        1.78723326       1.71246506       0.37074463
H        1.73096810      -1.02175207       1.16722252
H       -0.89597197      -0.86126446       1.96806152
H       -0.54278567      -2.15691687      -0.63376085
H       -2.10399047      -1.28772311      -0.41361341
H       -0.62628238       0.42804199      -1.96036607
H       -0.57886486       1.72304346       0.63532633
H       -2.11876915       0.88083117       0.29242337
16
Frame=5 idx=008597 GeodesicLength=0.15462524508973946 rxn_smarts="[C:1]1([H:8])([H:9])[C@@:2]2([H:10])[C@@:3]3([H:11])[C:4]([H:12])([H:13])[C@:5]([H:14])([C:6]3([H:15])[H:16])[N:7]12>>[C-:1]([N+:7]1=[C:2]([H:10])[C@@:3]2([H:11])[C:4]([H:12])([H:13])[C@:5]1([H:14])[C:6]2([H:15])[H:16])([H:8])[H:9]"
C        1.87393529       0.95469663      -0.39148271
C        0.92755969      -0.48704639       0.69063288
C       -0.55382976      -0.53312561       0.98862331
C       -1.01813721      -1.22009608      -0.34181993
C       -0.46793213       0.08617484      -0.94202031
C       -1.03534787       0.78593898       0.32021396
N        0.97484471      -0.07849856      -0.60446334
H        2.64220435       1.07361950      -1.14352583
H        1.79449763       1.71526307       0.36903200
H        1.72739038      -1.02782816       1.16650855
H       -0.89237703      -0.85913490       1.96757946
H       -0.53985515      -2.15539626      -0.63221524
H       -2.10258277      -1.28935970      -0.41494884
H       -0.62399624       0.43205395      -1.95951879
H       -0.58572016       1.72541884       0.63692306
H       -2.12065374       0.87731985       0.29048179
16
Frame=6 idx=008597 GeodesicLength=0.18555381554973455 rxn_smarts="[C:1]1([H:8])([H:9])[C@@:2]2([H:10])[C@@:3]3([H:11])[C:4]([H:12])([H:13])[C@:5]([H:14])([C:6]3([H:15])[H:16])[N:7]12>>[C-:1]([N+:7]1=[C:2]([H:10])[C@@:3]2([H:11])[C:4]([H:12])([H:13])[C@:5]1([H:14])[C:6]2([H:15])[H:16])([H:8])[H:9]"
C        1.87228670       0.94816076      -0.38482589
C        0.93093479      -0.48052869       0.69167829
C       -0.55176461      -0.53108255       0.98749632
C       -1.01694741      -1.21915592      -0.34131418
C       -0.46766384       0.08858879      -0.94135345
C       -1.03693290       0.78640466       0.32013105
N        0.97511986      -0.08242926      -0.60948943
H        2.63301435       1.06997860      -1.14397292
H        1.80201545       1.71792415       0.36709309
H        1.72373632      -1.03350828       1.16597742
H       -0.88879589      -0.85709390       1.96707322
H       -0.53695146      -2.15386551      -0.63075498
H       -2.10117813      -1.29098770      -0.41633979
H       -0.62170821       0.43611347      -1.95862472
H       -0.59262895       1.72771362       0.63864543
H       -2.12253607       0.87376775       0.28858054
16
Frame=7 idx=008597 GeodesicLength=0.216482458846738 rxn_smarts="[C:1]1([H:8])([H:9])[C@@:2]2([H:10])[C@@:3]3([H:11])[C:4]([H:12])([H:13])[C@:5]([H:14])([C:6]3([H:15])[H:16])[N:7]12>>[C-:1]([N+:7]1=[C:2]([H:10])[C@@:3]2([H:11])[C:4]([H:12])([H:13])[C@:5]1([H:14])[C:6]2([H:15])[H:16])([H:8])[H:9]"
C        1.87051896       0.94174300      -0.37837830
C        0.93429017      -0.47408279       0.69268479
C       -0.54971161      -0.52909129       0.98636151
C       -1.01577076      -1.21821924      -0.34084332
C       -0.46738731       0.09102022      -0.94066100
C       -1.03853806       0.78683566       0.32009541
N        0.97536844      -0.08629680      -0.61443042
H        2.62395151       1.06619860      -1.14429249
H        1.80978011       1.72044589       0.36494017
H        1.72002332      -1.03880134       1.16561746
H       -0.88522851      -0.85513965       1.96654487
H       -0.53407321      -2.15232609      -0.62937771
H       -2.09977681      -1.29261064      -0.41778312
H       -0.61942763       0.44021698      -1.95768805
H       -0.59959780       1.72993083       0.64049093
H       -2.12442080       0.87017666       0.28671927
16
Frame=8 idx=008597 GeodesicLength=0.24739684323803096 rxn_smarts="[C:1]1([H:8])([H:9])[C@@:2]2([H:10])[C@@:3]3([H:11])[C:4]([H:12])([H:13])[C@:5]([H:14])([C:6]3([H:15])[H:16])[N:7]12>>[C-:1]([N+:7]1=[C:2]([H:10])[C@@:3]2([H:11])[C:4]([H:12])([H:13])[C@:5]1([H:14])[C:6]2([H:15])[H:16])([H:8])[H:9]"
C        1.86864143       0.93545587      -0.37213578
C        0.93762816      -0.46770290       0.69365092
C       -0.54767558      -0.52715016       0.98521885
C       -1.01461218      -1.21729162      -0.34040516
C       -0.46710764       0.09346888      -0.93994238
C       -1.04017150       0.78723583       0.32010674
N        0.97559303      -0.09009679      -0.61929033
H        2.61504898       1.06227765      -1.14448304
H        1.81779581       1.72283327       0.36258028
H        1.71626952      -1.04372115       1.16541310
H       -0.88168272      -0.85327207       1.96599318
H       -0.53122187      -2.15078697      -0.62807996
H       -2.09838868      -1.29423817      -0.41927433
H       -0.61716181       0.44435969      -1.95670811
H       -0.60663386       1.73207902       0.64245720
H       -2.12632108       0.86654961       0.28489881
16
Frame=9 idx=008597 GeodesicLength=0.2783216166471852 rxn_smarts="[C:1]1([H:8])([H:9])[C@@:2]2([H:10])[C@@:3]3([H:11])[C:4]([H:12])([H:13])[C@:5]([H:14])([C:6]3([H:15])[H:16])[N:7]12>>[C-:1]([N+:7]1=[C:2]([H:10])[C@@:3]2([H:11])[C:4]([H:12])([H:13])[C@:5]1([H:14])[C:6]2([H:15])[H:16])([H:8])[H:9]"
C        1.86664368       0.92928898      -0.36608420
C        0.94093767      -0.46138397       0.69458441
C       -0.54565088      -0.52525136       0.98406954
C       -1.01346134      -1.21635981      -0.33999796
C       -0.46682058       0.09593580      -0.93919960
C       -1.04182416       0.78760030       0.32015871
N        0.97578689      -0.09382779      -0.62406862
H        2.60626491       1.05821565      -1.14456082
H        1.82603384       1.72505824       0.36003251
H        1.71247826      -1.04828245       1.16535748
H       -0.87814588      -0.85147864       1.96542107
H       -0.52839082      -2.14922902      -0.62685029
H       -2.09699261      -1.29585458      -0.42081836
H       -0.61490473       0.44854094      -1.95568873
H       -0.61373731       1.73414524       0.64453650
H       -2.12821693       0.86288248       0.28310835
16
Frame=10 idx=008597 GeodesicLength=0.30925126943871184 rxn_smarts="[C:1]1([H:8])([H:9])[C@@:2]2([H:10])[C@@:3]3([H:11])[C:4]([H:12])([H:13])[C@:5]([H:14])([C:6]3([H:15])[H:16])[N:7]12>>[C-:1]([N+:7]1=[C:2]([H:10])[C@@:3]2([H:11])[C:4]([H:12])([H:13])[C@:5]1([H:14])[C:6]2([H:15])[H:16])([H:8])[H:9]"
C        1.86451124       0.92325871      -0.36023212
C        0.94422161      -0.45511910       0.69547658
C       -0.54363549      -0.52339470       0.98291219
C       -1.01232051      -1.21542567      -0.33962121
C       -0.46653903       0.09842009      -0.93843390
C       -1.04350136       0.78792659       0.32025294
N        0.97593758      -0.09748209      -0.62877450
H        2.59765835       1.05398731      -1.14449258
H        1.83450381       1.72712727       0.35729667
H        1.70865194      -1.05247289       1.16544062
H       -0.87461535      -0.84975668       1.96482792
H       -0.52558078      -2.14764975      -0.62569639
H       -2.09559130      -1.29746643      -0.42240896
H       -0.61267608       0.45275323      -1.95463150
H       -0.62090976       1.73612480       0.64672899
H       -2.13011489       0.85916931       0.28135524
16
Frame=11 idx=008597 GeodesicLength=0.34016031409853037 rxn_smarts="[C:1]1([H:8])([H:9])[C@@:2]2([H:10])[C@@:3]3([H:11])[C:4]([H:12])([H:13])[C@:5]([H:14])([C:6]3([H:15])[H:16])[N:7]12>>[C-:1]([N+:7]1=[C:2]([H:10])[C@@:3]2([H:11])[C:4]([H:12])([H:13])[C@:5]1([H:14])[C:6]2([H:15])[H:16])([H:8])[H:9]"
C        1.86227454       0.91737218      -0.35457083
C        0.94748207      -0.44890569       0.69633268
C       -0.54164082      -0.52158127       0.98174920
C       -1.01119730      -1.21450075      -0.33927353
C       -0.46626287       0.10092354      -0.93764494
C       -1.04521642       0.78822459       0.32039022
N        0.97606074      -0.10106013      -0.63341011
H        2.58924381       1.04959794      -1.14430552
H        1.84320807       1.72904807       0.35438190
H        1.70482492      -1.05631330       1.16565661
H       -0.87110848      -0.84811039       1.96421652
H       -0.52279243      -2.14607067      -0.62461647
H       -2.09420209      -1.29908762      -0.42404459
H       -0.61047150       0.45700440      -1.95353558
H       -0.62816455       1.73803861       0.64903549
H       -2.13203768       0.85542047       0.27963894
16
Frame=12 idx=008597 GeodesicLength=0.37106502031250194 rxn_smarts="[C:1]1([H:8])([H:9])[C@@:2]2([H:10])[C@@:3]3([H:11])[C:4]([H:12])([H:13])[C@:5]([H:14])([C:6]3([H:15])[H:16])[N:7]12>>[C-:1]([N+:7]1=[C:2]([H:10])[C@@:3]2([H:11])[C:4]([H:12])([H:13])[C@:5]1([H:14])[C:6]2([H:15])[H:16])([H:8])[H:9]"
C        1.85992801       0.91162558      -0.34908797
C        0.95071423      -0.44273518       0.69715976
C       -0.53966507      -0.51980481       0.98058143
C       -1.01008523      -1.21357831      -0.33895336
C       -0.46599107       0.10344632      -0.93683194
C       -1.04696584       0.78849194       0.32056694
N        0.97615065      -0.10456040      -0.63797224
H        2.58099932       1.04505502      -1.14401668
H        1.85214728       1.73080698       0.35129913
H        1.70098842      -1.05982229       1.16599799
H       -0.86762090      -0.84653415       1.96358638
H       -0.52001869      -2.14447976      -0.62360318
H       -2.09281300      -1.30071347      -0.42572605
H       -0.60828870       0.46129117      -1.95240085
H       -0.63550261       1.73988039       0.65144863
H       -2.13397679       0.85163097       0.27795199
16
Frame=13 idx=008597 GeodesicLength=0.4019618461732123 rxn_smarts="[C:1]1([H:8])([H:9])[C@@:2]2([H:10])[C@@:3]3([H:11])[C:4]([H:12])([H:13])[C@:5]([H:14])([C:6]3([H:15])[H:16])[N:7]12>>[C-:1]([N+:7]1=[C:2]([H:10])[C@@:3]2([H:11])[C:4]([H:12])([H:13])[C@:5]1([H:14])[C:6]2([H:15])[H:16])([H:8])[H:9]"
C        1.85747082       0.90602480      -0.34378053
C        0.95391716      -0.43660324       0.69795708
C       -0.53770845      -0.51806336       0.97940946
C       -1.00898484      -1.21265865      -0.33865905
C       -0.46572763       0.10598835      -0.93599611
C       -1.04875236       0.78872904       0.32078216
N        0.97620508      -0.10797920      -0.64246577
H        2.57294099       1.04035132      -1.14362148
H        1.86131757       1.73240045       0.34805773
H        1.69715280      -1.06300376       1.16645597
H       -0.86415175      -0.84502534       1.96293894
H       -0.51725915      -2.14287623      -0.62265800
H       -2.09142461      -1.30234549      -0.42744932
H       -0.60613360       0.46560900      -1.95123010
H       -0.64292723       1.74165073       0.65396448
H       -2.13593480       0.84780156       0.27629455
16
Frame=14 idx=008597 GeodesicLength=0.43284808636758126 rxn_smarts="[C:1]1([H:8])([H:9])[C@@:2]2([H:10])[C@@:3]3([H:11])[C:4]([H:12])([H:13])[C@:5]([H:14])([C:6]3([H:15])[H:16])[N:7]12>>[C-:1]([N+:7]1=[C:2]([H:10])[C@@:3]2([H:11])[C:4]([H:12])([H:13])[C@:5]1([H:14])[C:6]2([H:15])[H:16])([H:8])[H:9]"
C        1.85490307       0.90057447      -0.33864559
C        0.95709015      -0.43050548       0.69872363
C       -0.53577068      -0.51635508       0.97823334
C       -1.00789644      -1.21174160      -0.33838922
C       -0.46547600       0.10854988      -0.93513811
C       -1.05057780       0.78893610       0.32103523
N        0.97622244      -0.11131255      -0.64689471
H        2.56508261       1.03547761      -1.14311087
H        1.87071016       1.73382513       0.34466139
H        1.69332815      -1.06586050       1.16702211
H       -0.86069965      -0.84358195       1.96227451
H       -0.51451354      -2.14125830      -0.62178307
H       -2.09003727      -1.30398458      -0.42921048
H       -0.60401167       0.46995408      -1.95002495
H       -0.65044027       1.74334981       0.65657952
H       -2.13791327       0.84393294       0.27466728
16
Frame=15 idx=008597 GeodesicLength=0.4637266270724941 rxn_smarts="[C:1]1([H:8])([H:9])[C@@:2]2([H:10])[C@@:3]3([H:11])[C:4]([H:12])([H:13])[C@:5]([H:14])([C:6]3([H:15])[H:16])[N:7]12>>[C-:1]([N+:7]1=[C:2]([H:10])[C@@:3]2([H:11])[C:4]([H:12])([H:13])[C@:5]1([H:14])[C:6]2([H:15])[H:16])([H:8])[H:9]"
C        1.85222929       0.89527324      -0.33367422
C        0.96023093      -0.42443637       0.69946524
C       -0.53385459      -0.51467779       0.97705419
C       -1.00681903      -1.21082757      -0.33814287
C       -0.46523610       0.11113052      -0.93425770
C       -1.05244450       0.78911360       0.32132424
N        0.97620299      -0.11456190      -0.65125804
H        2.55740922       1.03044813      -1.14250902
H        1.88033782       1.73507104       0.34112331
H        1.68951658      -1.06840662       1.16769364
H       -0.85726692      -0.84219897       1.96159536
H       -0.51177787      -2.13962719      -0.62097008
H       -2.08864930      -1.30563245      -0.43101364
H       -0.60191843       0.47433005      -1.94878447
H       -0.65804568       1.74497799       0.65929033
H       -2.13991438       0.84002430       0.27306372
16
Frame=16 idx=008597 GeodesicLength=0.4946011409147465 rxn_smarts="[C:1]1([H:8])([H:9])[C@@:2]2([H:10])[C@@:3]3([H:11])[C:4]([H:12])([H:13])[C@:5]([H:14])([C:6]3([H:15])[H:16])[N:7]12>>[C-:1]([N+:7]1=[C:2]([H:10])[C@@:3]2([H:11])[C:4]([H:12])([H:13])[C@:5]1([H:14])[C:6]2([H:15])[H:16])([H:8])[H:9]"
C        1.84945703       0.89011771      -0.32885793
C        0.96333849      -0.41838994       0.70018810
C       -0.53196151      -0.51302848       0.97587348
C       -1.00575030      -1.20991551      -0.33791897
C       -0.46500665       0.11373168      -0.93335360
C       -1.05435368       0.78926293       0.32164848
N        0.97614813      -0.11772750      -0.65555386
H        2.54991055       1.02526983      -1.14183151
H        1.89020216       1.73613450       0.33744286
H        1.68571652      -1.07065738       1.16846804
H       -0.85385621      -0.84087596       1.96090149
H       -0.50904832      -2.13798186      -0.62021531
H       -2.08725788      -1.30728958      -0.43286056
H       -0.59985047       0.47873882      -1.94750739
H       -0.66574861       1.74653695       0.66209630
H       -2.14193925       0.83607380       0.27148038
