17
Frame=0 idx=006913 GeodesicLength=0.0 rxn_smarts="[C:1]([C@@:2]1([H:11])[O:3][C:4]([H:12])([H:13])[C@@:5]2([H:14])[C:6]([H:15])([H:16])[C@@:7]12[H:17])([H:8])([H:9])[H:10]>>[C:1]([C@@:2]1([H:11])[O:3][C:4]([H:12])([H:13])[C:6]([H:15])([H:16])[C@@:7]1([C:5][H:14])[H:17])([H:8])([H:9])[H:10]"
C       -2.03264975      -0.55048180       0.22384834
C       -0.85037254      -0.09057162      -0.60158322
O       -0.52016112       1.26830355      -0.22719936
C        0.83301047       1.46888338       0.04939929
C        1.47768277      -0.04582829      -1.09552018
C        1.09216767      -0.22642145       0.77442611
C        0.45057826      -0.86453576      -0.39985355
H       -2.85773184       0.15497697       0.12173063
H       -1.77806907      -0.62525635       1.28303992
H       -2.37566835      -1.52836633      -0.12103412
H       -1.10713517      -0.09080882      -1.66448901
H        1.34171583       2.08826587      -0.68184553
H        0.94141639       1.96208562       1.02123786
H        2.49272802      -0.42031410      -0.90546863
H        0.43600258       0.07211517       1.58162563
H        2.03155641      -0.62708723       1.13055412
H        0.42492943      -1.94495878      -0.48886834
17
Frame=1 idx=006913 GeodesicLength=0.058299862677992566 rxn_smarts="[C:1]([C@@:2]1([H:11])[O:3][C:4]([H:12])([H:13])[C@@:5]2([H:14])[C:6]([H:15])([H:16])[C@@:7]12[H:17])([H:8])([H:9])[H:10]>>[C:1]([C@@:2]1([H:11])[O:3][C:4]([H:12])([H:13])[C:6]([H:15])([H:16])[C@@:7]1([C:5][H:14])[H:17])([H:8])([H:9])[H:10]"
C       -2.03972161      -0.55320859       0.21534006
C       -0.85103722      -0.08460204      -0.59547357
O       -0.52765287       1.26973752      -0.20637765
C        0.83034352       1.47169552       0.04866980
C        1.48399789      -0.05254674      -1.07832242
C        1.10378250      -0.22336752       0.77727038
C        0.44668598      -0.86250311      -0.39177342
H       -2.86555403       0.15127773       0.11236771
H       -1.79291297      -0.63655121       1.27569395
H       -2.37937543      -1.52801089      -0.14130194
H       -1.09900429      -0.07385046      -1.66081506
H        1.31907190       2.09339643      -0.69541686
H        0.94983037       1.97767158       1.01248112
H        2.49510333      -0.44810144      -0.91801753
H        0.45702463       0.05953199       1.59738728
H        2.05174582      -0.61708637       1.12045590
H        0.41767249      -1.94348243      -0.47216778
17
Frame=2 idx=006913 GeodesicLength=0.11652821746720743 rxn_smarts="[C:1]([C@@:2]1([H:11])[O:3][C:4]([H:12])([H:13])[C@@:5]2([H:14])[C:6]([H:15])([H:16])[C@@:7]12[H:17])([H:8])([H:9])[H:10]>>[C:1]([C@@:2]1([H:11])[O:3][C:4]([H:12])([H:13])[C:6]([H:15])([H:16])[C@@:7]1([C:5][H:14])[H:17])([H:8])([H:9])[H:10]"
C       -2.04675461      -0.55587739       0.20657585
C       -0.85160357      -0.07861535      -0.58913292
O       -0.53498799       1.27093955      -0.18504160
C        0.82758827       1.47444199       0.04797544
C        1.49031869      -0.05927398      -1.06106808
C        1.11555528      -0.22025037       0.78031432
C        0.44296763      -0.86033219      -0.38339301
H       -2.87325668       0.14771213       0.10262194
H       -1.80802308      -0.64796263       1.26801996
H       -2.38281621      -1.52745937      -0.16196592
H       -1.09060773      -0.05674001      -1.65675810
H        1.29601841       2.09788057      -0.70888975
H        0.95816364       1.99349427       1.00323090
H        2.49630505      -0.47582964      -0.93112092
H        0.47870210       0.04666381       1.61324216
H        2.07186854      -0.60698898       1.11040834
H        0.41056226      -1.94180243      -0.45501860
17
Frame=3 idx=006913 GeodesicLength=0.17468465361508834 rxn_smarts="[C:1]([C@@:2]1([H:11])[O:3][C:4]([H:12])([H:13])[C@@:5]2([H:14])[C:6]([H:15])([H:16])[C@@:7]12[H:17])([H:8])([H:9])[H:10]>>[C:1]([C@@:2]1([H:11])[O:3][C:4]([H:12])([H:13])[C:6]([H:15])([H:16])[C@@:7]1([C:5][H:14])[H:17])([H:8])([H:9])[H:10]"
C       -2.05374420      -0.55845391       0.19756942
C       -0.85208402      -0.07263159      -0.58258560
O       -0.54215788       1.27190139      -0.16326739
C        0.82473487       1.47711023       0.04732377
C        1.49664970      -0.06602997      -1.04378572
C        1.12749337      -0.21709382       0.78355636
C        0.43943484      -0.85805385      -0.37473675
H       -2.88084147       0.14433217       0.09249396
H       -1.82337966      -0.65940454       1.26004026
H       -2.38597514      -1.52670551      -0.18295811
H       -1.08198524      -0.03954114      -1.65234742
H        1.27259296       2.10170569      -0.72221514
H        0.96632387       2.00954135       0.99350823
H        2.49633824      -0.50335762      -0.94472991
H        0.50104975       0.03347946       1.62916769
H        2.09193033      -0.59684474       1.10042516
H        0.40361969      -1.93995360      -0.43745880
17
Frame=4 idx=006913 GeodesicLength=0.23266198325938492 rxn_smarts="[C:1]([C@@:2]1([H:11])[O:3][C:4]([H:12])([H:13])[C@@:5]2([H:14])[C:6]([H:15])([H:16])[C@@:7]12[H:17])([H:8])([H:9])[H:10]>>[C:1]([C@@:2]1([H:11])[O:3][C:4]([H:12])([H:13])[C:6]([H:15])([H:16])[C@@:7]1([C:5][H:14])[H:17])([H:8])([H:9])[H:10]"
C       -2.06063637      -0.56093697       0.18832748
C       -0.85245142      -0.06667563      -0.57582002
O       -0.54906368       1.27256025      -0.14112903
C        0.82179502       1.47966320       0.04669740
C        1.50296703      -0.07279626      -1.02645198
C        1.13952328      -0.21389038       0.78695441
C        0.43604906      -0.85564520      -0.36579303
H       -2.88819127       0.14110653       0.08197675
H       -1.83894188      -0.67083668       1.25168912
H       -2.38882591      -1.52573243      -0.20416446
H       -1.07311015      -0.02230821      -1.64750380
H        1.24886321       2.10488496      -0.73528981
H        0.97427287       2.02569703       0.98321489
H        2.49514504      -0.53050711      -0.95880379
H        0.52403280       0.01996472       1.64511205
H        2.11180079      -0.58666766       1.09046697
H        0.39677158      -1.93788017      -0.41948314
17
Frame=5 idx=006913 GeodesicLength=0.2905936386634296 rxn_smarts="[C:1]([C@@:2]1([H:11])[O:3][C:4]([H:12])([H:13])[C@@:5]2([H:14])[C:6]([H:15])([H:16])[C@@:7]12[H:17])([H:8])([H:9])[H:10]>>[C:1]([C@@:2]1([H:11])[O:3][C:4]([H:12])([H:13])[C:6]([H:15])([H:16])[C@@:7]1([C:5][H:14])[H:17])([H:8])([H:9])[H:10]"
C       -2.06749063      -0.56327249       0.17886742
C       -0.85275706      -0.06075850      -0.56889308
O       -0.55578449       1.27296191      -0.11869293
C        0.81874009       1.48211458       0.04612063
C        1.50931400      -0.07963151      -1.00914797
C        1.15172731      -0.21067816       0.79055398
C        0.43286763      -0.85317329      -0.35660778
H       -2.89543853       0.13814455       0.07107971
H       -1.85472865      -0.68216194       1.24306425
H       -2.39139944      -1.52453697      -0.22558026
H       -1.06407801      -0.00509990      -1.64236343
H        1.22481879       2.10742276      -0.74812835
H        0.98189198       2.04201513       0.97246613
H        2.49284519      -0.55722594      -0.97332940
H        0.54772112       0.00609025       1.66113063
H        2.13162577      -0.57652829       1.08060867
H        0.39012491      -1.93568217      -0.40114821
17
Frame=6 idx=006913 GeodesicLength=0.34831448886599353 rxn_smarts="[C:1]([C@@:2]1([H:11])[O:3][C:4]([H:12])([H:13])[C@@:5]2([H:14])[C:6]([H:15])([H:16])[C@@:7]12[H:17])([H:8])([H:9])[H:10]>>[C:1]([C@@:2]1([H:11])[O:3][C:4]([H:12])([H:13])[C:6]([H:15])([H:16])[C@@:7]1([C:5][H:14])[H:17])([H:8])([H:9])[H:10]"
C       -2.07421858      -0.56547100       0.16921827
C       -0.85297592      -0.05488821      -0.56178582
O       -0.56228781       1.27309346      -0.09603914
C        0.81560284       1.48442249       0.04557420
C        1.51559541      -0.08648484      -0.99185077
C        1.16403035      -0.20746399       0.79427440
C        0.42983219      -0.85062062      -0.34719375
H       -2.90242843       0.13544204       0.05987950
H       -1.87065385      -0.69341271       1.23413995
H       -2.39361374      -1.52312264      -0.24714065
H       -1.05485860       0.01207487      -1.63684881
H        1.20059168       2.10924692      -0.76073761
H        0.98914387       2.05843593       0.96123595
H        2.48937600      -0.58334533      -0.98804484
H        0.57201918      -0.00818450       1.67700705
H        2.15126515      -0.56640806       1.07076736
H        0.38358026      -1.93331382      -0.38245529
17
Frame=7 idx=006913 GeodesicLength=0.40590688044902545 rxn_smarts="[C:1]([C@@:2]1([H:11])[O:3][C:4]([H:12])([H:13])[C@@:5]2([H:14])[C:6]([H:15])([H:16])[C@@:7]12[H:17])([H:8])([H:9])[H:10]>>[C:1]([C@@:2]1([H:11])[O:3][C:4]([H:12])([H:13])[C:6]([H:15])([H:16])[C@@:7]1([C:5][H:14])[H:17])([H:8])([H:9])[H:10]"
C       -2.08083158      -0.56751016       0.15935567
C       -0.85308413      -0.04910419      -0.55449299
O       -0.56843564       1.27287370      -0.07319217
C        0.81237767       1.48658372       0.04506563
C        1.52184282      -0.09340631      -0.97453664
C        1.17642089      -0.20423529       0.79814011
C        0.42694272      -0.84800801      -0.33749227
H       -2.90913968       0.13297915       0.04825862
H       -1.88675378      -0.70448750       1.22484652
H       -2.39553126      -1.52144907      -0.26879700
H       -1.04543166       0.02912309      -1.63092392
H        1.17611483       2.11045791      -0.77295572
H        0.99599740       2.07490197       0.94943001
H        2.48466948      -0.60872553      -1.00318230
H        0.59702295      -0.02287852       1.69283786
H        2.17069475      -0.55632469       1.06096864
H        0.37712424      -1.93079027      -0.36333003
17
Frame=8 idx=006913 GeodesicLength=0.4634789777329213 rxn_smarts="[C:1]([C@@:2]1([H:11])[O:3][C:4]([H:12])([H:13])[C@@:5]2([H:14])[C:6]([H:15])([H:16])[C@@:7]12[H:17])([H:8])([H:9])[H:10]>>[C:1]([C@@:2]1([H:11])[O:3][C:4]([H:12])([H:13])[C:6]([H:15])([H:16])[C@@:7]1([C:5][H:14])[H:17])([H:8])([H:9])[H:10]"
C       -2.08739379      -0.56934863       0.14930769
C       -0.85315137      -0.04340163      -0.54707775
O       -0.57437673       1.27238793      -0.05022272
C        0.80903946       1.48860997       0.04460881
C        1.52809678      -0.10043780      -0.95730077
C        1.18898024      -0.20102579       0.80219111
C        0.42425047      -0.84538459      -0.32756640
H       -2.91572068       0.13086561       0.03628133
H       -1.90303602      -0.71534049       1.21530319
H       -2.39717674      -1.51952362      -0.29056191
H       -1.03591214       0.04601614      -1.62474633
H        1.15141515       2.11104880      -0.78486101
H        1.00234544       2.09144660       0.93719058
H        2.47893623      -0.63338213      -1.01865275
H        0.62276920      -0.03800901       1.70866500
H        2.19007522      -0.54633589       1.05128387
H        0.37085930      -1.92818547      -0.34384194
17
Frame=9 idx=006913 GeodesicLength=0.5208709149625332 rxn_smarts="[C:1]([C@@:2]1([H:11])[O:3][C:4]([H:12])([H:13])[C@@:5]2([H:14])[C:6]([H:15])([H:16])[C@@:7]12[H:17])([H:8])([H:9])[H:10]>>[C:1]([C@@:2]1([H:11])[O:3][C:4]([H:12])([H:13])[C:6]([H:15])([H:16])[C@@:7]1([C:5][H:14])[H:17])([H:8])([H:9])[H:10]"
C       -2.09379728      -0.57100357       0.13910052
C       -0.85312943      -0.03779833      -0.53951374
O       -0.58001551       1.27159390      -0.02722797
C        0.80563268       1.49045011       0.04418114
C        1.53426834      -0.10751753      -0.94007678
C        1.20158565      -0.19782798       0.80634394
C        0.42167474      -0.84271555      -0.31739694
H       -2.92196872       0.12904714       0.02396794
H       -1.91941722      -0.72595740       1.20545094
H       -2.39846282      -1.51735720      -0.31230583
H       -1.02623411       0.06271464      -1.61820663
H        1.12664517       2.11097684      -0.79638373
H        1.00815073       2.10796363       0.92444178
H        2.47207358      -0.65709502      -1.03432479
H        0.64915737      -0.05364091       1.72428685
H        2.20919537      -0.53641436       1.04162526
H        0.36464147      -1.92541841      -0.32396197
17
Frame=10 idx=006913 GeodesicLength=0.5781274112999415 rxn_smarts="[C:1]([C@@:2]1([H:11])[O:3][C:4]([H:12])([H:13])[C@@:5]2([H:14])[C:6]([H:15])([H:16])[C@@:7]12[H:17])([H:8])([H:9])[H:10]>>[C:1]([C@@:2]1([H:11])[O:3][C:4]([H:12])([H:13])[C:6]([H:15])([H:16])[C@@:7]1([C:5][H:14])[H:17])([H:8])([H:9])[H:10]"
C       -2.10007420      -0.57244641       0.12875195
C       -0.85305417      -0.03231243      -0.53185448
O       -0.58538849       1.27052616      -0.00429461
C        0.80213932       1.49212662       0.04380742
C        1.54037888      -0.11467399      -0.92291918
C        1.21428132      -0.19465246       0.81060777
C        0.41924812      -0.84003511      -0.30703883
H       -2.92796299       0.12756500       0.01133720
H       -1.93588070      -0.73624008       1.19534336
H       -2.39942784      -1.51496794      -0.33398103
H       -1.01647442       0.07913425      -1.61139687
H        1.10180402       2.11032035      -0.80748557
H        1.01335126       2.12444105       0.91128861
H        2.46416293      -0.67990080      -1.05011990
H        0.67622661      -0.06974282       1.73969922
H        2.22813447      -0.52659822       1.03203414
H        0.35853588      -1.92254317      -0.30377920
17
Frame=11 idx=006913 GeodesicLength=0.635374035122068 rxn_smarts="[C:1]([C@@:2]1([H:11])[O:3][C:4]([H:12])([H:13])[C@@:5]2([H:14])[C:6]([H:15])([H:16])[C@@:7]12[H:17])([H:8])([H:9])[H:10]>>[C:1]([C@@:2]1([H:11])[O:3][C:4]([H:12])([H:13])[C:6]([H:15])([H:16])[C@@:7]1([C:5][H:14])[H:17])([H:8])([H:9])[H:10]"
C       -2.10626812      -0.57364843       0.11826162
C       -0.85295380      -0.02694220      -0.52412776
O       -0.59054108       1.26922252       0.01855616
C        0.79853986       1.49365049       0.04348737
C        1.54647371      -0.12196504      -0.90585544
C        1.22710057      -0.19151583       0.81504087
C        0.41699361      -0.83738311      -0.29647153
H       -2.93377766       0.12648377      -0.00162491
H       -1.95245478      -0.74616824       1.18502417
H       -2.40010985      -1.51233949      -0.35561677
H       -1.00667845       0.09526040      -1.60440603
H        1.07686770       2.10910355      -0.81818511
H        1.01787280       2.14090524       0.89774577
H        2.45532444      -0.70175750      -1.06617162
H        0.70404465      -0.08636936       1.75500859
H        2.24697493      -0.51692436       1.02257778
H        0.35259147      -1.91961241      -0.28324315
17
Frame=12 idx=006913 GeodesicLength=0.6924428659447319 rxn_smarts="[C:1]([C@@:2]1([H:11])[O:3][C:4]([H:12])([H:13])[C@@:5]2([H:14])[C:6]([H:15])([H:16])[C@@:7]12[H:17])([H:8])([H:9])[H:10]>>[C:1]([C@@:2]1([H:11])[O:3][C:4]([H:12])([H:13])[C:6]([H:15])([H:16])[C@@:7]1([C:5][H:14])[H:17])([H:8])([H:9])[H:10]"
C       -2.11227048      -0.57465339       0.10763625
C       -0.85274017      -0.02172248      -0.51626277
O       -0.59528713       1.26755508       0.04127193
C        0.79490285       1.49496611       0.04319579
C        1.55243183      -0.12931535      -0.88878097
C        1.23990656      -0.18838195       0.81953027
C        0.41481359      -0.83470361      -0.28563381
H       -2.93916579       0.12567811      -0.01492986
H       -1.96909922      -0.75577661       1.17435429
H       -2.40045968      -1.50945191      -0.37711758
H       -0.99669897       0.11105195      -1.59702163
H        1.05195635       2.10732667      -0.82837775
H        1.02178251       2.15722044       0.88367715
H        2.44532011      -0.72243774      -1.08233701
H        0.73252516      -0.10354715       1.76994228
H        2.26545935      -0.50729843       1.01311214
H        0.34662313      -1.91650973      -0.26225871
17
Frame=13 idx=006913 GeodesicLength=0.749548673112833 rxn_smarts="[C:1]([C@@:2]1([H:11])[O:3][C:4]([H:12])([H:13])[C@@:5]2([H:14])[C:6]([H:15])([H:16])[C@@:7]12[H:17])([H:8])([H:9])[H:10]>>[C:1]([C@@:2]1([H:11])[O:3][C:4]([H:12])([H:13])[C:6]([H:15])([H:16])[C@@:7]1([C:5][H:14])[H:17])([H:8])([H:9])[H:10]"
C       -2.11820915      -0.57539687       0.09688898
C       -0.85253267      -0.01663354      -0.50837149
O       -0.59986051       1.26569756       0.06380732
C        0.79116276       1.49613735       0.04297185
C        1.55837399      -0.13683137      -0.87182493
C        1.25285423      -0.18529472       0.82419824
C        0.41280669      -0.83208368      -0.27460219
H       -2.94441938       0.12530122      -0.02857130
H       -1.98584499      -0.76494214       1.16352001
H       -2.40054560      -1.50635068      -0.39852877
H       -0.98674127       0.12646977      -1.58953727
H        1.02700217       2.10505626      -0.83815125
H        1.02494387       2.17348283       0.86931292
H        2.43447836      -0.74212541      -1.09870724
H        0.76180435      -0.12127995       1.78471880
H        2.28389788      -0.49782370       1.00380282
H        0.34082927      -1.91338292      -0.24092650
17
Frame=14 idx=006913 GeodesicLength=0.8064849233221727 rxn_smarts="[C:1]([C@@:2]1([H:11])[O:3][C:4]([H:12])([H:13])[C@@:5]2([H:14])[C:6]([H:15])([H:16])[C@@:7]12[H:17])([H:8])([H:9])[H:10]>>[C:1]([C@@:2]1([H:11])[O:3][C:4]([H:12])([H:13])[C:6]([H:15])([H:16])[C@@:7]1([C:5][H:14])[H:17])([H:8])([H:9])[H:10]"
C       -2.12392813      -0.57593057       0.08605229
C       -0.85224095      -0.01169590      -0.50040135
O       -0.60410556       1.26357161       0.08606112
C        0.78739264       1.49710192       0.04278008
C        1.56416563      -0.14440630      -0.85487629
C        1.26575487      -0.18222890       0.82891549
C        0.41085494      -0.82945128      -0.26334255
H       -2.94923549       0.12522639      -0.04250983
H       -2.00259020      -0.77369499       1.15241476
H       -2.40025452      -1.50305369      -0.41968528
H       -0.97665914       0.14148661      -1.58176358
H        1.00220864       2.10225845      -0.84741778
H        1.02738301       2.18953540       0.85453228
H        2.42258096      -0.76058402      -1.11507750
H        0.79170630      -0.13963004       1.79901820
H        2.30197209      -0.48841131       0.99450619
H        0.33499490      -1.91009337      -0.21920624
17
Frame=15 idx=006913 GeodesicLength=0.8634288059199983 rxn_smarts="[C:1]([C@@:2]1([H:11])[O:3][C:4]([H:12])([H:13])[C@@:5]2([H:14])[C:6]([H:15])([H:16])[C@@:7]12[H:17])([H:8])([H:9])[H:10]>>[C:1]([C@@:2]1([H:11])[O:3][C:4]([H:12])([H:13])[C:6]([H:15])([H:16])[C@@:7]1([C:5][H:14])[H:17])([H:8])([H:9])[H:10]"
C       -2.12954730      -0.57621699       0.07510922
C       -0.85193608      -0.00690869      -0.49240285
O       -0.60813140       1.26124451       0.10804818
C        0.78355468       1.49790544       0.04264775
C        1.56989479      -0.15213687      -0.83800324
C        1.27873659      -0.17919677       0.83377444
C        0.40902769      -0.82686753      -0.25186363
H       -2.95383364       0.12553356      -0.05678299
H       -2.01941213      -0.78198028       1.14111504
H       -2.39969419      -1.49955822      -0.44068385
H       -0.96656647       0.15606631      -1.57385854
H        0.97746624       2.09901027      -0.85621776
H        1.02906982       2.20544181       0.83944900
H        2.40979993      -0.77792611      -1.13155541
H        0.82240558      -0.15857491       1.81299806
H        2.31991513      -0.47909848       0.98532164
H        0.32925076      -1.90673704      -0.19709507
17
Frame=16 idx=006913 GeodesicLength=0.9203572546585503 rxn_smarts="[C:1]([C@@:2]1([H:11])[O:3][C:4]([H:12])([H:13])[C@@:5]2([H:14])[C:6]([H:15])([H:16])[C@@:7]12[H:17])([H:8])([H:9])[H:10]>>[C:1]([C@@:2]1([H:11])[O:3][C:4]([H:12])([H:13])[C:6]([H:15])([H:16])[C@@:7]1([C:5][H:14])[H:17])([H:8])([H:9])[H:10]"
C       -2.13502178      -0.57626690       0.06406253
C       -0.85159629      -0.00227584      -0.48436221
O       -0.61191168       1.25870387       0.12974645
C        0.77966468       1.49852794       0.04256998
C        1.57551156      -0.16001417      -0.82117086
C        1.29175282      -0.17619186       0.83875690
C        0.40728602      -0.82432155      -0.24013385
H       -2.95812537       0.12619419      -0.07140608
H       -2.03628492      -0.78980178       1.12959483
H       -2.39882250      -1.49586784      -0.46149928
H       -0.95642331       0.17019941      -1.56578787
H        0.95282032       2.09530875      -0.86453937
H        1.03000861       2.22115310       0.82404661
H        2.39607184      -0.79408068      -1.14811886
H        0.85388201      -0.17814601       1.82655958
H        2.33765672      -0.46984238       0.97621341
H        0.32353124      -1.90327824      -0.17453192
