14
Frame=0 idx=007134 GeodesicLength=0.0 rxn_smarts="[N:1](=[C:2]1\[O:3][C:4]([H:9])([H:10])[C@@:5]2([H:11])[C:6]([H:12])([H:13])[C@@:7]12[H:14])\[H:8]>>[N:1](=[C:2]1\[O:3][C@:4]2([H:9])[C@@:5]([H:11])([C:6]2([H:12])[H:13])[C:7]1([H:10])[H:14])\[H:8]"
N        1.88922364      -1.59734173       0.56024704
C        1.10582920      -0.63659256       0.35241968
O        1.23193841       0.25845118      -0.70379200
C        0.27728090       1.23226618      -0.45086749
C       -0.95171510       0.53692436       0.15040891
C       -1.50881563      -0.33868310      -0.81843433
C       -0.04110727      -0.16436445       1.13963106
H        2.64166263      -1.60576901      -0.12501216
H        0.25851755       1.98196498      -1.24057316
H        0.51337458       1.21087417       0.97949310
H       -1.62812685       1.25090283       0.60981777
H       -0.85248793      -0.98909906      -1.38228791
H       -2.56643492      -0.37555218      -1.05297675
H       -0.36913920      -0.76398159       1.98192629
14
Frame=1 idx=007134 GeodesicLength=0.07719571895371315 rxn_smarts="[N:1](=[C:2]1\[O:3][C:4]([H:9])([H:10])[C@@:5]2([H:11])[C:6]([H:12])([H:13])[C@@:7]12[H:14])\[H:8]>>[N:1](=[C:2]1\[O:3][C@:4]2([H:9])[C@@:5]([H:11])([C:6]2([H:12])[H:13])[C:7]1([H:10])[H:14])\[H:8]"
N        1.88993886      -1.59793268       0.56066382
C        1.10366938      -0.64110011       0.34703343
O        1.23121903       0.25536298      -0.70634755
C        0.26933981       1.22718189      -0.46037991
C       -0.95634392       0.55433209       0.16215482
C       -1.49131448      -0.33370215      -0.80934718
C       -0.04882004      -0.17205189       1.13158750
H        2.64852023      -1.60096625      -0.11798415
H        0.24628276       1.97246320      -1.25347473
H        0.52135132       1.21467095       0.98438268
H       -1.63351154       1.26639835       0.62109143
H       -0.84901922      -0.99249581      -1.37867318
H       -2.54855951      -0.37173320      -1.04561044
H       -0.38275269      -0.78042736       1.96490345
14
Frame=2 idx=007134 GeodesicLength=0.15437059070494816 rxn_smarts="[N:1](=[C:2]1\[O:3][C:4]([H:9])([H:10])[C@@:5]2([H:11])[C:6]([H:12])([H:13])[C@@:7]12[H:14])\[H:8]>>[N:1](=[C:2]1\[O:3][C@:4]2([H:9])[C@@:5]([H:11])([C:6]2([H:12])[H:13])[C:7]1([H:10])[H:14])\[H:8]"
N        1.89116913      -1.59808552       0.56163313
C        1.10156799      -0.64574027       0.34158659
O        1.23058153       0.25223003      -0.70890509
C        0.26133764       1.22188124      -0.46992942
C       -0.96049737       0.57126375       0.17362455
C       -1.47413767      -0.32853102      -0.80038702
C       -0.05662498      -0.17988546       1.12329123
H        2.65562788      -1.59585124      -0.11055886
H        0.23401638       1.96285028      -1.26624522
H        0.52937268       1.21836030       0.98938905
H       -1.63842883       1.28143483       0.63217365
H       -0.84640061      -0.99571765      -1.37531321
H       -2.53113530      -0.36738854      -1.03789207
H       -0.39644848      -0.79682072       1.94753271
14
Frame=3 idx=007134 GeodesicLength=0.2315308525468768 rxn_smarts="[N:1](=[C:2]1\[O:3][C:4]([H:9])([H:10])[C@@:5]2([H:11])[C:6]([H:12])([H:13])[C@@:7]12[H:14])\[H:8]>>[N:1](=[C:2]1\[O:3][C@:4]2([H:9])[C@@:5]([H:11])([C:6]2([H:12])[H:13])[C:7]1([H:10])[H:14])\[H:8]"
N        1.89288903      -1.59775341       0.56317969
C        1.09955798      -0.65044110       0.33613384
O        1.23004793       0.24912114      -0.71141323
C        0.25327736       1.21641405      -0.47948569
C       -0.96416829       0.58771110       0.18481909
C       -1.45723904      -0.32323793      -0.79158034
C       -0.06449675      -0.18780744       1.11478921
H        2.66273730      -1.59064617      -0.10297148
H        0.22170238       1.95316128      -1.27887117
H        0.53741702       1.22201489       0.99455950
H       -1.64291505       1.29597803       0.64303674
H       -0.84450628      -0.99878198      -1.37216255
H       -2.51410501      -0.36261748      -1.02989415
H       -0.41019859      -0.81311499       1.92986053
14
Frame=4 idx=007134 GeodesicLength=0.30868178209908737 rxn_smarts="[N:1](=[C:2]1\[O:3][C:4]([H:9])([H:10])[C@@:5]2([H:11])[C:6]([H:12])([H:13])[C@@:7]12[H:14])\[H:8]>>[N:1](=[C:2]1\[O:3][C@:4]2([H:9])[C@@:5]([H:11])([C:6]2([H:12])[H:13])[C:7]1([H:10])[H:14])\[H:8]"
N        1.89502789      -1.59696214       0.56526010
C        1.09764436      -0.65517922       0.33068769
O        1.22961647       0.24605942      -0.71385978
C        0.24516712       1.21080696      -0.48903490
C       -0.96735414       0.60367236       0.19574217
C       -1.44061236      -0.31786420      -0.78294254
C       -0.07241286      -0.19578736       1.10610920
H        2.66978902      -1.58539743      -0.09526740
H        0.20933389       1.94341163      -1.29135181
H        0.54549362       1.22566928       0.99991969
H       -1.64698365       1.31001628       0.65367265
H       -0.84327615      -1.00169189      -1.36918879
H       -2.49745639      -0.35746755      -1.02166032
H       -0.42397682      -0.82928616       1.91191405
14
Frame=5 idx=007134 GeodesicLength=0.38583106157151625 rxn_smarts="[N:1](=[C:2]1\[O:3][C:4]([H:9])([H:10])[C@@:5]2([H:11])[C:6]([H:12])([H:13])[C@@:7]12[H:14])\[H:8]>>[N:1](=[C:2]1\[O:3][C@:4]2([H:9])[C@@:5]([H:11])([C:6]2([H:12])[H:13])[C:7]1([H:10])[H:14])\[H:8]"
N        1.89745727      -1.59581952       0.56775779
C        1.09580473      -0.65998202       0.32521733
O        1.22926191       0.24302095      -0.71627177
C        0.23701974       1.20506394      -0.49857905
C       -0.97005256       0.61915403       0.20640087
C       -1.42428748      -0.31242604      -0.77447971
C       -0.08035407      -0.20381833       1.09726133
H        2.67690514      -1.57995895      -0.08730668
H        0.19691470       1.93359782      -1.30369872
H        0.55364578       1.22931778       1.00547494
H       -1.65062265       1.32355846       0.66409287
H       -0.84271472      -1.00444053      -1.36636887
H       -2.48121556      -0.35193771      -1.01320468
H       -0.43776223      -0.84532988       1.89370435
14
Frame=6 idx=007134 GeodesicLength=0.4629794033507285 rxn_smarts="[N:1](=[C:2]1\[O:3][C:4]([H:9])([H:10])[C@@:5]2([H:11])[C:6]([H:12])([H:13])[C@@:7]12[H:14])\[H:8]>>[N:1](=[C:2]1\[O:3][C@:4]2([H:9])[C@@:5]([H:11])([C:6]2([H:12])[H:13])[C:7]1([H:10])[H:14])\[H:8]"
N        1.90013235      -1.59433540       0.57065008
C        1.09404880      -0.66481372       0.31974625
O        1.22898841       0.24003864      -0.71862730
C        0.22884032       1.19921569      -0.50810176
C       -0.97226542       0.63415794       0.21679851
C       -1.40824373      -0.30696691      -0.76620611
C       -0.08830176      -0.21186682       1.08827630
H        2.68397996      -1.57442209      -0.07918504
H        0.18443497       1.92373786      -1.31590855
H        0.56187224       1.23300020       1.01125499
H       -1.65385498       1.33659425       0.67428444
H       -0.84274412      -1.00703471      -1.36367643
H       -2.46535473      -0.34608978      -1.00457213
H       -0.45153232      -0.86121517       1.87526675
14
Frame=7 idx=007134 GeodesicLength=0.5401289812349224 rxn_smarts="[N:1](=[C:2]1\[O:3][C:4]([H:9])([H:10])[C@@:5]2([H:11])[C:6]([H:12])([H:13])[C@@:7]12[H:14])\[H:8]>>[N:1](=[C:2]1\[O:3][C@:4]2([H:9])[C@@:5]([H:11])([C:6]2([H:12])[H:13])[C:7]1([H:10])[H:14])\[H:8]"
N        1.90297056      -1.59257088       0.57386504
C        1.09236768      -0.66967554       0.31426619
O        1.22878407       0.23711173      -0.72093334
C        0.22063733       1.19327609      -0.51759933
C       -0.97399427       0.64869108       0.22694006
C       -1.39248721      -0.30151165      -0.75812513
C       -0.09624018      -0.21991813       1.07917063
H        2.69103643      -1.56874510      -0.07086327
H        0.17189240       1.91383597      -1.32798718
H        0.57019348       1.23672776       1.01727258
H       -1.65668421       1.34912763       0.68425031
H       -0.84333391      -1.00947175      -1.36109252
H       -2.44987244      -0.33994881      -0.99578438
H       -0.46526972      -0.87692841       1.85662032
14
Frame=8 idx=007134 GeodesicLength=0.6172817482633192 rxn_smarts="[N:1](=[C:2]1\[O:3][C:4]([H:9])([H:10])[C@@:5]2([H:11])[C:6]([H:12])([H:13])[C@@:7]12[H:14])\[H:8]>>[N:1](=[C:2]1\[O:3][C@:4]2([H:9])[C@@:5]([H:11])([C:6]2([H:12])[H:13])[C:7]1([H:10])[H:14])\[H:8]"
N        1.90592197      -1.59054665       0.57736653
C        1.09076671      -0.67454167       0.30879223
O        1.22864878       0.23426490      -0.72317479
C        0.21241545       1.18726992      -0.52706104
C       -0.97524503       0.66276076       0.23683149
C       -1.37700007      -0.29609421      -0.75024576
C       -0.10415376      -0.22794422       1.06997159
H        2.69800416      -1.56298884      -0.06240241
H        0.15927847       1.90390546      -1.33993462
H        0.57861403       1.24053211       1.02355352
H       -1.65913249       1.36115579       0.69398030
H       -0.84441745      -1.01175940      -1.35859539
H       -2.43474399      -0.33356813      -0.98687536
H       -0.47895677      -0.89244582       1.83779371
14
Frame=9 idx=007134 GeodesicLength=0.6944337186680821 rxn_smarts="[N:1](=[C:2]1\[O:3][C:4]([H:9])([H:10])[C@@:5]2([H:11])[C:6]([H:12])([H:13])[C@@:7]12[H:14])\[H:8]>>[N:1](=[C:2]1\[O:3][C@:4]2([H:9])[C@@:5]([H:11])([C:6]2([H:12])[H:13])[C:7]1([H:10])[H:14])\[H:8]"
N        1.90891942      -1.58832127       0.58109765
C        1.08923617      -0.67940974       0.30332238
O        1.22857132       0.23149872      -0.72535364
C        0.20418150       1.18121240      -0.53647965
C       -0.97602280       0.67637952       0.24647810
C       -1.36178212      -0.29073776      -0.74257038
C       -0.11203200      -0.23592791       1.06069817
H        2.70489522      -1.55712165      -0.05379129
H        0.14659116       1.89394625      -1.35175468
H        0.58715370       1.24442629       1.03011083
H       -1.66120735       1.37268876       0.70347250
H       -0.84595975      -1.01389935      -1.35617159
H       -2.41996303      -0.32697851      -0.97786601
H       -0.49258142      -0.90775575       1.81880760
14
Frame=10 idx=007134 GeodesicLength=0.7715947460145671 rxn_smarts="[N:1](=[C:2]1\[O:3][C:4]([H:9])([H:10])[C@@:5]2([H:11])[C:6]([H:12])([H:13])[C@@:7]12[H:14])\[H:8]>>[N:1](=[C:2]1\[O:3][C@:4]2([H:9])[C@@:5]([H:11])([C:6]2([H:12])[H:13])[C:7]1([H:10])[H:14])\[H:8]"
N        1.91190516      -1.58594573       0.58500128
C        1.08776885      -0.68428223       0.29784822
O        1.22854268       0.22881186      -0.72747532
C        0.19594024       1.17511122      -0.54585753
C       -0.97633464       0.68955795       0.25588745
C       -1.34683382      -0.28545562      -0.73509969
C       -0.11986509      -0.24386403       1.05136114
H        2.71172828      -1.55110726      -0.04499724
H        0.13382435       1.88395869      -1.36345748
H        0.59582891       1.24841333       1.03695851
H       -1.66291534       1.38373596       0.71273280
H       -0.84793445      -1.01589124      -1.35380816
H       -2.40552087      -0.32019887      -0.96876950
H       -0.50613426      -0.92284402       1.79967552
14
Frame=11 idx=007134 GeodesicLength=0.8487559669456091 rxn_smarts="[N:1](=[C:2]1\[O:3][C:4]([H:9])([H:10])[C@@:5]2([H:11])[C:6]([H:12])([H:13])[C@@:7]12[H:14])\[H:8]>>[N:1](=[C:2]1\[O:3][C@:4]2([H:9])[C@@:5]([H:11])([C:6]2([H:12])[H:13])[C:7]1([H:10])[H:14])\[H:8]"
N        1.91486399      -1.58341371       0.58906543
C        1.08637258      -0.68912808       0.29239009
O        1.22856681       0.22623408      -0.72951951
C        0.18769195       1.16899034      -0.55518256
C       -0.97619153       0.70230493       0.26506254
C       -1.33213018      -0.28027830      -0.72784140
C       -0.12764313      -0.25172857       1.04198424
H        2.71840874      -1.54504456      -0.03611041
H        0.12097110       1.87395654      -1.37503992
H        0.60463111       1.25252505       1.04412082
H       -1.66428218       1.39429773       0.72175291
H       -0.85027203      -1.01774510      -1.35149472
H       -2.39138879      -0.31328538      -0.95962041
H       -0.51959843      -0.93768499       1.78043291
14
Frame=12 idx=007134 GeodesicLength=0.9259243530791147 rxn_smarts="[N:1](=[C:2]1\[O:3][C:4]([H:9])([H:10])[C@@:5]2([H:11])[C:6]([H:12])([H:13])[C@@:7]12[H:14])\[H:8]>>[N:1](=[C:2]1\[O:3][C@:4]2([H:9])[C@@:5]([H:11])([C:6]2([H:12])[H:13])[C:7]1([H:10])[H:14])\[H:8]"
N        1.91773988      -1.58078410       0.59323166
C        1.08503384      -0.69395996       0.28693255
O        1.22862919       0.22375197      -0.73150018
C        0.17944190       1.16285258      -0.56445908
C       -0.97560060       0.71463654       0.27401228
C       -1.31767670      -0.27520967      -0.72079282
C       -0.13536049      -0.25951848       1.03257582
H        2.72498852      -1.53886051      -0.02707146
H        0.10802656       1.86393076      -1.38651275
H        0.61358324       1.25675617       1.05160583
H       -1.66530696       1.40439389       0.73054030
H       -0.85296198      -1.01946177      -1.34922061
H       -2.37756372      -0.30624645      -0.95042204
H       -0.53297270      -0.95228096       1.76108049
14
Frame=13 idx=007134 GeodesicLength=1.0030987519234529 rxn_smarts="[N:1](=[C:2]1\[O:3][C:4]([H:9])([H:10])[C@@:5]2([H:11])[C:6]([H:12])([H:13])[C@@:7]12[H:14])\[H:8]>>[N:1](=[C:2]1\[O:3][C@:4]2([H:9])[C@@:5]([H:11])([C:6]2([H:12])[H:13])[C:7]1([H:10])[H:14])\[H:8]"
N        1.92050106      -1.57809255       0.59746120
C        1.08374550      -0.69877720       0.28147130
O        1.22872234       0.22136637      -0.73341940
C        0.17119182       1.15670508      -0.57368786
C       -0.97457001       0.72656543       0.28274219
C       -1.30346867      -0.27026347      -0.71395509
C       -0.14301240      -0.26722793       1.02314559
H        2.73146732      -1.53253803      -0.01787054
H        0.09498621       1.85388460      -1.39787933
H        0.62269769       1.26110835       1.05942755
H       -1.66599589       1.41403774       0.73909753
H       -0.85597834      -1.02104599      -1.34698190
H       -2.36403684      -0.29910479      -0.94118910
H       -0.54624979      -0.96661762       1.74163786
14
Frame=14 idx=007134 GeodesicLength=1.0802731908313263 rxn_smarts="[N:1](=[C:2]1\[O:3][C:4]([H:9])([H:10])[C@@:5]2([H:11])[C:6]([H:12])([H:13])[C@@:7]12[H:14])\[H:8]>>[N:1](=[C:2]1\[O:3][C@:4]2([H:9])[C@@:5]([H:11])([C:6]2([H:12])[H:13])[C:7]1([H:10])[H:14])\[H:8]"
N        1.92312955      -1.57535321       0.60173128
C        1.08250441      -0.70357348       0.27600637
O        1.22884174       0.21908361      -0.73527520
C        0.16294277       1.15055864      -0.58286519
C       -0.97310939       0.73810467       0.29125688
C       -1.28949648      -0.26545348      -0.70732898
C       -0.15059453      -0.27484794       1.01370487
H        2.73782177      -1.52609420      -0.00852422
H        0.08184400       1.84382020      -1.40914098
H        0.63197843       1.26558994       1.06759951
H       -1.66635901       1.42324172       0.74742543
H       -0.85928740      -1.02250369      -1.34477488
H       -2.35079168      -0.29188880      -0.93193622
H       -0.55942418      -0.98068397       1.72212132
14
Frame=15 idx=007134 GeodesicLength=1.1574510104815858 rxn_smarts="[N:1](=[C:2]1\[O:3][C:4]([H:9])([H:10])[C@@:5]2([H:11])[C:6]([H:12])([H:13])[C@@:7]12[H:14])\[H:8]>>[N:1](=[C:2]1\[O:3][C@:4]2([H:9])[C@@:5]([H:11])([C:6]2([H:12])[H:13])[C:7]1([H:10])[H:14])\[H:8]"
N        1.92559863      -1.57260012       0.60600684
C        1.08130171      -0.70835561       0.27052770
O        1.22897844       0.21689745      -0.73707498
C        0.15469575       1.14441532      -0.59199508
C       -0.97122639       0.74926801       0.29956290
C       -1.27575837      -0.26078387      -0.70091336
C       -0.15810523      -0.28237804       1.00425818
H        2.74407055      -1.51949030       0.00099641
H        0.06859460       1.83373319      -1.42030430
H        0.64143903       1.27019568       1.07613157
H       -1.66639548       1.43202444       0.75553148
H       -0.86287618      -1.02383902      -1.34259637
H       -2.33782125      -0.28461032      -0.92266947
H       -0.57249580      -0.99447681       1.70253849
14
Frame=16 idx=007134 GeodesicLength=1.234630936562959 rxn_smarts="[N:1](=[C:2]1\[O:3][C:4]([H:9])([H:10])[C@@:5]2([H:11])[C:6]([H:12])([H:13])[C@@:7]12[H:14])\[H:8]>>[N:1](=[C:2]1\[O:3][C@:4]2([H:9])[C@@:5]([H:11])([C:6]2([H:12])[H:13])[C:7]1([H:10])[H:14])\[H:8]"
N        1.92790700      -1.56982786       0.61028794
C        1.08014053      -0.71310772       0.26504559
O        1.22913405       0.21482263      -0.73880745
C        0.14644920       1.13828606      -0.60107389
C       -0.96893307       0.76006795       0.30766389
C       -1.26223707      -0.25626719      -0.69470926
C       -0.16554267      -0.28980679       0.99481740
H        2.75016563      -1.51278175       0.01063212
H        0.05523120       1.82362687      -1.43136969
H        0.65107335       1.27494017       1.08504279
H       -1.66612177       1.44039504       0.76341119
H       -0.86670339      -1.02506206      -1.34044055
H       -2.32510152      -0.27730161      -0.91340525
H       -0.58546148      -1.00798372       1.68290518
