16
Frame=0 idx=002567 GeodesicLength=0.0 rxn_smarts="[C:1]([C:2]([C:3]([H:11])([H:12])[H:13])([C@@:4]1([H:14])[C:5]([H:15])([H:16])[O:6]1)[H:10])([H:7])([H:8])[H:9]>>[C:1]([C:2]([C:3]([H:11])([H:12])[H:13])([C-:4]=[O+:6][C:5]([H:14])([H:15])[H:16])[H:10])([H:7])([H:8])[H:9]"
C       -0.57019714       1.29963904      -0.86042100
C       -0.46666442       0.06263438       0.02043453
C       -1.58435818      -0.94075842      -0.28849563
C        0.81141637      -0.71061916      -0.26298258
C        1.98406723      -0.22491843       1.03318540
O        1.22420890      -1.39060046       0.90854478
H        0.20150879       2.03415735      -0.61629285
H       -1.54081784       1.78483072      -0.73893896
H       -0.45256760       1.02908262      -1.91179582
H       -0.55001580       0.33927402       1.08020603
H       -2.55762062      -0.47507208      -0.12195731
H       -1.51415298      -1.82274367       0.34952223
H       -1.53431340      -1.26707974      -1.32958140
H        1.90494814       0.20674366      -0.09490428
H        3.05159053      -0.42776925       1.09448323
H        1.59296807       0.50319945       1.73899366
16
Frame=1 idx=002567 GeodesicLength=0.061666156152475025 rxn_smarts="[C:1]([C:2]([C:3]([H:11])([H:12])[H:13])([C@@:4]1([H:14])[C:5]([H:15])([H:16])[O:6]1)[H:10])([H:7])([H:8])[H:9]>>[C:1]([C:2]([C:3]([H:11])([H:12])[H:13])([C-:4]=[O+:6][C:5]([H:14])([H:15])[H:16])[H:10])([H:7])([H:8])[H:9]"
C       -0.57824216       1.30130521      -0.85785358
C       -0.47628995       0.06415389       0.02334456
C       -1.58792896      -0.94278637      -0.29490007
C        0.80746108      -0.70170008      -0.24533220
C        1.99930528      -0.22277155       1.03318142
O        1.21600655      -1.37656063       0.92560621
H        0.18936570       2.03805707      -0.60792433
H       -1.55117403       1.78332305      -0.74236405
H       -0.45255310       1.03172669      -1.90858786
H       -0.56693348       0.34120017       1.08229859
H       -2.56456805      -0.48101002      -0.13729113
H       -1.52166024      -1.82439477       0.34411064
H       -1.52757769      -1.26950579      -1.33538551
H        1.92588177       0.19388543      -0.11489419
H        3.06183786      -0.44955728       1.09625873
H        1.62706943       0.51463498       1.73973278
16
Frame=2 idx=002567 GeodesicLength=0.1233298127503712 rxn_smarts="[C:1]([C:2]([C:3]([H:11])([H:12])[H:13])([C@@:4]1([H:14])[C:5]([H:15])([H:16])[O:6]1)[H:10])([H:7])([H:8])[H:9]>>[C:1]([C:2]([C:3]([H:11])([H:12])[H:13])([C-:4]=[O+:6][C:5]([H:14])([H:15])[H:16])[H:10])([H:7])([H:8])[H:9]"
C       -0.58648322       1.30316724      -0.85500301
C       -0.48628153       0.06583025       0.02650435
C       -1.59134544      -0.94494021      -0.30154961
C        0.80328375      -0.69219169      -0.22697104
C        2.01487236      -0.22057906       1.03293209
O        1.20756949      -1.36136161       0.94372033
H        0.17691584       2.04213123      -0.59904458
H       -1.56177858       1.78187170      -0.74578772
H       -0.45241521       1.03466914      -1.90502180
H       -0.58476008       0.34319620       1.08456337
H       -2.57145394      -0.48734819      -0.15327798
H       -1.52895628      -1.82621888       0.33835984
H       -1.52018177      -1.27191599      -1.34135546
H        1.94670485       0.17894590      -0.13572481
H        3.07173304      -0.47183972       1.09800031
H        1.66257674       0.52658369       1.73965570
16
Frame=3 idx=002567 GeodesicLength=0.1850353357119645 rxn_smarts="[C:1]([C:2]([C:3]([H:11])([H:12])[H:13])([C@@:4]1([H:14])[C:5]([H:15])([H:16])[O:6]1)[H:10])([H:7])([H:8])[H:9]>>[C:1]([C:2]([C:3]([H:11])([H:12])[H:13])([C-:4]=[O+:6][C:5]([H:14])([H:15])[H:16])[H:10])([H:7])([H:8])[H:9]"
C       -0.59495256       1.30525173      -0.85187306
C       -0.49664043       0.06769354       0.02991174
C       -1.59455527      -0.94721673      -0.30844578
C        0.79889467      -0.68200252      -0.20787888
C        2.03077573      -0.21837004       1.03242723
O        1.19889974      -1.34490585       0.96290550
H        0.16409440       2.04643096      -0.58966334
H       -1.57267261       1.78047277      -0.74922469
H       -0.45217751       1.03794165      -1.90109262
H       -0.60352616       0.34528700       1.08698424
H       -2.57822564      -0.49411586      -0.16993441
H       -1.53596716      -1.82821142       0.33227034
H       -1.51205163      -1.27429822      -1.34747533
H        1.96731755       0.16171924      -0.15738538
H        3.08122552      -0.49465421       1.09974603
H        1.69956137       0.53897797       1.73872841
16
Frame=4 idx=002567 GeodesicLength=0.24681505020604927 rxn_smarts="[C:1]([C:2]([C:3]([H:11])([H:12])[H:13])([C@@:4]1([H:14])[C:5]([H:15])([H:16])[O:6]1)[H:10])([H:7])([H:8])[H:9]>>[C:1]([C:2]([C:3]([H:11])([H:12])[H:13])([C-:4]=[O+:6][C:5]([H:14])([H:15])[H:16])[H:10])([H:7])([H:8])[H:9]"
C       -0.60368899       1.30759213      -0.84847043
C       -0.50736255       0.06978044       0.03356064
C       -1.59749738      -0.94961687      -0.31558921
C        0.79431114      -0.67101927      -0.18803675
C        2.04702788      -0.21618411       1.03165830
O        1.18999480      -1.32707179       0.98318368
H        0.15081803       2.05102389      -0.57979414
H       -1.58390716       1.77911884      -0.75269261
H       -0.45186716       1.04158482      -1.89679881
H       -0.62325920       0.34750389       1.08954071
H       -2.58482088      -0.50135127      -0.18727529
H       -1.54260385      -1.83037152       0.32584488
H       -1.50310080      -1.27664422      -1.35372589
H        1.98759606       0.14198894      -0.17983958
H        3.09025123      -0.51807277       1.10153656
H        1.73810884       0.55173888       1.73689795
16
Frame=5 idx=002567 GeodesicLength=0.30871695197560856 rxn_smarts="[C:1]([C:2]([C:3]([H:11])([H:12])[H:13])([C@@:4]1([H:14])[C:5]([H:15])([H:16])[O:6]1)[H:10])([H:7])([H:8])[H:9]>>[C:1]([C:2]([C:3]([H:11])([H:12])[H:13])([C-:4]=[O+:6][C:5]([H:14])([H:15])[H:16])[H:10])([H:7])([H:8])[H:9]"
C       -0.61273624       1.31022496      -0.84479929
C       -0.51844582       0.07213326       0.03744865
C       -1.60010020      -0.95213638      -0.32298282
C        0.78955694      -0.65911282      -0.16741981
C        2.06364186      -0.21404478       1.03061039
O        1.18086173      -1.30773442       1.00457687
H        0.13700239       2.05598371      -0.56944591
H       -1.59553986       1.77780523      -0.75620472
H       -0.45151548       1.04564389      -1.89213655
H       -0.64398970       0.34988342       1.09221506
H       -2.59117401      -0.50909850      -0.20532933
H       -1.54876720      -1.83268968       0.31908800
H       -1.49321710      -1.27894465      -1.36009015
H        2.00737358       0.11945498      -0.20307366
H        3.09873951      -0.54213566       1.10340328
H        1.77830960       0.56476743       1.73414000
16
Frame=6 idx=002567 GeodesicLength=0.37071910006823977 rxn_smarts="[C:1]([C:2]([C:3]([H:11])([H:12])[H:13])([C@@:4]1([H:14])[C:5]([H:15])([H:16])[O:6]1)[H:10])([H:7])([H:8])[H:9]>>[C:1]([C:2]([C:3]([H:11])([H:12])[H:13])([C-:4]=[O+:6][C:5]([H:14])([H:15])[H:16])[H:10])([H:7])([H:8])[H:9]"
C       -0.62215381       1.31319626      -0.84087560
C       -0.52988292       0.07480256       0.04156213
C       -1.60227391      -0.95477557      -0.33062297
C        0.78465872      -0.64613345      -0.14602994
C        2.08062968      -0.21202941       1.02927792
O        1.17151960      -1.28672246       1.02707924
H        0.12252663       2.06140379      -0.55864522
H       -1.60764800       1.77651732      -0.75978967
H       -0.45116714       1.05017900      -1.88711224
H       -0.66574263       0.35246258       1.09497487
H       -2.59719382      -0.51741225      -0.22409552
H       -1.55431997      -1.83516525       0.31200630
H       -1.48229079      -1.28117383      -1.36653552
H        2.02646023       0.09385436      -0.22697708
H        3.10660031      -0.56696262       1.10542929
H        1.82027782       0.57795898       1.73035399
16
Frame=7 idx=002567 GeodesicLength=0.432825900733986 rxn_smarts="[C:1]([C:2]([C:3]([H:11])([H:12])[H:13])([C@@:4]1([H:14])[C:5]([H:15])([H:16])[O:6]1)[H:10])([H:7])([H:8])[H:9]>>[C:1]([C:2]([C:3]([H:11])([H:12])[H:13])([C-:4]=[O+:6][C:5]([H:14])([H:15])[H:16])[H:10])([H:7])([H:8])[H:9]"
C       -0.63200103       1.31654965      -0.83671031
C       -0.54167103       0.07784252       0.04589221
C       -1.60392299      -0.95752239      -0.33851038
C        0.77964959      -0.63192393      -0.12385941
C        2.09799684      -0.21019498       1.02765342
O        1.16199472      -1.26387595       1.05069530
H        0.10726873       2.06737092      -0.54740604
H       -1.62030791       1.77523400      -0.76347044
H       -0.45087071       1.05524642      -1.88172904
H       -0.68854618       0.35527690       1.09779291
H       -2.60278709      -0.52634510      -0.24358965
H       -1.55911305      -1.83778096       0.30460283
H       -1.47019771      -1.28329930      -1.37304424
H        2.04462366       0.06485537      -0.25144788
H        3.11375828      -0.59262359       1.10766551
H        1.86412589       0.59119041       1.72546520
16
Frame=8 idx=002567 GeodesicLength=0.4948961203765806 rxn_smarts="[C:1]([C:2]([C:3]([H:11])([H:12])[H:13])([C@@:4]1([H:14])[C:5]([H:15])([H:16])[O:6]1)[H:10])([H:7])([H:8])[H:9]>>[C:1]([C:2]([C:3]([H:11])([H:12])[H:13])([C-:4]=[O+:6][C:5]([H:14])([H:15])[H:16])[H:10])([H:7])([H:8])[H:9]"
C       -0.64236364       1.32032105      -0.83231961
C       -0.55380472       0.08131692       0.05042317
C       -1.60493922      -0.96035744      -0.34665023
C        0.77457878      -0.61629509      -0.10091854
C        2.11577495      -0.20861024       1.02570217
O        1.15234653      -1.23898359       1.07541508
H        0.09105718       2.07397175      -0.53574309
H       -1.63361742       1.77390600      -0.76726805
H       -0.45070584       1.06090534      -1.87600039
H       -0.71241824       0.35836550       1.10064665
H       -2.60783478      -0.53595907      -0.26381895
H       -1.56296789      -1.84049930       0.29687728
H       -1.45680273      -1.28525595      -1.37961310
H        2.06161164       0.03210812      -0.27627697
H        3.12008463      -0.61926409       1.11021704
H        1.91000075       0.60433010       1.71932755
16
Frame=9 idx=002567 GeodesicLength=0.5563662777576567 rxn_smarts="[C:1]([C:2]([C:3]([H:11])([H:12])[H:13])([C@@:4]1([H:14])[C:5]([H:15])([H:16])[O:6]1)[H:10])([H:7])([H:8])[H:9]>>[C:1]([C:2]([C:3]([H:11])([H:12])[H:13])([C-:4]=[O+:6][C:5]([H:14])([H:15])[H:16])[H:10])([H:7])([H:8])[H:9]"
C       -0.65325484       1.32453058      -0.82779636
C       -0.56627162       0.08522891       0.05511571
C       -1.60527756      -0.96329602      -0.35495429
C        0.76935117      -0.59922949      -0.07725603
C        2.13388856      -0.20754945       1.02332130
O        1.14251589      -1.21204571       1.10108443
H        0.07383446       2.08128507      -0.52377830
H       -1.64759024       1.77255633      -0.77136685
H       -0.45061377       1.06717536      -1.86995352
H       -0.73733875       0.36166098       1.10340408
H       -2.61228143      -0.54625509      -0.28465488
H       -1.56575045      -1.84335971       0.28892501
H       -1.44217712      -1.28708444      -1.38609333
H        2.07738988      -0.00363456      -0.30074174
H        3.12561101      -0.64703818       1.11307205
H        1.95796480       0.61705543       1.71167273
16
Frame=10 idx=002567 GeodesicLength=0.6176517099186694 rxn_smarts="[C:1]([C:2]([C:3]([H:11])([H:12])[H:13])([C@@:4]1([H:14])[C:5]([H:15])([H:16])[O:6]1)[H:10])([H:7])([H:8])[H:9]>>[C:1]([C:2]([C:3]([H:11])([H:12])[H:13])([C-:4]=[O+:6][C:5]([H:14])([H:15])[H:16])[H:10])([H:7])([H:8])[H:9]"
C       -0.66485102       1.32929758      -0.82310247
C       -0.57904313       0.08972855       0.05995975
C       -1.60468768      -0.96631367      -0.36349264
C        0.76415454      -0.58025799      -0.05285038
C        2.15240991      -0.20699440       1.02057193
O        1.13262091      -1.18255470       1.12781645
H        0.05527253       2.08951491      -0.51146990
H       -1.66245018       1.77109489      -0.77566076
H       -0.45079667       1.07423833      -1.86359521
H       -0.76334724       0.36531413       1.10609991
H       -2.61589796      -0.55742241      -0.30621360
H       -1.56712166      -1.84630598       0.28068417
H       -1.42589594      -1.28866486      -1.39255758
H        2.09131085      -0.04380539      -0.32511089
H        3.13001437      -0.67612342       1.11643897
H        2.00830839       0.62925443       1.70248224
16
Frame=11 idx=002567 GeodesicLength=0.6788782465523387 rxn_smarts="[C:1]([C:2]([C:3]([H:11])([H:12])[H:13])([C@@:4]1([H:14])[C:5]([H:15])([H:16])[O:6]1)[H:10])([H:7])([H:8])[H:9]>>[C:1]([C:2]([C:3]([H:11])([H:12])[H:13])([C-:4]=[O+:6][C:5]([H:14])([H:15])[H:16])[H:10])([H:7])([H:8])[H:9]"
C       -0.67725389       1.33469404      -0.81827157
C       -0.59207986       0.09489366       0.06493883
C       -1.60297155      -0.96940696      -0.37224859
C        0.75903788      -0.55912130      -0.02768333
C        2.17134806      -0.20709620       1.01741174
O        1.12265713      -1.15026463       1.15562321
H        0.03514952       2.09883090      -0.49885944
H       -1.67833302       1.76948040      -0.78022211
H       -0.45131602       1.08220505      -1.85693119
H       -0.79044567       0.36937272       1.10867260
H       -2.61849083      -0.56956304      -0.32852198
H       -1.56679595      -1.84931409       0.27220078
H       -1.40770541      -1.28996537      -1.39893195
H        2.10289964      -0.08865129      -0.34914742
H        3.13307614      -0.70672562       1.12032426
H        2.06122382       0.64063172       1.69164616
16
Frame=12 idx=002567 GeodesicLength=0.7401024358278119 rxn_smarts="[C:1]([C:2]([C:3]([H:11])([H:12])[H:13])([C@@:4]1([H:14])[C:5]([H:15])([H:16])[O:6]1)[H:10])([H:7])([H:8])[H:9]>>[C:1]([C:2]([C:3]([H:11])([H:12])[H:13])([C-:4]=[O+:6][C:5]([H:14])([H:15])[H:16])[H:10])([H:7])([H:8])[H:9]"
C       -0.69059519       1.34080319      -0.81334544
C       -0.60533268       0.10083105       0.07002967
C       -1.59989185      -0.97255993      -0.38120198
C        0.75407590      -0.53548910      -0.00176940
C        2.19069680      -0.20804354       1.01380998
O        1.11265058      -1.11484661       1.18448725
H        0.01318399       2.10941899      -0.48600063
H       -1.69540565       1.76763567      -0.78512223
H       -0.45226900       1.09120746      -1.84998311
H       -0.81862599       0.37389214       1.11106347
H       -2.61982506      -0.58281274      -0.35157725
H       -1.56439729      -1.85236248       0.26350654
H       -1.38731267      -1.29091114      -1.40515225
H        2.11158763      -0.13848975      -0.37251417
H        3.13449861      -0.73912858       1.12477856
H        2.11696187       0.65085536       1.67899100
16
Frame=13 idx=002567 GeodesicLength=0.8013575268708338 rxn_smarts="[C:1]([C:2]([C:3]([H:11])([H:12])[H:13])([C@@:4]1([H:14])[C:5]([H:15])([H:16])[O:6]1)[H:10])([H:7])([H:8])[H:9]>>[C:1]([C:2]([C:3]([H:11])([H:12])[H:13])([C-:4]=[O+:6][C:5]([H:14])([H:15])[H:16])[H:10])([H:7])([H:8])[H:9]"
C       -0.70503063       1.34773251      -0.80834608
C       -0.61875348       0.10767025       0.07522445
C       -1.59512723      -0.97576733      -0.39035563
C        0.74935939      -0.50892080       0.02494507
C        2.21044489      -0.21005742       1.00969657
O        1.10264358      -1.07581743       1.21448219
H       -0.01097685       2.12151668      -0.47289689
H       -1.71386691       1.76545710      -0.79044302
H       -0.45372382       1.10142312      -1.84274970
H       -0.84792581       0.37893026       1.11322391
H       -2.61959351      -0.59737181      -0.37542951
H       -1.55942559      -1.85540811       0.25462042
H       -1.36430368      -1.29141238      -1.41117665
H        2.11650819      -0.19381986      -0.39481621
H        3.13389150      -0.77370473       1.12980302
H        2.17587996       0.65954995       1.66421808
16
Frame=14 idx=002567 GeodesicLength=0.8628059924723533 rxn_smarts="[C:1]([C:2]([C:3]([H:11])([H:12])[H:13])([C@@:4]1([H:14])[C:5]([H:15])([H:16])[O:6]1)[H:10])([H:7])([H:8])[H:9]>>[C:1]([C:2]([C:3]([H:11])([H:12])[H:13])([C-:4]=[O+:6][C:5]([H:14])([H:15])[H:16])[H:10])([H:7])([H:8])[H:9]"
C       -0.72072386       1.35554342      -0.80335004
C       -0.63225121       0.11550729       0.08045355
C       -1.58843279      -0.97898943      -0.39967824
C        0.74498999      -0.47906510       0.05237729
C        2.23054052      -0.21342149       1.00504361
O        1.09272435      -1.03283328       1.24550101
H       -0.03767523       2.13528310      -0.45965857
H       -1.73390083       1.76281972      -0.79625411
H       -0.45585272       1.11298776      -1.83529068
H       -0.87824122       0.38450592       1.11505519
H       -2.61753893      -0.61335837      -0.40000294
H       -1.55146609      -1.85839755       0.24558360
H       -1.33845550      -1.29135202      -1.41695418
H        2.11707220      -0.25470981      -0.41553205
H        3.13098743      -0.81070494       1.13555524
H        2.23822388       0.66618479       1.64715132
16
Frame=15 idx=002567 GeodesicLength=0.9246025170311072 rxn_smarts="[C:1]([C:2]([C:3]([H:11])([H:12])[H:13])([C@@:4]1([H:14])[C:5]([H:15])([H:16])[O:6]1)[H:10])([H:7])([H:8])[H:9]>>[C:1]([C:2]([C:3]([H:11])([H:12])[H:13])([C-:4]=[O+:6][C:5]([H:14])([H:15])[H:16])[H:10])([H:7])([H:8])[H:9]"
C       -0.73784601       1.36432009      -0.79840828
C       -0.64571116       0.12446521       0.08566273
C       -1.57948134      -0.98220619      -0.40916587
C        0.74111161      -0.44545666       0.08048518
C        2.25092618      -0.21841245       0.99979476
O        1.08303141      -0.98539530       1.27748654
H       -0.06728867       2.15092873      -0.44634430
H       -1.75572047       1.75957518      -0.80261183
H       -0.45879757       1.12608491      -1.82763503
H       -0.90947531       0.39063615       1.11646968
H       -2.61335222      -0.63095556      -0.42525704
H       -1.53997402      -1.86127780       0.23640466
H       -1.30943395      -1.29061973      -1.42246430
H        2.11233490      -0.32142109      -0.43406265
H        3.12535998      -0.85041604       1.14215700
H        2.30431663       0.67015055       1.62748874
16
Frame=16 idx=002567 GeodesicLength=0.9869345617839025 rxn_smarts="[C:1]([C:2]([C:3]([H:11])([H:12])[H:13])([C@@:4]1([H:14])[C:5]([H:15])([H:16])[O:6]1)[H:10])([H:7])([H:8])[H:9]>>[C:1]([C:2]([C:3]([H:11])([H:12])[H:13])([C-:4]=[O+:6][C:5]([H:14])([H:15])[H:16])[H:10])([H:7])([H:8])[H:9]"
C       -0.75659139       1.37420569      -0.79359131
C       -0.65897158       0.13468091       0.09075722
C       -1.56791548      -0.98545163      -0.41879431
C        0.73793154      -0.40750745       0.10912428
C        2.27151051      -0.22540017       0.99388902
O        1.07376968      -0.93283486       1.31030046
H       -0.10023641       2.16875433      -0.43305833
H       -1.77958138       1.75560733      -0.80953838
H       -0.46271631       1.14098115      -1.81986134
H       -0.94147671       0.39732884       1.11736203
H       -2.60671321      -0.65043737      -0.45106403
H       -1.52431964      -1.86409340       0.22709984
H       -1.27686818      -1.28914607      -1.42769588
H        2.10120399      -0.39411420      -0.44964117
H        3.11646293      -0.89323311       1.14985484
H        2.37451165       0.67066001       1.60485707
