12
Frame=0 idx=007081 GeodesicLength=0.0 rxn_smarts="[O:1]=[C:2]1[N:3]([H:8])[C:4]([H:9])([H:10])[C@@:5]2([H:11])[O:6][C@@:7]12[H:12]>>[O-:1][C:2]([N:3]([C:4]([C:5](=[O:6])[H:11])([H:9])[H:10])[H:8])=[C+:7][H:12]"
O        1.16076545       2.37171086       0.46582620
C        0.50265102       1.31319464       0.37512670
N        1.01095628       0.10214133       0.09996732
C        0.28975995      -0.99980833      -0.48640475
C       -1.01471047      -1.37200963       0.17198538
O       -1.54329994      -0.77339242       1.06068627
C       -0.69613265       1.91493600       0.75111885
H        2.00890232       0.11707619      -0.04446988
H        0.92470266      -1.88922463      -0.45580272
H        0.05861638      -0.83067182      -1.54885533
H       -1.47663521      -2.27888430      -0.27114102
H       -1.22557581       2.32493211      -0.11803699
12
Frame=1 idx=007081 GeodesicLength=0.07900769846356429 rxn_smarts="[O:1]=[C:2]1[N:3]([H:8])[C:4]([H:9])([H:10])[C@@:5]2([H:11])[O:6][C@@:7]12[H:12]>>[O-:1][C:2]([N:3]([C:4]([C:5](=[O:6])[H:11])([H:9])[H:10])[H:8])=[C+:7][H:12]"
O        1.14609459       2.36747152       0.52718951
C        0.50182580       1.31578052       0.33985822
N        1.01562985       0.10480445       0.07971907
C        0.29067877      -0.99635686      -0.50150670
C       -1.01261699      -1.34547645       0.17161556
O       -1.47894537      -0.78630971       1.12627027
C       -0.72750050       1.86662767       0.70727410
H        2.02027152       0.09946655       0.00160908
H        0.91936406      -1.89021611      -0.47564289
H        0.04839777      -0.82925261      -1.56154427
H       -1.49859817      -2.24222751      -0.26422479
H       -1.22460133       2.33568855      -0.15061716
12
Frame=2 idx=007081 GeodesicLength=0.15833948228092115 rxn_smarts="[O:1]=[C:2]1[N:3]([H:8])[C:4]([H:9])([H:10])[C@@:5]2([H:11])[O:6][C@@:7]12[H:12]>>[O-:1][C:2]([N:3]([C:4]([C:5](=[O:6])[H:11])([H:9])[H:10])[H:8])=[C+:7][H:12]"
O        1.12864283       2.36135828       0.57895218
C        0.50354452       1.31891063       0.30713653
N        1.02145569       0.10818174       0.05837953
C        0.29179476      -0.99217773      -0.51656984
C       -1.00852169      -1.31860614       0.17350328
O       -1.41636913      -0.79445191       1.18080042
C       -0.75405211       1.81863398       0.66502762
H        2.02799061       0.07962563       0.05394511
H        0.91421525      -1.89029157      -0.49602023
H        0.03726748      -0.82715313      -1.57379124
H       -1.51904923      -2.20387315      -0.25553046
H       -1.22691899       2.33984338      -0.17583290
12
Frame=3 idx=007081 GeodesicLength=0.23798480532476057 rxn_smarts="[O:1]=[C:2]1[N:3]([H:8])[C:4]([H:9])([H:10])[C@@:5]2([H:11])[O:6][C@@:7]12[H:12]>>[O-:1][C:2]([N:3]([C:4]([C:5](=[O:6])[H:11])([H:9])[H:10])[H:8])=[C+:7][H:12]"
O        1.10991635       2.35454212       0.62179976
C        0.50736375       1.32211108       0.27826763
N        1.02869827       0.11196211       0.03675650
C        0.29303502      -0.98711075      -0.53160800
C       -1.00253408      -1.29210613       0.17704473
O       -1.35613581      -0.79847485       1.22660579
C       -0.77616727       1.77161700       0.62465789
H        2.03083757       0.05789021       0.11125644
H        0.90919643      -1.88939161      -0.51774702
H        0.02519755      -0.82348436      -1.58545802
H       -1.53778941      -2.16482652      -0.24534205
H       -1.23161837       2.33727171      -0.19623365
12
Frame=4 idx=007081 GeodesicLength=0.3179611921953157 rxn_smarts="[O:1]=[C:2]1[N:3]([H:8])[C:4]([H:9])([H:10])[C@@:5]2([H:11])[O:6][C@@:7]12[H:12]>>[O-:1][C:2]([N:3]([C:4]([C:5](=[O:6])[H:11])([H:9])[H:10])[H:8])=[C+:7][H:12]"
O        1.09128573       2.34805413       0.65543264
C        0.51281394       1.32498106       0.25345213
N        1.03748808       0.11560791       0.01634972
C        0.29452908      -0.98118736      -0.54624706
C       -0.99529329      -1.26610201       0.18125669
O       -1.29900553      -0.79921708       1.26520310
C       -0.79412816       1.72591567       0.58716478
H        2.02821622       0.03489981       0.17117667
H        0.90425793      -1.88773855      -0.54029664
H        0.01317894      -0.81785367      -1.59632307
H       -1.55483174      -2.12562975      -0.23443470
H       -1.23851120       2.32826985      -0.21273426
12
Frame=5 idx=007081 GeodesicLength=0.3984244688500438 rxn_smarts="[O:1]=[C:2]1[N:3]([H:8])[C:4]([H:9])([H:10])[C@@:5]2([H:11])[O:6][C@@:7]12[H:12]>>[O-:1][C:2]([N:3]([C:4]([C:5](=[O:6])[H:11])([H:9])[H:10])[H:8])=[C+:7][H:12]"
O        1.07377759       2.34239235       0.68100871
C        0.51939079       1.32721600       0.23257920
N        1.04750112       0.11862358      -0.00115026
C        0.29630744      -0.97458356      -0.55991357
C       -0.98747873      -1.24070164       0.18544752
O       -1.24573072      -0.79748584       1.29770802
C       -0.80845902       1.68154981       0.55297888
H        2.02065128       0.01195693       0.22985414
H        0.89927900      -1.88551249      -0.56264210
H        0.00210135      -0.81032963      -1.60603534
H       -1.57029632      -2.08675550      -0.22353160
H       -1.24704379       2.31363000      -0.22630359
12
Frame=6 idx=007081 GeodesicLength=0.47926461828077715 rxn_smarts="[O:1]=[C:2]1[N:3]([H:8])[C:4]([H:9])([H:10])[C@@:5]2([H:11])[O:6][C@@:7]12[H:12]>>[O-:1][C:2]([N:3]([C:4]([C:5](=[O:6])[H:11])([H:9])[H:10])[H:8])=[C+:7][H:12]"
O        1.05808115       2.33854526       0.69818554
C        0.52670065       1.32876202       0.21512952
N        1.05829975       0.12067909      -0.01481780
C        0.29841564      -0.96755772      -0.57234335
C       -0.97964673      -1.21598486       0.18906595
O       -1.19683754      -0.79408459       1.32502753
C       -0.81941968       1.63859421       0.52296131
H        2.00922690      -0.01033326       0.28588930
H        0.89423120      -1.88299290      -0.58411574
H       -0.00732624      -0.80114003      -1.61453141
H       -1.58459739      -2.04827749      -0.21357828
H       -1.25712771       2.29379025      -0.23687255
12
Frame=7 idx=007081 GeodesicLength=0.5604161823448042 rxn_smarts="[O:1]=[C:2]1[N:3]([H:8])[C:4]([H:9])([H:10])[C@@:5]2([H:11])[O:6][C@@:7]12[H:12]>>[O-:1][C:2]([N:3]([C:4]([C:5](=[O:6])[H:11])([H:9])[H:10])[H:8])=[C+:7][H:12]"
O        1.04425153       2.33636775       0.70889560
C        0.53433856       1.32966578       0.20053721
N        1.06937705       0.12177264      -0.02477885
C        0.30076253      -0.96033067      -0.58354658
C       -0.97202305      -1.19214704       0.19205582
O       -1.15227575      -0.78951001       1.34812322
C       -0.82771912       1.59705477       0.49660680
H        1.99511699      -0.03150537       0.33812460
H        0.88917668      -1.88027817      -0.60448946
H       -0.01514490      -0.79072649      -1.62189793
H       -1.59778176      -2.01065208      -0.20452830
H       -1.26807876       2.27028888      -0.24510214
12
Frame=8 idx=007081 GeodesicLength=0.6417769676205128 rxn_smarts="[O:1]=[C:2]1[N:3]([H:8])[C:4]([H:9])([H:10])[C@@:5]2([H:11])[O:6][C@@:7]12[H:12]>>[O-:1][C:2]([N:3]([C:4]([C:5](=[O:6])[H:11])([H:9])[H:10])[H:8])=[C+:7][H:12]"
O        1.03214114       2.33559544       0.71471554
C        0.54203662       1.33003137       0.18826996
N        1.08038647       0.12204068      -0.03157411
C        0.30325862      -0.95304628      -0.59367711
C       -0.96467070      -1.16932696       0.19447074
O       -1.11168237      -0.78409319       1.36783544
C       -0.83393971       1.55691998       0.47330105
H        1.97918113      -0.05145202       0.38646763
H        0.88418500      -1.87740537      -0.62379589
H       -0.02160110      -0.77947576      -1.62831404
H       -1.60990382      -1.97419124      -0.19621708
H       -1.27939129       2.24440336      -0.25148213
12
Frame=9 idx=007081 GeodesicLength=0.7232676553968359 rxn_smarts="[O:1]=[C:2]1[N:3]([H:8])[C:4]([H:9])([H:10])[C@@:5]2([H:11])[O:6][C@@:7]12[H:12]>>[O-:1][C:2]([N:3]([C:4]([C:5](=[O:6])[H:11])([H:9])[H:10])[H:8])=[C+:7][H:12]"
O        1.02156645       2.33597484       0.71677898
C        0.54964012       1.32996188       0.17788592
N        1.09113013       0.12164190      -0.03578262
C        0.30583605      -0.94577832      -0.60291647
C       -0.95760294      -1.14758765       0.19638029
O       -1.07462857      -0.77804605       1.38484503
C       -0.83851275       1.51815489       0.45251200
H        1.96197012      -0.07023404       0.43126026
H        0.87931006      -1.87437169      -0.64216447
H       -0.02695479      -0.76766361      -1.63397044
H       -1.62101739      -1.93909790      -0.18847055
H       -1.29073648       2.21704577      -0.25635792
12
Frame=10 idx=007081 GeodesicLength=0.8048481652048071 rxn_smarts="[O:1]=[C:2]1[N:3]([H:8])[C:4]([H:9])([H:10])[C@@:5]2([H:11])[O:6][C@@:7]12[H:12]>>[O-:1][C:2]([N:3]([C:4]([C:5](=[O:6])[H:11])([H:9])[H:10])[H:8])=[C+:7][H:12]"
O        1.01231999       2.33724797       0.71601079
C        0.55704345       1.32953101       0.16906881
N        1.10147005       0.12069952      -0.03789285
C        0.30844720      -0.93857452      -0.61140675
C       -0.95079966      -1.12693509       0.19785943
O       -1.04070578      -0.77147750       1.39967466
C       -0.84179336       1.48070334       0.43375886
H        1.94388867      -0.08794374       0.47279062
H        0.87459134      -1.87117529      -0.65971164
H       -0.03141981      -0.75550343      -1.63899365
H       -1.63116202      -1.90546230      -0.18114107
H       -1.30188007       2.18889002      -0.26001722
12
Frame=11 idx=007081 GeodesicLength=0.8864776541939314 rxn_smarts="[O:1]=[C:2]1[N:3]([H:8])[C:4]([H:9])([H:10])[C@@:5]2([H:11])[O:6][C@@:7]12[H:12]>>[O-:1][C:2]([N:3]([C:4]([C:5](=[O:6])[H:11])([H:9])[H:10])[H:8])=[C+:7][H:12]"
O        1.00424491       2.33923627       0.71298572
C        0.56419508       1.32880272       0.16155737
N        1.11134233       0.11931830      -0.03829170
C        0.31106482      -0.93145914      -0.61926826
C       -0.94424873      -1.10735146       0.19895746
O       -1.00955181      -0.76448090       1.41273312
C       -0.84403185       1.44450615       0.41669623
H        1.92519426      -0.10469070       0.51144085
H        0.87005689      -1.86781441      -0.67654510
H       -0.03515644      -0.74313831      -1.64349775
H       -1.64040723      -1.87331739      -0.17414285
H       -1.31270223       2.16038887      -0.26262509
12
Frame=12 idx=007081 GeodesicLength=0.9681316833625433 rxn_smarts="[O:1]=[C:2]1[N:3]([H:8])[C:4]([H:9])([H:10])[C@@:5]2([H:11])[O:6][C@@:7]12[H:12]>>[O-:1][C:2]([N:3]([C:4]([C:5](=[O:6])[H:11])([H:9])[H:10])[H:8])=[C+:7][H:12]"
O        0.99721142       2.34180209       0.70810259
C        0.57106768       1.32782384       0.15514973
N        1.12071541       0.11757509      -0.03727566
C        0.31367544      -0.92444538      -0.62659248
C       -0.93793782      -1.08880043       0.19971367
O       -0.98085838      -0.75712460       1.42433855
C       -0.84542192       1.40949768       0.40105908
H        1.90607314      -0.12057774       0.54754465
H        0.86572960      -1.86428990      -0.69275153
H       -0.03828082      -0.73066767      -1.64756670
H       -1.64882981      -1.84264167      -0.16742781
H       -1.32314395       2.13184870      -0.26429411
12
Frame=13 idx=007081 GeodesicLength=1.0497936504147705 rxn_smarts="[O:1]=[C:2]1[N:3]([H:8])[C:4]([H:9])([H:10])[C@@:5]2([H:11])[O:6][C@@:7]12[H:12]>>[O-:1][C:2]([N:3]([C:4]([C:5](=[O:6])[H:11])([H:9])[H:10])[H:8])=[C+:7][H:12]"
O        0.99111580       2.34484409       0.70163001
C        0.57764943       1.32663055       0.14968845
N        1.12957687       0.11552822      -0.03507178
C        0.31627298      -0.91753886      -0.63345051
C       -0.93185579      -1.07123725       0.20015734
O       -0.95436576      -0.74946150       1.43473881
C       -0.84611206       1.37561234       0.38664628
H        1.88665527      -0.13570045       0.58139691
H        0.86162594      -1.86060348      -0.70840302
H       -0.04087818      -0.71815921      -1.65126379
H       -1.65650264      -1.81339025      -0.16097184
H       -1.33318186       2.10347581      -0.26509687
12
Frame=14 idx=007081 GeodesicLength=1.1314501806263526 rxn_smarts="[O:1]=[C:2]1[N:3]([H:8])[C:4]([H:9])([H:10])[C@@:5]2([H:11])[O:6][C@@:7]12[H:12]>>[O-:1][C:2]([N:3]([C:4]([C:5](=[O:6])[H:11])([H:9])[H:10])[H:8])=[C+:7][H:12]"
O        0.98587578       2.34828009       0.69376231
C        0.58393745       1.32525031       0.14505163
N        1.13792338       0.11322284      -0.03185690
C        0.31885670      -0.91074358      -0.63989696
C       -0.92599323      -1.05461732       0.20031185
O       -0.92985850      -0.74153352       1.44413022
C       -0.84622561       1.34278517       0.37329200
H        1.86704637      -0.15013770       0.61324142
H        0.85776007      -1.85676006      -0.72355432
H       -0.04301085      -0.70566357      -1.65463759
H       -1.66349588      -1.78550807      -0.15476497
H       -1.34281568       2.07542542      -0.26507870
12
Frame=15 idx=007081 GeodesicLength=1.213091024068282 rxn_smarts="[O:1]=[C:2]1[N:3]([H:8])[C:4]([H:9])([H:10])[C@@:5]2([H:11])[O:6][C@@:7]12[H:12]>>[O-:1][C:2]([N:3]([C:4]([C:5](=[O:6])[H:11])([H:9])[H:10])[H:8])=[C+:7][H:12]"
O        0.98142871       2.35205319       0.68461184
C        0.58993591       1.32370447       0.14114145
N        1.14576151       0.11069344      -0.02776664
C        0.32142940      -0.90405878      -0.64597589
C       -0.92034365      -1.03889470       0.20019350
O       -0.90715666      -0.73337899       1.45266912
C       -0.84585744       1.31095414       0.36087381
H        1.84731854      -0.16396234       0.64330293
H        0.85414351      -1.85276289      -0.73825368
H       -0.04472403      -0.69321083      -1.65772718
H       -1.66987477      -1.75893390      -0.14881006
H       -1.35206102       2.04779719      -0.26425920
12
Frame=16 idx=007081 GeodesicLength=1.2947088217122387 rxn_smarts="[O:1]=[C:2]1[N:3]([H:8])[C:4]([H:9])([H:10])[C@@:5]2([H:11])[O:6][C@@:7]12[H:12]>>[O-:1][C:2]([N:3]([C:4]([C:5](=[O:6])[H:11])([H:9])[H:10])[H:8])=[C+:7][H:12]"
O        0.97772384       2.35611842       0.67424822
C        0.59565187       1.32200957       0.13788162
N        1.15310166       0.10796711      -0.02290694
C        0.32399642      -0.89748221      -0.65172205
C       -0.91490054      -1.02402592       0.19981642
O       -0.88610793      -0.72503239       1.46048318
C       -0.84508645       1.28005909       0.34929309
H        1.82752893      -0.17723742       0.67177480
H        0.85078729      -1.84861505      -0.75254165
H       -0.04605086      -0.68081964      -1.66056306
H       -1.67570252      -1.73359934      -0.14311767
H       -1.36094170       2.02065777      -0.26264596
