16
Frame=0 idx=001517 GeodesicLength=0.0 rxn_smarts="[C:1]([C@:2]12[C:3]([H:10])([H:11])[C@@:4]1([H:12])[C:5]([H:13])([H:14])[C:6]2([H:15])[H:16])([H:7])([H:8])[H:9]>>[C:1]([C@@:2]1([H:12])[C:3]([H:10])([H:11])[C:4][C:5]([H:13])([H:14])[C:6]1([H:15])[H:16])([H:7])([H:8])[H:9]"
C        1.91252494      -0.21922273       0.29621430
C        0.42665216      -0.00154203       0.15794951
C       -0.14450209       1.39389545       0.05773817
C       -1.14861193       0.69721449       0.93460057
C       -1.79169146      -0.30094602      -0.05777242
C       -0.50145211      -0.87985044      -0.67802413
H        2.33791354       0.42105027       1.06987788
H        2.40460486       0.02410205      -0.64898272
H        2.14000802      -1.25752065       0.54438123
H        0.44424611       2.16690141       0.54453504
H       -0.46040161       1.67821606      -0.94433304
H       -0.03107557      -0.22836077       1.25817707
H       -2.40782013      -1.05112304       0.43575325
H       -2.42562604       0.24517093      -0.76221153
H       -0.37108517      -0.74722201      -1.75534494
H       -0.38368355      -1.94076300      -0.45255817
16
Frame=1 idx=001517 GeodesicLength=0.05787045832448051 rxn_smarts="[C:1]([C@:2]12[C:3]([H:10])([H:11])[C@@:4]1([H:12])[C:5]([H:13])([H:14])[C:6]2([H:15])[H:16])([H:7])([H:8])[H:9]>>[C:1]([C@@:2]1([H:12])[C:3]([H:10])([H:11])[C:4][C:5]([H:13])([H:14])[C:6]1([H:15])[H:16])([H:7])([H:8])[H:9]"
C        1.91147746      -0.22076157       0.29204868
C        0.42476776      -0.00348094       0.16548328
C       -0.14067040       1.39422313       0.05998002
C       -1.15546610       0.70048367       0.92347387
C       -1.79299188      -0.30052560      -0.06456093
C       -0.49954732      -0.87972819      -0.67743588
H        2.34273277       0.42012248       1.06208496
H        2.39833251       0.02078239      -0.65636742
H        2.14082538      -1.25869910       0.54029420
H        0.44265250       2.16705041       0.55353285
H       -0.45079556       1.68322444      -0.94292012
H       -0.03772217      -0.22158512       1.28214354
H       -2.40052147      -1.04917122       0.44303220
H       -2.43427301       0.23308142      -0.77147446
H       -0.36534520      -0.74348708      -1.75386196
H       -0.38345527      -1.94152912      -0.45545284
16
Frame=2 idx=001517 GeodesicLength=0.11570978888169277 rxn_smarts="[C:1]([C@:2]12[C:3]([H:10])([H:11])[C@@:4]1([H:12])[C:5]([H:13])([H:14])[C:6]2([H:15])[H:16])([H:7])([H:8])[H:9]>>[C:1]([C@@:2]1([H:12])[C:3]([H:10])([H:11])[C:4][C:5]([H:13])([H:14])[C:6]1([H:15])[H:16])([H:7])([H:8])[H:9]"
C        1.91036537      -0.22236981       0.28793770
C        0.42292170      -0.00542608       0.17282736
C       -0.13680249       1.39453142       0.06218003
C       -1.16199514       0.70366353       0.91227991
C       -1.79419539      -0.30020072      -0.07125428
C       -0.49763660      -0.87955912      -0.67701172
H        2.34734694       0.41907694       1.05440484
H        2.39212916       0.01740255      -0.66358346
H        2.14148760      -1.25995589       0.53629316
H        0.44105665       2.16717910       0.56238937
H       -0.44121999       1.68825944      -0.94146054
H       -0.04453787      -0.21425951       1.30622592
H       -2.39303299      -1.04711814       0.45029202
H       -2.44300893       0.22062914      -0.78036861
H       -0.35974037      -0.73960190      -1.75251959
H       -0.38313766      -1.94225094      -0.45863212
16
Frame=3 idx=001517 GeodesicLength=0.17352918756939517 rxn_smarts="[C:1]([C@:2]12[C:3]([H:10])([H:11])[C@@:4]1([H:12])[C:5]([H:13])([H:14])[C:6]2([H:15])[H:16])([H:7])([H:8])[H:9]>>[C:1]([C@@:2]1([H:12])[C:3]([H:10])([H:11])[C:4][C:5]([H:13])([H:14])[C:6]1([H:15])[H:16])([H:7])([H:8])[H:9]"
C        1.90919250      -0.22404951       0.28388114
C        0.42111366      -0.00737936       0.17997855
C       -0.13289835       1.39481911       0.06433850
C       -1.16820448       0.70675356       0.90101994
C       -1.79530553      -0.29996979      -0.07785324
C       -0.49572072      -0.87934349      -0.67675600
H        2.35175943       0.41790818       1.04684473
H        2.38600102       0.01396556      -0.67063194
H        2.14199839      -1.26129447       0.53237397
H        0.43945978       2.16728543       0.57110675
H       -0.43167319       1.69332252      -0.93995456
H       -0.05153239      -0.20636590       1.33042810
H       -2.38535203      -1.04496903       0.45753285
H       -2.45183476       0.20780943      -0.78888510
H       -0.35427098      -0.73556433      -1.75132225
H       -0.38273235      -1.94292792      -0.46210144
16
Frame=4 idx=001517 GeodesicLength=0.2313379489134352 rxn_smarts="[C:1]([C@:2]12[C:3]([H:10])([H:11])[C@@:4]1([H:12])[C:5]([H:13])([H:14])[C:6]2([H:15])[H:16])([H:7])([H:8])[H:9]>>[C:1]([C@@:2]1([H:12])[C:3]([H:10])([H:11])[C:4][C:5]([H:13])([H:14])[C:6]1([H:15])[H:16])([H:7])([H:8])[H:9]"
C        1.90796277      -0.22580297       0.27987923
C        0.41934371      -0.00934305       0.18693280
C       -0.12895819       1.39508505       0.06645537
C       -1.17409881       0.70975226       0.88969781
C       -1.79632528      -0.29983228      -0.08435831
C       -0.49380018      -0.87908162      -0.67667392
H        2.35597381       0.41661102       1.03941168
H        2.37995467       0.01047326      -0.67751356
H        2.14236110      -1.26271850       0.52853367
H        0.43786424       2.16736758       0.57968570
H       -0.42215530       1.69841503      -0.93840198
H       -0.05871501      -0.19788236       1.35475456
H       -2.37747816      -1.04272956       0.46475031
H       -2.46075146       0.19461758      -0.79701141
H       -0.34893752      -0.73137172      -1.75027485
H       -0.38224038      -1.94355972      -0.46586712
16
Frame=5 idx=001517 GeodesicLength=0.28913784666282855 rxn_smarts="[C:1]([C@:2]12[C:3]([H:10])([H:11])[C@@:4]1([H:12])[C:5]([H:13])([H:14])[C:6]2([H:15])[H:16])([H:7])([H:8])[H:9]>>[C:1]([C@@:2]1([H:12])[C:3]([H:10])([H:11])[C:4][C:5]([H:13])([H:14])[C:6]1([H:15])[H:16])([H:7])([H:8])[H:9]"
C        1.90667922      -0.22763287       0.27593174
C        0.41761068      -0.01132004       0.19368823
C       -0.12498201       1.39532739       0.06853145
C       -1.17968284       0.71265688       0.87831585
C       -1.79725807      -0.29978734      -0.09077116
C       -0.49187554      -0.87877344      -0.67677078
H        2.35999318       0.41517916       1.03211237
H        2.37399518       0.00692768      -0.68422961
H        2.14257859      -1.26423208       0.52476807
H        0.43627070       2.16742293       0.58812844
H       -0.41266492       1.70353785      -0.93680219
H       -0.06609662      -0.18878327       1.37920840
H       -2.36940641      -1.04040507       0.47194427
H       -2.46975860       0.18104858      -0.80473699
H       -0.34373939      -0.72702092      -1.74938199
H       -0.38166314      -1.94414543      -0.46993612
16
Frame=6 idx=001517 GeodesicLength=0.3469348848501595 rxn_smarts="[C:1]([C@:2]12[C:3]([H:10])([H:11])[C@@:4]1([H:12])[C:5]([H:13])([H:14])[C:6]2([H:15])[H:16])([H:7])([H:8])[H:9]>>[C:1]([C@@:2]1([H:12])[C:3]([H:10])([H:11])[C:4][C:5]([H:13])([H:14])[C:6]1([H:15])[H:16])([H:7])([H:8])[H:9]"
C        1.90534612      -0.22954117       0.27203772
C        0.41591479      -0.01331281       0.20024220
C       -0.12097015       1.39554466       0.07056754
C       -1.18496229       0.71546646       0.86687748
C       -1.79810706      -0.29983408      -0.09709277
C       -0.48994714      -0.87841988      -0.67705000
H        2.36382189       0.41360750       1.02495283
H        2.36812790       0.00333211      -0.69078241
H        2.14265528      -1.26583845       0.52107194
H        0.43468136       2.16744950       0.59643776
H       -0.40320090       1.70869185      -0.93515434
H       -0.07368981      -0.17904786       1.40379259
H       -2.36113728      -1.03800100       0.47910976
H       -2.47885449       0.16709865      -0.81205054
H       -0.33867623      -0.72251058      -1.74864681
H       -0.38100199      -1.94468490      -0.47431293
16
Frame=7 idx=001517 GeodesicLength=0.40474028371698123 rxn_smarts="[C:1]([C@:2]12[C:3]([H:10])([H:11])[C@@:4]1([H:12])[C:5]([H:13])([H:14])[C:6]2([H:15])[H:16])([H:7])([H:8])[H:9]>>[C:1]([C@@:2]1([H:12])[C:3]([H:10])([H:11])[C:4][C:5]([H:13])([H:14])[C:6]1([H:15])[H:16])([H:7])([H:8])[H:9]"
C        1.90396753      -0.23152983       0.26819625
C        0.41425629      -0.01532359       0.20659127
C       -0.11692267       1.39573546       0.07256485
C       -1.18994226       0.71817910       0.85538555
C       -1.79887511      -0.29997229      -0.10332382
C       -0.48801528      -0.87802128      -0.67751584
H        2.36746373       0.41189039       1.01793890
H        2.36235824      -0.00031094      -0.69717423
H        2.14259480      -1.26754117       0.51744012
H        0.43309701       2.16744464       0.60461578
H       -0.39376284       1.71387784      -0.93345700
H       -0.08150889      -0.16865451       1.42851157
H       -2.35266864      -1.03552226       0.48624441
H       -2.48803632       0.15276502      -0.81894196
H       -0.33374782      -0.71783875      -1.74807287
H       -0.38025778      -1.94517785      -0.47900298
16
Frame=8 idx=001517 GeodesicLength=0.46254856039412234 rxn_smarts="[C:1]([C@:2]12[C:3]([H:10])([H:11])[C@@:4]1([H:12])[C:5]([H:13])([H:14])[C:6]2([H:15])[H:16])([H:7])([H:8])[H:9]>>[C:1]([C@@:2]1([H:12])[C:3]([H:10])([H:11])[C:4][C:5]([H:13])([H:14])[C:6]1([H:15])[H:16])([H:7])([H:8])[H:9]"
C        1.90254671      -0.23360157       0.26440636
C        0.41263437      -0.01735585       0.21273453
C       -0.11283994       1.39589762       0.07452487
C       -1.19462770       0.72079177       0.84384445
C       -1.79956556      -0.30020111      -0.10946691
C       -0.48608017      -0.87757816      -0.67817254
H        2.37092330       0.41002294       1.01107562
H        2.35669019      -0.00399957      -0.70340768
H        2.14240036      -1.26934430       0.51386774
H        0.43151927       2.16740571       0.61266616
H       -0.38434956       1.71909625      -0.93170836
H       -0.08956753      -0.15757535       1.45336632
H       -2.34399834      -1.03297505       0.49334407
H       -2.49730072       0.13804324      -0.82539864
H       -0.32895268      -0.71300278      -1.74766356
H       -0.37943200      -1.94562381      -0.48401244
16
Frame=9 idx=001517 GeodesicLength=0.5203642290552813 rxn_smarts="[C:1]([C@:2]12[C:3]([H:10])([H:11])[C@@:4]1([H:12])[C:5]([H:13])([H:14])[C:6]2([H:15])[H:16])([H:7])([H:8])[H:9]>>[C:1]([C@@:2]1([H:12])[C:3]([H:10])([H:11])[C:4][C:5]([H:13])([H:14])[C:6]1([H:15])[H:16])([H:7])([H:8])[H:9]"
C        1.90108690      -0.23575962       0.26066750
C        0.41104884      -0.01941338       0.21866786
C       -0.10872285       1.39602830       0.07644929
C       -1.19902020       0.72329670       0.83225849
C       -1.80018029      -0.30052241      -0.11552209
C       -0.48414198      -0.87709095      -0.67902693
H        2.37420270       0.40799799       1.00436962
H        2.35112857      -0.00773281      -0.70948415
H        2.14207413      -1.27125229       0.51035066
H        0.42994730       2.16732887       0.62059109
H       -0.37496134       1.72434741      -0.92990600
H       -0.09788120      -0.14577421       1.47836058
H       -2.33512043      -1.03036477       0.50040773
H       -2.50664430       0.12293259      -0.83140891
H       -0.32429127      -0.70799908      -1.74742397
H       -0.37852459      -1.94602234      -0.48935077
16
Frame=10 idx=001517 GeodesicLength=0.5781927725354914 rxn_smarts="[C:1]([C@:2]12[C:3]([H:10])([H:11])[C@@:4]1([H:12])[C:5]([H:13])([H:14])[C:6]2([H:15])[H:16])([H:7])([H:8])[H:9]>>[C:1]([C@@:2]1([H:12])[C:3]([H:10])([H:11])[C:4][C:5]([H:13])([H:14])[C:6]1([H:15])[H:16])([H:7])([H:8])[H:9]"
C        1.89959239      -0.23800569       0.25697671
C        0.40950006      -0.02149878       0.22439005
C       -0.10457127       1.39612581       0.07834130
C       -1.20312736       0.72569519       0.82062979
C       -1.80072281      -0.30093435      -0.12149231
C       -0.48220077      -0.87656045      -0.68008080
H        2.37730743       0.40581033       0.99782414
H        2.34567708      -0.01150666      -0.71540855
H        2.14162094      -1.27326846       0.50688034
H        0.42838321       2.16721133       0.62839640
H       -0.36559585       1.72963207      -0.92804677
H       -0.10647112      -0.13323127       1.50349547
H       -2.32603391      -1.02769554       0.50743159
H       -2.51605944       0.10742671      -0.83696178
H       -0.31976130      -0.70282727      -1.74735512
H       -0.37753728      -1.94637297      -0.49502047
16
Frame=11 idx=001517 GeodesicLength=0.6360252815515428 rxn_smarts="[C:1]([C@:2]12[C:3]([H:10])([H:11])[C@@:4]1([H:12])[C:5]([H:13])([H:14])[C:6]2([H:15])[H:16])([H:7])([H:8])[H:9]>>[C:1]([C@@:2]1([H:12])[C:3]([H:10])([H:11])[C:4][C:5]([H:13])([H:14])[C:6]1([H:15])[H:16])([H:7])([H:8])[H:9]"
C        1.89806716      -0.24034227       0.25333161
C        0.40798808      -0.02361591       0.22990109
C       -0.10038517       1.39618739       0.08020386
C       -1.20695452       0.72798422       0.80896357
C       -1.80119536      -0.30143717      -0.12737899
C       -0.48025614      -0.87598751      -0.68133690
H        2.38024286       0.40345508       0.99144253
H        2.34033881      -0.01531875      -0.72118543
H        2.14104515      -1.27539666       0.50345002
H        0.42682877       2.16704981       0.63608679
H       -0.35625255       1.73494975      -0.92612678
H       -0.11535636      -0.11991678       1.52876982
H       -2.31673958      -1.02497274       0.51440747
H       -2.52553948       0.09152229      -0.84204387
H       -0.31536098      -0.69748536      -1.74745851
H       -0.37647069      -1.94667538      -0.50102628
16
Frame=12 idx=001517 GeodesicLength=0.6938665957942647 rxn_smarts="[C:1]([C@:2]12[C:3]([H:10])([H:11])[C@@:4]1([H:12])[C:5]([H:13])([H:14])[C:6]2([H:15])[H:16])([H:7])([H:8])[H:9]>>[C:1]([C@@:2]1([H:12])[C:3]([H:10])([H:11])[C:4][C:5]([H:13])([H:14])[C:6]1([H:15])[H:16])([H:7])([H:8])[H:9]"
C        1.89651496      -0.24277166       0.24972936
C        0.40651323      -0.02576821       0.23519894
C       -0.09616499       1.39621035       0.08204053
C       -1.21050653       0.73016070       0.79726251
C       -1.80160021      -0.30203132      -0.13318311
C       -0.47830800      -0.87537284      -0.68279873
H        2.38301349       0.40092670       0.98522774
H        2.33511698      -0.01916687      -0.72681929
H        2.14035056      -1.27764049       0.50005230
H        0.42528452       2.16684082       0.64366827
H       -0.34692980       1.74030075      -0.92414207
H       -0.12455816      -0.10580229       1.55418545
H       -2.30723522      -1.02220180       0.52133242
H       -2.53507633       0.07521714      -0.84664491
H       -0.31108917      -0.69197179      -1.74773604
H       -0.37532531      -1.94692919      -0.50737337
16
Frame=13 idx=001517 GeodesicLength=0.7517031415192512 rxn_smarts="[C:1]([C@:2]12[C:3]([H:10])([H:11])[C@@:4]1([H:12])[C:5]([H:13])([H:14])[C:6]2([H:15])[H:16])([H:7])([H:8])[H:9]>>[C:1]([C@@:2]1([H:12])[C:3]([H:10])([H:11])[C:4][C:5]([H:13])([H:14])[C:6]1([H:15])[H:16])([H:7])([H:8])[H:9]"
C        1.89493996      -0.24529657       0.24616712
C        0.40507621      -0.02795952       0.24028276
C       -0.09191026       1.39619193       0.08385472
C       -1.21378778       0.73222099       0.78553446
C       -1.80193978      -0.30271664      -0.13890753
C       -0.47635583      -0.87471699      -0.68446927
H        2.38562450       0.39821989       0.97918293
H        2.33001488      -0.02304886      -0.73231482
H        2.13954118      -1.28000423       0.49667981
H        0.42375310       2.16658073       0.65114471
H       -0.33762905       1.74568469      -0.92208728
H       -0.13410423      -0.09085636       1.57973697
H       -2.29751797      -1.01938959       0.52820030
H       -2.54465947       0.05850926      -0.85074948
H       -0.30694365      -0.68628508      -1.74818876
H       -0.37410181      -1.94713364      -0.51406663
16
Frame=14 idx=001517 GeodesicLength=0.8095344874516871 rxn_smarts="[C:1]([C@:2]12[C:3]([H:10])([H:11])[C@@:4]1([H:12])[C:5]([H:13])([H:14])[C:6]2([H:15])[H:16])([H:7])([H:8])[H:9]>>[C:1]([C@@:2]1([H:12])[C:3]([H:10])([H:11])[C:4][C:5]([H:13])([H:14])[C:6]1([H:15])[H:16])([H:7])([H:8])[H:9]"
C        1.89334639      -0.24791973       0.24264119
C        0.40367809      -0.03019414       0.24515074
C       -0.08762129       1.39612858       0.08565133
C       -1.21680221       0.73416053       0.77378355
C       -1.80221541      -0.30349453      -0.14455228
C       -0.47439920      -0.87402108      -0.68635159
H        2.38808094       0.39532889       0.97330979
H        2.32503544      -0.02696262      -0.73767764
H        2.13862148      -1.28249182       0.49332407
H        0.42223572       2.16626536       0.65852327
H       -0.32834935       1.75110149      -0.91995655
H       -0.14402213      -0.07504408       1.60542327
H       -2.28758661      -1.01654179       0.53500633
H       -2.55427849       0.04139691      -0.85434606
H       -0.30292324      -0.68042332      -1.74881798
H       -0.37280012      -1.94728866      -0.52111142
16
Frame=15 idx=001517 GeodesicLength=0.8673520305486188 rxn_smarts="[C:1]([C@:2]12[C:3]([H:10])([H:11])[C@@:4]1([H:12])[C:5]([H:13])([H:14])[C:6]2([H:15])[H:16])([H:7])([H:8])[H:9]>>[C:1]([C@@:2]1([H:12])[C:3]([H:10])([H:11])[C:4][C:5]([H:13])([H:14])[C:6]1([H:15])[H:16])([H:7])([H:8])[H:9]"
C        1.89173816      -0.25064348       0.23914760
C        0.40231955      -0.03247625       0.24980249
C       -0.08329805       1.39601700       0.08743532
C       -1.21955396       0.73597549       0.76201533
C       -1.80242904      -0.30436531      -0.15011930
C       -0.47243758      -0.87328584      -0.68844805
H        2.39038804       0.39224839       0.96760970
H        2.32018069      -0.03090561      -0.74291373
H        2.13759595      -1.28510708       0.48997598
H        0.42073400       2.16589061       0.66581097
H       -0.31908998       1.75655066      -0.91774384
H       -0.15434005      -0.05833334       1.63123989
H       -2.27744008      -1.01366378       0.54174445
H       -2.56392112       0.02387778      -0.85742107
H       -0.29902580      -0.67438554      -1.74962386
H       -0.37142073      -1.94739368      -0.52851188
16
Frame=16 idx=001517 GeodesicLength=0.9251452691302268 rxn_smarts="[C:1]([C@:2]12[C:3]([H:10])([H:11])[C@@:4]1([H:12])[C:5]([H:13])([H:14])[C:6]2([H:15])[H:16])([H:7])([H:8])[H:9]>>[C:1]([C@@:2]1([H:12])[C:3]([H:10])([H:11])[C:4][C:5]([H:13])([H:14])[C:6]1([H:15])[H:16])([H:7])([H:8])[H:9]"
C        1.89011964      -0.25347063       0.23568192
C        0.40100195      -0.03481048       0.25423734
C       -0.07894029       1.39585333       0.08921242
C       -1.22204700       0.73766146       0.75023630
C       -1.80258208      -0.30532982      -0.15560954
C       -0.47047035      -0.87251228      -0.69076079
H        2.39255146       0.38897280       0.96208341
H        2.31545284      -0.03487540      -0.74802949
H        2.13646947      -1.28785421       0.48662578
H        0.41925018       2.16545189       0.67301498
H       -0.30985112       1.76203157      -0.91544160
H       -0.16509152      -0.04068828       1.65718016
H       -2.26707638      -1.01076218       0.54840924
H       -2.57357347       0.00595078      -0.85996128
H       -0.29524951      -0.66817039      -1.75060636
H       -0.36996383      -1.94744815      -0.53627248
