16
Frame=0 idx=010049 GeodesicLength=0.0 rxn_smarts="[C:1]([C:2]([N:3]([C:4](=[O:5])[O:6][C:7]([H:14])([H:15])[H:16])[H:13])([H:11])[H:12])([H:8])([H:9])[H:10]>>[C:1]([C-:2]([N+:3]([C:4](=[O:5])[O:6][C:7]([H:14])([H:15])[H:16])([H:12])[H:13])[H:11])([H:8])([H:9])[H:10]"
C       -2.46675178       0.85375884       0.90411360
C       -1.94090441      -0.52520689       0.71332992
N       -0.56116308      -0.31413021      -0.73414961
C        0.72562902      -0.66013518      -0.40879577
O        1.03966705      -1.61367875       0.25048891
O        1.58836922       0.23134239      -0.92489283
C        2.96315822      -0.02848516      -0.64726000
H       -3.04190078       1.21929803       0.05126908
H       -3.18691087       0.72812478       1.72499144
H       -1.74625025       1.61430156       1.22367116
H       -1.19187542      -0.77514609       1.47246102
H       -1.39788647      -0.99717178      -0.57906179
H       -0.70450768       0.51187267      -1.28995098
H        3.51539479       0.77712252      -1.12405707
H        3.14302833      -0.03026760       0.42763280
H        3.26290406      -0.99159917      -1.05978993
16
Frame=1 idx=010049 GeodesicLength=0.09204565577323506 rxn_smarts="[C:1]([C:2]([N:3]([C:4](=[O:5])[O:6][C:7]([H:14])([H:15])[H:16])[H:13])([H:11])[H:12])([H:8])([H:9])[H:10]>>[C:1]([C-:2]([N+:3]([C:4](=[O:5])[O:6][C:7]([H:14])([H:15])[H:16])([H:12])[H:13])[H:11])([H:8])([H:9])[H:10]"
C       -2.44153491       0.86182064       0.90182859
C       -1.93753180      -0.52247478       0.68366633
N       -0.57129460      -0.32891443      -0.72241662
C        0.71911277      -0.65060116      -0.37972029
O        1.04196389      -1.60362011       0.27608799
O        1.57386396       0.24196661      -0.90566660
C        2.95262895      -0.01626485      -0.64634590
H       -3.00421721       1.25423826       0.05239812
H       -3.16820424       0.73794804       1.71659656
H       -1.70481921       1.60066569       1.23560980
H       -1.22177709      -0.81510889       1.45882091
H       -1.41533289      -1.03064050      -0.59791999
H       -0.71515634       0.47794085      -1.30603664
H        3.49783954       0.78935749      -1.13108406
H        3.14627245      -0.01696864       0.42614457
H        3.24818673      -0.97934422      -1.06196276
16
Frame=2 idx=010049 GeodesicLength=0.18432141630783463 rxn_smarts="[C:1]([C:2]([N:3]([C:4](=[O:5])[O:6][C:7]([H:14])([H:15])[H:16])[H:13])([H:11])[H:12])([H:8])([H:9])[H:10]>>[C:1]([C-:2]([N+:3]([C:4](=[O:5])[O:6][C:7]([H:14])([H:15])[H:16])([H:12])[H:13])[H:11])([H:8])([H:9])[H:10]"
C       -2.41544920       0.86917641       0.89990876
C       -1.93330174      -0.51972487       0.65505997
N       -0.58147166      -0.34386729      -0.71232142
C        0.71195080      -0.64183878      -0.35292158
O        1.04326768      -1.59318475       0.30115161
O        1.55907818       0.25155007      -0.88834501
C        2.94133596      -0.00396375      -0.64489924
H       -2.96490543       1.28780167       0.05412570
H       -3.14863249       0.74778766       1.70857014
H       -1.66313134       1.58592527       1.24735916
H       -1.25137429      -0.85342269       1.44341963
H       -1.43300349      -1.06262888      -0.61561783
H       -0.72493986       0.44449106      -1.32127661
H        3.47970287       0.80132689      -1.13771114
H        3.14701633      -0.00203484       0.42533348
H        3.23385768      -0.96739321      -1.06183559
16
Frame=3 idx=010049 GeodesicLength=0.27697598839268334 rxn_smarts="[C:1]([C:2]([N:3]([C:4](=[O:5])[O:6][C:7]([H:14])([H:15])[H:16])[H:13])([H:11])[H:12])([H:8])([H:9])[H:10]>>[C:1]([C-:2]([N+:3]([C:4](=[O:5])[O:6][C:7]([H:14])([H:15])[H:16])([H:12])[H:13])[H:11])([H:8])([H:9])[H:10]"
C       -2.38758175       0.87613693       0.89848000
C       -1.92817562      -0.51698163       0.62758246
N       -0.59217209      -0.35970235      -0.70434509
C        0.70386246      -0.63495457      -0.32969441
O        1.04337570      -1.58321534       0.32473885
O        1.54351941       0.25952118      -0.87369625
C        2.92883853       0.00898294      -0.64225556
H       -2.92323733       1.32050086       0.05676825
H       -3.12692443       0.75844163       1.70143306
H       -1.61972805       1.57005370       1.25862425
H       -1.28016204      -0.89015797       1.42625937
H       -1.45185524      -1.09370843      -0.63224411
H       -0.73463558       0.41072246      -1.33654482
H        3.46040145       0.81391774      -1.14291653
H        3.14377604       0.01546282       0.42612678
H        3.22069854      -0.95501997      -1.05831625
16
Frame=4 idx=010049 GeodesicLength=0.37021663041191283 rxn_smarts="[C:1]([C:2]([N:3]([C:4](=[O:5])[O:6][C:7]([H:14])([H:15])[H:16])[H:13])([H:11])[H:12])([H:8])([H:9])[H:10]>>[C:1]([C-:2]([N+:3]([C:4](=[O:5])[O:6][C:7]([H:14])([H:15])[H:16])([H:12])[H:13])[H:11])([H:8])([H:9])[H:10]"
C       -2.35681526       0.88303389       0.89765074
C       -1.92213329      -0.51424672       0.60132748
N       -0.60397500      -0.37723103      -0.69903366
C        0.69452561      -0.63125981      -0.31151055
O        1.04203624      -1.57474595       0.34569908
O        1.52661070       0.26512938      -0.86269143
C        2.91460863       0.02325339      -0.63765194
H       -2.87824381       1.35286243       0.06062792
H       -3.10154086       0.77082790       1.69577060
H       -1.57287826       1.55294854       1.26897511
H       -1.30768065      -0.92536838       1.40740304
H       -1.47304499      -1.12441322      -0.64779741
H       -0.74512116       0.37569255      -1.35273471
H        3.43925271       0.82817406      -1.14553261
H        3.13474820       0.03667295       0.42959551
H        3.20965118      -0.94132998      -1.05009716
16
Frame=5 idx=010049 GeodesicLength=0.4643478493708245 rxn_smarts="[C:1]([C:2]([N:3]([C:4](=[O:5])[O:6][C:7]([H:14])([H:15])[H:16])[H:13])([H:11])[H:12])([H:8])([H:9])[H:10]>>[C:1]([C-:2]([N+:3]([C:4](=[O:5])[O:6][C:7]([H:14])([H:15])[H:16])([H:12])[H:13])[H:11])([H:8])([H:9])[H:10]"
C       -2.32185787       0.89017800       0.89748230
C       -1.91516032      -0.51150612       0.57639039
N       -0.61750601      -0.39729168      -0.69692856
C        0.68362182      -0.63218528      -0.29991105
O        1.03897981      -1.56891691       0.36277418
O        1.50775194       0.26746761      -0.85645244
C        2.89801434       0.03959713      -0.63028053
H       -2.82868372       1.38539162       0.06593069
H       -3.07074752       0.78590534       1.69214089
H       -1.52066272       1.53438505       1.27788682
H       -1.33355740      -0.95908673       1.38698972
H       -1.49785417      -1.15518654      -0.66217139
H       -0.75732322       0.33841343      -1.37067007
H        3.41546217       0.84522339      -1.14433694
H        3.11783190       0.06289322       0.43684858
H        3.20169098      -0.92528152      -1.03569258
16
Frame=6 idx=010049 GeodesicLength=0.5587141746522899 rxn_smarts="[C:1]([C:2]([N:3]([C:4](=[O:5])[O:6][C:7]([H:14])([H:15])[H:16])[H:13])([H:11])[H:12])([H:8])([H:9])[H:10]>>[C:1]([C-:2]([N+:3]([C:4](=[O:5])[O:6][C:7]([H:14])([H:15])[H:16])([H:12])[H:13])[H:11])([H:8])([H:9])[H:10]"
C       -2.28748808       0.89607569       0.89724135
C       -1.90814544      -0.50906921       0.55209748
N       -0.63040173      -0.41632114      -0.69487369
C        0.67294841      -0.63244491      -0.28836395
O        1.03557402      -1.56150121       0.38118304
O        1.48947010       0.26992163      -0.85046371
C        2.88180089       0.05530921      -0.62355186
H       -2.77814498       1.41603178       0.07089485
H       -3.04118519       0.79990957       1.68773160
H       -1.47035578       1.51431004       1.28726172
H       -1.35986147      -0.99089864       1.36591369
H       -1.52298101      -1.18401125      -0.67564583
H       -0.76850992       0.30296555      -1.38688563
H        3.39239065       0.86087398      -1.14446898
H        3.10148668       0.08904164       0.44331284
H        3.19340285      -0.91019274      -1.02138291
16
Frame=7 idx=010049 GeodesicLength=0.6537045530648298 rxn_smarts="[C:1]([C:2]([N:3]([C:4](=[O:5])[O:6][C:7]([H:14])([H:15])[H:16])[H:13])([H:11])[H:12])([H:8])([H:9])[H:10]>>[C:1]([C-:2]([N+:3]([C:4](=[O:5])[O:6][C:7]([H:14])([H:15])[H:16])([H:12])[H:13])[H:11])([H:8])([H:9])[H:10]"
C       -2.25164608       0.90135289       0.89714908
C       -1.90080088      -0.50684929       0.52868663
N       -0.64368112      -0.43583443      -0.69403033
C        0.66184930      -0.63437883      -0.27954514
O        1.03130428      -1.55440368       0.39871261
O        1.47073580       0.27104275      -0.84655062
C        2.86481689       0.07159534      -0.61602797
H       -2.72496788       1.44562279       0.07612721
H       -3.00997077       0.81450711       1.68364591
H       -1.41885290       1.49267907       1.29624077
H       -1.38565002      -1.02093823       1.34411182
H       -1.55011298      -1.21171453      -0.68814682
H       -0.78000968       0.26757473      -1.40294293
H        3.36861298       0.87700846      -1.14372985
H        3.08213649       0.11721072       0.45088052
H        3.18623656      -0.89447485      -1.00458089
16
Frame=8 idx=010049 GeodesicLength=0.7496814891293329 rxn_smarts="[C:1]([C:2]([N:3]([C:4](=[O:5])[O:6][C:7]([H:14])([H:15])[H:16])[H:13])([H:11])[H:12])([H:8])([H:9])[H:10]>>[C:1]([C-:2]([N+:3]([C:4](=[O:5])[O:6][C:7]([H:14])([H:15])[H:16])([H:12])[H:13])[H:11])([H:8])([H:9])[H:10]"
C       -2.21260501       0.90641678       0.89723914
C       -1.89291967      -0.50474111       0.50632709
N       -0.65808380      -0.45697527      -0.69515214
C        0.64990438      -0.63986642      -0.27543791
O        1.02581551      -1.54913898       0.41361199
O        1.45077418       0.26966058      -0.84598868
C        2.84604481       0.08941941      -0.60661417
H       -2.66754811       1.47465803       0.08189749
H       -2.97473923       0.83099302       1.68058197
H       -1.36370100       1.46926730       1.30397834
H       -1.41034333      -1.04916293       1.32169217
H       -1.58063038      -1.23875019      -0.69943144
H       -0.79283099       0.23085997      -1.41984786
H        3.34287332       0.89513643      -1.14036310
H        3.05682280       0.14886541       0.46089890
H        3.18116651      -0.87664204      -0.98339180
16
Frame=9 idx=010049 GeodesicLength=0.8467366872713005 rxn_smarts="[C:1]([C:2]([N:3]([C:4](=[O:5])[O:6][C:7]([H:14])([H:15])[H:16])[H:13])([H:11])[H:12])([H:8])([H:9])[H:10]>>[C:1]([C-:2]([N+:3]([C:4](=[O:5])[O:6][C:7]([H:14])([H:15])[H:16])([H:12])[H:13])[H:11])([H:8])([H:9])[H:10]"
C       -2.17086092       0.91104604       0.89731468
C       -1.88463826      -0.50282077       0.48487965
N       -0.67331433      -0.47927797      -0.69772904
C        0.63743005      -0.64832469      -0.27511689
O        1.01934006      -1.54529750       0.42655247
O        1.42995695       0.26619584      -0.84810307
C        2.82574034       0.10850631      -0.59573210
H       -2.60613038       1.50281381       0.08778190
H       -2.93617815       0.84890434       1.67806996
H       -1.30574280       1.44397414       1.31066717
H       -1.43420643      -1.07557191       1.29898270
H       -1.61428088      -1.26473595      -0.70952336
H       -0.80670029       0.19335881      -1.43716037
H        3.31548722       0.91485939      -1.13499651
H        3.02650442       0.18328380       0.47272746
H        3.17759338      -0.85691368      -0.95861465
16
Frame=10 idx=010049 GeodesicLength=0.9449054914539351 rxn_smarts="[C:1]([C:2]([N:3]([C:4](=[O:5])[O:6][C:7]([H:14])([H:15])[H:16])[H:13])([H:11])[H:12])([H:8])([H:9])[H:10]>>[C:1]([C-:2]([N+:3]([C:4](=[O:5])[O:6][C:7]([H:14])([H:15])[H:16])([H:12])[H:13])[H:11])([H:8])([H:9])[H:10]"
C       -2.12668743       0.91509276       0.89720623
C       -1.87599578      -0.50110615       0.46425533
N       -0.68913365      -0.50247528      -0.70140297
C        0.62466592      -0.65941996      -0.27796574
O        1.01204931      -1.54266162       0.43789075
O        1.40852029       0.26093800      -0.85233652
C        2.80396475       0.12869925      -0.58363218
H       -2.54077825       1.52980048       0.09345218
H       -2.89466324       0.86799743       1.67576203
H       -1.24553348       1.41670181       1.31637245
H       -1.45736549      -1.10010530       1.27624913
H       -1.65085066      -1.28935693      -0.71839410
H       -0.82139100       0.15534737      -1.45460224
H        3.28652323       0.93599143      -1.12792593
H        2.99167100       0.21985548       0.48591442
H        3.17500447      -0.83529874      -0.93084283
16
Frame=11 idx=010049 GeodesicLength=1.0446345153755898 rxn_smarts="[C:1]([C:2]([N:3]([C:4](=[O:5])[O:6][C:7]([H:14])([H:15])[H:16])[H:13])([H:11])[H:12])([H:8])([H:9])[H:10]>>[C:1]([C-:2]([N+:3]([C:4](=[O:5])[O:6][C:7]([H:14])([H:15])[H:16])([H:12])[H:13])[H:11])([H:8])([H:9])[H:10]"
C       -2.07932488       0.91858231       0.89680399
C       -1.86689057      -0.49954502       0.44445399
N       -0.70577141      -0.52685377      -0.70629959
C        0.61154134      -0.67380376      -0.28456300
O        1.00384240      -1.54176634       0.44703203
O        1.38632115       0.25334145      -0.85918927
C        2.78020196       0.15035276      -0.56991421
H       -2.47076931       1.55555368       0.09883924
H       -2.84906509       0.88861018       1.67381994
H       -1.18210729       1.38722863       1.32059518
H       -1.47967560      -1.12277703       1.25362860
H       -1.69091762      -1.31242984      -0.72588061
H       -0.83725842       0.11646839      -1.47238813
H        3.25540530       0.95902719      -1.11859924
H        2.95095165       0.25911109       0.50081982
H        3.17351636      -0.81109992      -0.89915873
16
Frame=12 idx=010049 GeodesicLength=1.1459216690109593 rxn_smarts="[C:1]([C:2]([N:3]([C:4](=[O:5])[O:6][C:7]([H:14])([H:15])[H:16])[H:13])([H:11])[H:12])([H:8])([H:9])[H:10]>>[C:1]([C-:2]([N+:3]([C:4](=[O:5])[O:6][C:7]([H:14])([H:15])[H:16])([H:12])[H:13])[H:11])([H:8])([H:9])[H:10]"
C       -2.02933919       0.92132741       0.89588905
C       -1.85727858      -0.49815279       0.42537341
N       -0.72276993      -0.55199781      -0.71191104
C        0.59839468      -0.69077298      -0.29386769
O        0.99501100      -1.54220085       0.45451400
O        1.36367010       0.24403933      -0.86763548
C        2.75454578       0.17313571      -0.55500779
H       -2.39633440       1.57966107       0.10347759
H       -2.80022329       0.91035637       1.67160443
H       -1.11656895       1.35550485       1.32365158
H       -1.50120236      -1.14344867       1.23137858
H       -1.73380700      -1.33356271      -0.73192870
H       -0.85380341       0.07713869      -1.49006036
H        3.22219460       0.98361399      -1.10744784
H        2.90532682       0.29988487       0.51671230
H        3.17218414      -0.78452649      -0.86474205
16
Frame=13 idx=010049 GeodesicLength=1.2486161144513837 rxn_smarts="[C:1]([C:2]([N:3]([C:4](=[O:5])[O:6][C:7]([H:14])([H:15])[H:16])[H:13])([H:11])[H:12])([H:8])([H:9])[H:10]>>[C:1]([C-:2]([N+:3]([C:4](=[O:5])[O:6][C:7]([H:14])([H:15])[H:16])([H:12])[H:13])[H:11])([H:8])([H:9])[H:10]"
C       -1.97776986       0.92304651       0.89438752
C       -1.84731163      -0.49697230       0.40688870
N       -0.73969597      -0.57718679      -0.71769295
C        0.58555582      -0.70924726      -0.30461340
O        0.98582529      -1.54328381       0.46114150
O        1.34116621       0.23361253      -0.87696672
C        2.72760416       0.19651896      -0.53951564
H       -2.31865841       1.60156544       0.10714552
H       -2.74929807       0.93243805       1.66883421
H       -1.05037883       1.32174432       1.32576990
H       -1.52220807      -1.16219221       1.20966101
H       -1.77887791      -1.35218624      -0.73669700
H       -0.87049882       0.03820297      -1.50709889
H        3.18767876       1.00893793      -1.09543191
H        2.85639693       0.34125103       0.53277485
H        3.17047041      -0.75624913      -0.82858669
16
Frame=14 idx=010049 GeodesicLength=1.3526068946164185 rxn_smarts="[C:1]([C:2]([N:3]([C:4](=[O:5])[O:6][C:7]([H:14])([H:15])[H:16])[H:13])([H:11])[H:12])([H:8])([H:9])[H:10]>>[C:1]([C-:2]([N+:3]([C:4](=[O:5])[O:6][C:7]([H:14])([H:15])[H:16])([H:12])[H:13])[H:11])([H:8])([H:9])[H:10]"
C       -1.92533408       0.92359887       0.89228286
C       -1.83698026      -0.49601299       0.38891940
N       -0.75620077      -0.60196574      -0.72330344
C        0.57323688      -0.72849409      -0.31597765
O        0.97648312      -1.54459768       0.46731240
O        1.31917815       0.22239037      -0.88674594
C        2.69970814       0.22012389      -0.52381217
H       -2.23866038       1.62087858       0.10977953
H       -2.69704113       0.95435521       1.66534356
H       -0.98459613       1.28621706       1.32712947
H       -1.54269519      -1.17903477       1.18853004
H       -1.82554691      -1.36789145      -0.74032238
H       -0.88692962       0.00016298      -1.52317039
H        3.15228413       1.03441744      -1.08310900
H        2.80509366       0.38260982       0.54847671
H        3.16800039      -0.72675751      -0.79133301
16
Frame=15 idx=010049 GeodesicLength=1.4574438787890294 rxn_smarts="[C:1]([C:2]([N:3]([C:4](=[O:5])[O:6][C:7]([H:14])([H:15])[H:16])[H:13])([H:11])[H:12])([H:8])([H:9])[H:10]>>[C:1]([C-:2]([N+:3]([C:4](=[O:5])[O:6][C:7]([H:14])([H:15])[H:16])([H:12])[H:13])[H:11])([H:8])([H:9])[H:10]"
C       -1.87342790       0.92281197       0.88959272
C       -1.82646722      -0.49533268       0.37138130
N       -0.77180674      -0.62567701      -0.72822631
C        0.56173155      -0.74724588      -0.32659976
O        0.96730582      -1.54532069       0.47387615
O        1.29817470       0.21129768      -0.89593443
C        2.67173367       0.24332348      -0.50861320
H       -2.15788343       1.63719676       0.11129685
H       -2.64519948       0.97535202       1.66075821
H       -0.92107691       1.24934499       1.32826711
H       -1.56284293      -1.19402999       1.16804590
H       -1.87291958      -1.38036633      -0.74300190
H       -0.90247273      -0.03628505      -1.53779592
H        3.11702361       1.05918599      -1.07142257
H        2.75377176       0.42275681       0.56298610
H        3.16435581      -0.69701206      -0.75461024
16
Frame=16 idx=010049 GeodesicLength=1.5630925578584514 rxn_smarts="[C:1]([C:2]([N:3]([C:4](=[O:5])[O:6][C:7]([H:14])([H:15])[H:16])[H:13])([H:11])[H:12])([H:8])([H:9])[H:10]>>[C:1]([C-:2]([N+:3]([C:4](=[O:5])[O:6][C:7]([H:14])([H:15])[H:16])([H:12])[H:13])[H:11])([H:8])([H:9])[H:10]"
C       -1.82218488       0.92074792       0.88639510
C       -1.81577322      -0.49494191       0.35426234
N       -0.78651349      -0.64834215      -0.73250311
C        0.55103268      -0.76546230      -0.33645693
O        0.95833584      -1.54551803       0.48076914
O        1.27821409       0.20024995      -0.90468360
C        2.64377825       0.26609898      -0.49392667
H       -2.07669063       1.65053374       0.11181666
H       -2.59382581       0.99541142       1.65520893
H       -0.85992854       1.21134815       1.32924152
H       -1.58256802      -1.20733083       1.14820315
H       -1.92094862      -1.38951876      -0.74481649
H       -0.91713068      -0.07118211      -1.55109490
H        3.08203149       1.08318828      -1.06043380
H        2.70247439       0.46182672       0.57632682
H        3.15969715      -0.66710907      -0.71830816
