14
Frame=0 idx=006181 GeodesicLength=0.0 rxn_smarts="[O:1]([C@:2]12[C:3]([H:8])([H:9])[C@@:4]1([H:10])[C:5]([H:11])([H:12])[C:6]2([H:13])[H:14])[H:7]>>[O:1]([C:2](=[C:3]([H:8])[H:9])[C:4]1([H:10])[C:5]([H:11])([H:12])[C:6]1([H:13])[H:14])[H:7]"
O        0.76838223       0.78711572       1.58922820
C        0.47035058       0.48297542       0.26219227
C        1.36246247       0.86219195      -0.73747473
C       -0.99245884       0.65699409      -0.11607616
C       -1.58354519      -0.68454844       0.13303274
C       -0.11945456      -1.06293485       0.04084983
H        1.71365150       0.64383091       1.69965174
H        1.99651259       1.73383461      -0.62023424
H        1.36249005       0.35421058      -1.68988377
H       -1.20256125       1.21943038      -1.02205219
H       -2.02140617      -0.81763362       1.12147933
H       -2.23432602      -1.09353243      -0.63608376
H        0.29218660      -1.60658088       0.88806100
H        0.18771602      -1.47535347      -0.91269026
14
Frame=1 idx=006181 GeodesicLength=0.07230112683977596 rxn_smarts="[O:1]([C@:2]12[C:3]([H:8])([H:9])[C@@:4]1([H:10])[C:5]([H:11])([H:12])[C:6]2([H:13])[H:14])[H:7]>>[O:1]([C:2](=[C:3]([H:8])[H:9])[C:4]1([H:10])[C:5]([H:11])([H:12])[C:6]1([H:13])[H:14])[H:7]"
O        0.77859366       0.77459509       1.59741969
C        0.48426220       0.47186191       0.27203879
C        1.34561876       0.87972598      -0.74246019
C       -0.96658758       0.64674949      -0.13061528
C       -1.58260580      -0.68153176       0.12942309
C       -0.12355445      -1.07855945       0.04273410
H        1.72792485       0.65704772       1.70237675
H        1.97469524       1.75393773      -0.61822646
H        1.35721984       0.37191132      -1.69504432
H       -1.19387154       1.21675197      -1.02670432
H       -2.02484968      -0.79920296       1.11751397
H       -2.23628227      -1.08441719      -0.64046158
H        0.27547861      -1.62198375       0.89598855
H        0.18395816      -1.50688610      -0.90398280
14
Frame=2 idx=006181 GeodesicLength=0.14460543799029568 rxn_smarts="[O:1]([C@:2]12[C:3]([H:8])([H:9])[C@@:4]1([H:10])[C:5]([H:11])([H:12])[C:6]2([H:13])[H:14])[H:7]>>[O:1]([C:2](=[C:3]([H:8])[H:9])[C:4]1([H:10])[C:5]([H:11])([H:12])[C:6]1([H:13])[H:14])[H:7]"
O        0.78846340       0.76225614       1.60476603
C        0.49841101       0.46082618       0.28079483
C        1.32932994       0.89666695      -0.74692505
C       -0.94060311       0.63583885      -0.14537490
C       -1.58140138      -0.67851793       0.12590119
C       -0.12769373      -1.09425037       0.04426161
H        1.74105181       0.67082838       1.70517315
H        1.95294129       1.77375046      -0.61570660
H        1.35285240       0.39002240      -1.70009764
H       -1.18578308       1.21448449      -1.03022121
H       -2.02735441      -0.78046309       1.11373431
H       -2.23823397      -1.07532648      -0.64446556
H        0.25882387      -1.63707999       0.90354032
H        0.17919597      -1.53903600      -0.89538046
14
Frame=3 idx=006181 GeodesicLength=0.21691859548474543 rxn_smarts="[O:1]([C@:2]12[C:3]([H:8])([H:9])[C@@:4]1([H:10])[C:5]([H:11])([H:12])[C:6]2([H:13])[H:14])[H:7]>>[O:1]([C:2](=[C:3]([H:8])[H:9])[C:4]1([H:10])[C:5]([H:11])([H:12])[C:6]1([H:13])[H:14])[H:7]"
O        0.79798543       0.75009313       1.61129050
C        0.51279266       0.44987097       0.28849649
C        1.31364766       0.91301760      -0.75090719
C       -0.91451364       0.62424159      -0.16041032
C       -1.57992685      -0.67550998       0.12244880
C       -0.13186761      -1.11001752       0.04545930
H        1.75302249       0.68514939       1.70805298
H        1.93121333       1.79329497      -0.61271677
H        1.34930941       0.40860629      -1.70509599
H       -1.17820764       1.21264143      -1.03254062
H       -2.02892771      -0.76141365       1.11009540
H       -2.24015880      -1.06626343      -0.64812025
H        0.24223407      -1.65185731       0.91075495
H        0.17339719      -1.57185348      -0.88680726
14
Frame=4 idx=006181 GeodesicLength=0.28923656566664 rxn_smarts="[O:1]([C@:2]12[C:3]([H:8])([H:9])[C@@:4]1([H:10])[C:5]([H:11])([H:12])[C:6]2([H:13])[H:14])[H:7]>>[O:1]([C:2](=[C:3]([H:8])[H:9])[C:4]1([H:10])[C:5]([H:11])([H:12])[C:6]1([H:13])[H:14])[H:7]"
O        0.80716900       0.73809780       1.61700450
C        0.52740518       0.43899839       0.29517128
C        1.29861018       0.92877529      -0.75444743
C       -0.88832061       0.61193798      -0.17577486
C       -1.57817560      -0.67250550       0.11904894
C       -0.13607301      -1.12587171       0.04635273
H        1.76381954       0.69997118       1.71101632
H        1.90946016       1.81262786      -0.60926870
H        1.34653142       0.42770813      -1.71008529
H       -1.17105681       1.21121749      -1.03361453
H       -2.02957405      -0.74204547       1.10656738
H       -2.24204130      -1.05722921      -0.65144659
H        0.22571769      -1.66630277       0.91766980
H        0.16652820      -1.60537947      -0.87819356
14
Frame=5 idx=006181 GeodesicLength=0.3615631962664689 rxn_smarts="[O:1]([C@:2]12[C:3]([H:8])([H:9])[C@@:4]1([H:10])[C:5]([H:11])([H:12])[C:6]2([H:13])[H:14])[H:7]>>[O:1]([C:2](=[C:3]([H:8])[H:9])[C:4]1([H:10])[C:5]([H:11])([H:12])[C:6]1([H:13])[H:14])[H:7]"
O        0.81601153       0.72626492       1.62192056
C        0.54224106       0.42821084       0.30085027
C        1.28424057       0.94395621      -0.75759805
C       -0.86202102       0.59890218      -0.19153891
C       -1.57613829      -0.66950402       0.11567749
C       -0.14030578      -1.14182486       0.04696586
H        1.77343439       0.71526357       1.71406275
H        1.88762917       1.83178963      -0.60538443
H        1.34446885       0.44735011      -1.71510871
H       -1.16424443       1.21022188      -1.03333379
H       -2.02929630      -0.72234727       1.10309951
H       -2.24385829      -1.04822640      -0.65447293
H        0.20928195      -1.68040339       0.92432390
H        0.15855660      -1.63965340      -0.86946352
14
Frame=6 idx=006181 GeodesicLength=0.4338934300688405 rxn_smarts="[O:1]([C@:2]12[C:3]([H:8])([H:9])[C@@:4]1([H:10])[C:5]([H:11])([H:12])[C:6]2([H:13])[H:14])[H:7]>>[O:1]([C:2](=[C:3]([H:8])[H:9])[C:4]1([H:10])[C:5]([H:11])([H:12])[C:6]1([H:13])[H:14])[H:7]"
O        0.82451420       0.71458976       1.62605166
C        0.55729767       0.41751179       0.30555896
C        1.27054809       0.95858605      -0.76039620
C       -0.83560622       0.58511006      -0.20775880
C       -1.57380027      -0.66650278       0.11231217
C       -0.14455866      -1.15788868       0.04731618
H        1.78184046       0.73099788       1.71719106
H        1.86567122       1.85078165      -0.60109791
H        1.34307419       0.46757321      -1.72018868
H       -1.15769143       1.20964732      -1.03161668
H       -2.02808424      -0.70231032       1.09964760
H       -2.24558817      -1.03924935      -0.65722368
H        0.19293934      -1.69415057       0.93074456
H        0.14944381      -1.67469603      -0.86054025
14
Frame=7 idx=006181 GeodesicLength=0.5062311948582822 rxn_smarts="[O:1]([C@:2]12[C:3]([H:8])([H:9])[C@@:4]1([H:10])[C:5]([H:11])([H:12])[C:6]2([H:13])[H:14])[H:7]>>[O:1]([C:2](=[C:3]([H:8])[H:9])[C:4]1([H:10])[C:5]([H:11])([H:12])[C:6]1([H:13])[H:14])[H:7]"
O        0.83267171       0.70307271       1.62940490
C        0.57256574       0.40690580       0.30932304
C        1.25753486       0.97269123      -0.76289567
C       -0.80906091       0.57053138      -0.22451756
C       -1.57114335      -0.66349794       0.10892505
C       -0.14882522      -1.17407705       0.04741958
H        1.78900997       0.74714772       1.72039391
H        1.84352852       1.86961945      -0.59643243
H        1.34231386       0.48839177      -1.72535215
H       -1.15131243       1.20948980      -1.02831374
H       -2.02592446      -0.68191621       1.09615794
H       -2.24720722      -1.03029637      -0.65972871
H        0.17669786      -1.70753546       0.93696017
H        0.13915107      -1.71052686      -0.85134432
14
Frame=8 idx=006181 GeodesicLength=0.5785523475605842 rxn_smarts="[O:1]([C@:2]12[C:3]([H:8])([H:9])[C@@:4]1([H:10])[C:5]([H:11])([H:12])[C:6]2([H:13])[H:14])[H:7]>>[O:1]([C:2](=[C:3]([H:8])[H:9])[C:4]1([H:10])[C:5]([H:11])([H:12])[C:6]1([H:13])[H:14])[H:7]"
O        0.84049360       0.69170582       1.63198157
C        0.58804121       0.39640138       0.31214979
C        1.24518791       0.98629187      -0.76513108
C       -0.78237335       0.55514642      -0.24187129
C       -1.56814854      -0.66047801       0.10549964
C       -0.15310110      -1.19039595       0.04728605
H        1.79491367       0.76365202       1.72366157
H        1.82113415       1.88835311      -0.59138143
H        1.34217881       0.50982230      -1.73060921
H       -1.14502469       1.20968915      -1.02337705
H       -2.02279472      -0.66114485       1.09260903
H       -2.24870318      -1.02135499      -0.66199331
H        0.16057032      -1.72054316       0.94298539
H        0.12762591      -1.74714513      -0.84180967
14
Frame=9 idx=006181 GeodesicLength=0.6508978383111232 rxn_smarts="[O:1]([C@:2]12[C:3]([H:8])([H:9])[C@@:4]1([H:10])[C:5]([H:11])([H:12])[C:6]2([H:13])[H:14])[H:7]>>[O:1]([C:2](=[C:3]([H:8])[H:9])[C:4]1([H:10])[C:5]([H:11])([H:12])[C:6]1([H:13])[H:14])[H:7]"
O        0.84793956       0.68047683       1.63382571
C        0.60369955       0.38599811       0.31409714
C        1.23350823       0.99941391      -0.76715741
C       -0.75548375       0.53893062      -0.25992147
C       -1.56478677      -0.65742930       0.10199790
C       -0.15737718      -1.20687107       0.04689826
H        1.79952430       0.78049925       1.72691848
H        1.79842513       1.90695540      -0.58598973
H        1.34260848       0.53194745      -1.73594707
H       -1.13871119       1.21018273      -1.01667098
H       -2.01866794      -0.63997649       1.08896520
H       -2.25006660      -1.01239999      -0.66404560
H        0.14455075      -1.73320284       0.94881029
H        0.11483744      -1.78452462      -0.83178072
14
Frame=10 idx=006181 GeodesicLength=0.7232340844483389 rxn_smarts="[O:1]([C@:2]12[C:3]([H:8])([H:9])[C@@:4]1([H:10])[C:5]([H:11])([H:12])[C:6]2([H:13])[H:14])[H:7]>>[O:1]([C:2](=[C:3]([H:8])[H:9])[C:4]1([H:10])[C:5]([H:11])([H:12])[C:6]1([H:13])[H:14])[H:7]"
O        0.85502689       0.66939651       1.63491172
C        0.61952394       0.37571698       0.31516517
C        1.22244861       1.01210920      -0.76902427
C       -0.72840950       0.52185571      -0.27872331
C       -1.56103525      -0.65433694       0.09839439
C       -0.16165017      -1.22349741       0.04628621
H        1.80282334       0.79764047       1.73020258
H        1.77532195       1.92544998      -0.58026269
H        1.34360593       0.55470451      -1.74139889
H       -1.13226841       1.21089120      -1.00799177
H       -2.01351897      -0.61837571       1.08513770
H       -2.25125298      -1.00342478      -0.66591810
H        0.12865275      -1.74546671       0.95447684
H        0.10073187      -1.82266300      -0.82125558
14
Frame=11 idx=006181 GeodesicLength=0.7955565799904077 rxn_smarts="[O:1]([C@:2]12[C:3]([H:8])([H:9])[C@@:4]1([H:10])[C:5]([H:11])([H:12])[C:6]2([H:13])[H:14])[H:7]>>[O:1]([C:2](=[C:3]([H:8])[H:9])[C:4]1([H:10])[C:5]([H:11])([H:12])[C:6]1([H:13])[H:14])[H:7]"
O        0.86175591       0.65846195       1.63524724
C        0.63548639       0.36558587       0.31537877
C        1.21197323       1.02440832      -0.77076469
C       -0.70113474       0.50392012      -0.29832903
C       -1.55686847      -0.65117488       0.09467066
C       -0.16591851      -1.24026956       0.04544638
H        1.80479414       0.81500442       1.73349042
H        1.75173808       1.94385456      -0.57419985
H        1.34514655       0.57811995      -1.74695556
H       -1.12555211       1.21161872      -0.99726606
H       -2.00731276      -0.59631354       1.08109038
H       -2.25224739      -0.99439254      -0.66761796
H        0.11288778      -1.75731627       0.95998434
H        0.08525191      -1.86150713      -0.81017504
14
Frame=12 idx=006181 GeodesicLength=0.8678554650490855 rxn_smarts="[O:1]([C@:2]12[C:3]([H:8])([H:9])[C@@:4]1([H:10])[C:5]([H:11])([H:12])[C:6]2([H:13])[H:14])[H:7]>>[O:1]([C:2](=[C:3]([H:8])[H:9])[C:4]1([H:10])[C:5]([H:11])([H:12])[C:6]1([H:13])[H:14])[H:7]"
O        0.86814067       0.64765849       1.63486532
C        0.65155142       0.35563900       0.31478403
C        1.20202660       1.03636229      -0.77240226
C       -0.67365552       0.48514648      -0.31874308
C       -1.55226092      -0.64790500       0.09082435
C       -0.17018288      -1.25716713       0.04437369
H        1.80545412       0.83250496       1.73676016
H        1.72757219       1.96217504      -0.56780487
H        1.34719017       0.60222272      -1.75259034
H       -1.11838805       1.21209834      -0.98454724
H       -2.00001748      -0.57378539       1.07680050
H       -2.25303524      -0.98524607      -0.66914437
H        0.09726603      -1.76873891       0.96531832
H        0.06833887      -1.90096481      -0.79849420
14
Frame=13 idx=006181 GeodesicLength=0.940159794969833 rxn_smarts="[O:1]([C@:2]12[C:3]([H:8])([H:9])[C@@:4]1([H:10])[C:5]([H:11])([H:12])[C:6]2([H:13])[H:14])[H:7]>>[O:1]([C:2](=[C:3]([H:8])[H:9])[C:4]1([H:10])[C:5]([H:11])([H:12])[C:6]1([H:13])[H:14])[H:7]"
O        0.87420507       0.63697595       1.63381691
C        0.66767203       0.34592641       0.31344574
C        1.19254807       1.04799578      -0.77396481
C       -0.64597688       0.46558581      -0.33995302
C       -1.54718425      -0.64448208       0.08684561
C       -0.17445296      -1.27416310       0.04304503
H        1.80481168       0.85008982       1.73999206
H        1.70271871       1.98041864      -0.56105780
H        1.34966090       0.62704103      -1.75828500
H       -1.11053214       1.21192950      -0.96988685
H       -1.99158050      -0.55077104       1.07225905
H       -2.25359876      -0.97590624      -0.67050103
H        0.08179556      -1.77972739       0.97044180
H        0.04991348      -1.94091308      -0.78619769
14
Frame=14 idx=006181 GeodesicLength=1.0124283760734583 rxn_smarts="[O:1]([C@:2]12[C:3]([H:8])([H:9])[C@@:4]1([H:10])[C:5]([H:11])([H:12])[C:6]2([H:13])[H:14])[H:7]>>[O:1]([C:2](=[C:3]([H:8])[H:9])[C:4]1([H:10])[C:5]([H:11])([H:12])[C:6]1([H:13])[H:14])[H:7]"
O        0.88004255       0.62636698       1.63218192
C        0.68382614       0.33649534       0.31144828
C        1.18344626       1.05938277      -0.77541680
C       -0.61812289       0.44533684      -0.36179695
C       -1.54162327      -0.64085407       0.08279548
C       -0.17873322      -1.29120091       0.04145279
H        1.80296675       0.86758195       1.74319009
H        1.67706672       1.99860582      -0.55391274
H        1.35247107       0.65262558      -1.76396099
H       -1.10182977       1.21069640      -0.95390776
H       -1.98198326      -0.52734370       1.06753057
H       -2.25393968      -0.96626789      -0.67163207
H        0.06651408      -1.79027381       0.97530309
H        0.02989853      -1.98115129      -0.77327490
14
Frame=15 idx=006181 GeodesicLength=1.0847027326185783 rxn_smarts="[O:1]([C@:2]12[C:3]([H:8])([H:9])[C@@:4]1([H:10])[C:5]([H:11])([H:12])[C:6]2([H:13])[H:14])[H:7]>>[O:1]([C:2](=[C:3]([H:8])[H:9])[C:4]1([H:10])[C:5]([H:11])([H:12])[C:6]1([H:13])[H:14])[H:7]"
O        0.88573578       0.61578356       1.63007770
C        0.69998459       0.32739306       0.30891300
C        1.17463658       1.07055410      -0.77674256
C       -0.59011386       0.42451563      -0.38410722
C       -1.53555406      -0.63697223       0.07870398
C       -0.18303490      -1.30823261       0.03957028
H        1.80001493       0.88495344       1.74635637
H        1.65049992       2.01670324      -0.54634714
H        1.35546981       0.67900021      -1.76955928
H       -1.09206161       1.20794095      -0.93706983
H       -1.97119315      -0.50356414       1.06264570
H       -2.25403021      -0.95620289      -0.67252834
H        0.05143955      -1.80039855       0.97983415
H        0.00820663      -2.02147378      -0.75974681
14
Frame=16 idx=006181 GeodesicLength=1.15699928262785 rxn_smarts="[O:1]([C@:2]12[C:3]([H:8])([H:9])[C@@:4]1([H:10])[C:5]([H:11])([H:12])[C:6]2([H:13])[H:14])[H:7]>>[O:1]([C:2](=[C:3]([H:8])[H:9])[C:4]1([H:10])[C:5]([H:11])([H:12])[C:6]1([H:13])[H:14])[H:7]"
O        0.89141490       0.60516728       1.62762008
C        0.71614311       0.31865941       0.30596427
C        1.16601782       1.08154493      -0.77789488
C       -0.56197519       0.40326000      -0.40663526
C       -1.52896104      -0.63279385       0.07462921
C       -0.18736376      -1.32520054       0.03738468
H        1.79609841       0.90210837       1.74951345
H        1.62291763       2.03468626      -0.53831053
H        1.35848190       0.70618523      -1.77499768
H       -1.08110411       1.20326097      -0.92012663
H       -1.95920718      -0.47953549       1.05767606
H       -2.25384475      -0.94558430      -0.67316679
H        0.03660595      -1.81011999       0.98397567
H       -0.01522367      -2.06163828      -0.74563166
