10
Frame=0 idx=000799 GeodesicLength=0.0 rxn_smarts="[O:1]([c:2]1[c:3]([H:8])[n:4][c:5]([H:9])[n:6]1[H:10])[H:7]>>[O:1]([C@@:2]1([H:8])[C-:3]=[N+:4]=[C:5]([H:9])[N:6]1[H:10])[H:7]"
O       -1.80519479      -0.82878829       0.07498423
C       -0.68576412      -0.07682655      -0.06704853
C       -0.47174810       1.32579048       0.22521209
N        0.93281700       1.42919791       0.26579712
C        1.45140462       0.23786418       0.15654835
N        0.54630386      -0.74130304      -0.02595093
H       -2.48558594      -0.25179394       0.43682430
H       -0.70939968       0.60210303      -1.06604773
H        2.51360583       0.02360825       0.17956252
H        0.71356132      -1.71985203      -0.17988141
10
Frame=1 idx=000799 GeodesicLength=0.051115938705107236 rxn_smarts="[O:1]([c:2]1[c:3]([H:8])[n:4][c:5]([H:9])[n:6]1[H:10])[H:7]>>[O:1]([C@@:2]1([H:8])[C-:3]=[N+:4]=[C:5]([H:9])[N:6]1[H:10])[H:7]"
O       -1.80237549      -0.83238860       0.08168837
C       -0.68522658      -0.07954470      -0.07675171
C       -0.46848289       1.31997453       0.22297638
N        0.93268223       1.42732261       0.26894957
C        1.45307780       0.23616752       0.15391849
N        0.54875831      -0.74158274      -0.03621945
H       -2.48275619      -0.25237562       0.43842767
H       -0.72686714       0.62451124      -1.07455039
H        2.51483518       0.02150151       0.18726736
H        0.71635477      -1.72358576      -0.16570629
10
Frame=2 idx=000799 GeodesicLength=0.10222867931332938 rxn_smarts="[O:1]([c:2]1[c:3]([H:8])[n:4][c:5]([H:9])[n:6]1[H:10])[H:7]>>[O:1]([C@@:2]1([H:8])[C-:3]=[N+:4]=[C:5]([H:9])[N:6]1[H:10])[H:7]"
O       -1.79934371      -0.83596494       0.08800257
C       -0.68461589      -0.08232960      -0.08685147
C       -0.46518845       1.31401845       0.22060268
N        0.93255051       1.42529858       0.27201968
C        1.45476443       0.23433418       0.15141525
N        0.55127974      -0.74200939      -0.04645537
H       -2.47970455      -0.25317899       0.43996848
H       -0.74477702       0.64754456      -1.08254723
H        2.51600828       0.01927896       0.19461599
H        0.71902666      -1.72699181      -0.15077057
10
Frame=3 idx=000799 GeodesicLength=0.15333185551001036 rxn_smarts="[O:1]([c:2]1[c:3]([H:8])[n:4][c:5]([H:9])[n:6]1[H:10])[H:7]>>[O:1]([C@@:2]1([H:8])[C-:3]=[N+:4]=[C:5]([H:9])[N:6]1[H:10])[H:7]"
O       -1.79613459      -0.83949568       0.09402843
C       -0.68392769      -0.08521168      -0.09723201
C       -0.46187321       1.30795539       0.21792812
N        0.93240812       1.42314356       0.27499210
C        1.45644566       0.23234954       0.14927739
N        0.55384104      -0.74264038      -0.05616372
H       -2.47649653      -0.25409728       0.44135955
H       -0.76301188       0.67097042      -1.09003102
H        2.51715046       0.01700764       0.20144908
H        0.72159862      -1.72998153      -0.13560792
10
Frame=4 idx=000799 GeodesicLength=0.20440954007277556 rxn_smarts="[O:1]([c:2]1[c:3]([H:8])[n:4][c:5]([H:9])[n:6]1[H:10])[H:7]>>[O:1]([C@@:2]1([H:8])[C-:3]=[N+:4]=[C:5]([H:9])[N:6]1[H:10])[H:7]"
O       -1.79277113      -0.84295490       0.09992652
C       -0.68316292      -0.08821025      -0.10779136
C       -0.45854337       1.30184195       0.21478380
N        0.93224770       1.42091309       0.27774410
C        1.45812541       0.23022734       0.14755183
N        0.55642919      -0.74351201      -0.06499457
H       -2.47316490      -0.25503607       0.44263361
H       -0.78154933       0.69457901      -1.09701505
H        2.51826799       0.01469535       0.20801436
H        0.72412137      -1.73254351      -0.12085325
10
Frame=5 idx=000799 GeodesicLength=0.2555492356668938 rxn_smarts="[O:1]([c:2]1[c:3]([H:8])[n:4][c:5]([H:9])[n:6]1[H:10])[H:7]>>[O:1]([C@@:2]1([H:8])[C-:3]=[N+:4]=[C:5]([H:9])[N:6]1[H:10])[H:7]"
O       -1.78930886      -0.84631052       0.10567790
C       -0.68232557      -0.09134725      -0.11840889
C       -0.45521926       1.29569338       0.21109114
N        0.93202550       1.41859384       0.28049850
C        1.45974888       0.22793871       0.14674905
N        0.55900167      -0.74466538      -0.07239475
H       -2.46984311      -0.25588677       0.44351177
H       -0.80017383       0.71823938      -1.10352445
H        2.51946105       0.01252385       0.21346255
H        0.72663354      -1.73477924      -0.10666283
10
Frame=6 idx=000799 GeodesicLength=0.30674248332551146 rxn_smarts="[O:1]([c:2]1[c:3]([H:8])[n:4][c:5]([H:9])[n:6]1[H:10])[H:7]>>[O:1]([C@@:2]1([H:8])[C-:3]=[N+:4]=[C:5]([H:9])[N:6]1[H:10])[H:7]"
O       -1.78578603      -0.84954420       0.11125551
C       -0.68141108      -0.09463787      -0.12904764
C       -0.45191117       1.28956938       0.20683177
N        0.93173075       1.41624753       0.28330324
C        1.46132546       0.22548709       0.14690596
N        0.56155992      -0.74611418      -0.07831103
H       -2.46656675      -0.25664250       0.44396556
H       -0.81888861       0.74192261      -1.10955531
H        2.52080151       0.01051939       0.21771193
H        0.72914598      -1.73680725      -0.09305999
10
Frame=7 idx=000799 GeodesicLength=0.35764775694480905 rxn_smarts="[O:1]([c:2]1[c:3]([H:8])[n:4][c:5]([H:9])[n:6]1[H:10])[H:7]>>[O:1]([C@@:2]1([H:8])[C-:3]=[N+:4]=[C:5]([H:9])[N:6]1[H:10])[H:7]"
O       -1.78215079      -0.85265282       0.11680807
C       -0.68041295      -0.09798915      -0.13987999
C       -0.44857879       1.28330094       0.20207889
N        0.93143329       1.41381002       0.28548434
C        1.46285451       0.22294326       0.14772055
N        0.56408189      -0.74774958      -0.08294463
H       -2.46312857      -0.25727638       0.44441071
H       -0.83790298       0.76564808      -1.11510861
H        2.52212748       0.00863339       0.22199128
H        0.73167691      -1.73866777      -0.08056061
10
Frame=8 idx=000799 GeodesicLength=0.40874393633211775 rxn_smarts="[O:1]([c:2]1[c:3]([H:8])[n:4][c:5]([H:9])[n:6]1[H:10])[H:7]>>[O:1]([C@@:2]1([H:8])[C-:3]=[N+:4]=[C:5]([H:9])[N:6]1[H:10])[H:7]"
O       -1.77855059      -0.85558147       0.12177376
C       -0.67929985      -0.10156841      -0.15063985
C       -0.44529584       1.27710869       0.19686435
N        0.93096098       1.41131907       0.28849858
C        1.46428374       0.22013648       0.15009885
N        0.56658005      -0.74972516      -0.08587301
H       -2.45993918      -0.25782528       0.44384851
H       -0.85674475       0.78949031      -1.12010042
H        2.52385291       0.00720561       0.22315323
H        0.73415252      -1.74055982      -0.06762400
10
Frame=9 idx=000799 GeodesicLength=0.4595687440442644 rxn_smarts="[O:1]([c:2]1[c:3]([H:8])[n:4][c:5]([H:9])[n:6]1[H:10])[H:7]>>[O:1]([C@@:2]1([H:8])[C-:3]=[N+:4]=[C:5]([H:9])[N:6]1[H:10])[H:7]"
O       -1.77483243      -0.85838305       0.12663388
C       -0.67809483      -0.10519861      -0.16164065
C       -0.44195253       1.27080802       0.19120061
N        0.93051331       1.40880890       0.29083326
C        1.46565911       0.21725554       0.15305087
N        0.56904695      -0.75186328      -0.08787301
H       -2.45652763      -0.25832713       0.44338474
H       -0.87600516       0.81347772      -1.12459397
H        2.52555315       0.00585368       0.22454824
H        0.73664007      -1.74243179      -0.05554397
10
Frame=10 idx=000799 GeodesicLength=0.5103386618279997 rxn_smarts="[O:1]([c:2]1[c:3]([H:8])[n:4][c:5]([H:9])[n:6]1[H:10])[H:7]>>[O:1]([C@@:2]1([H:8])[C-:3]=[N+:4]=[C:5]([H:9])[N:6]1[H:10])[H:7]"
O       -1.77090378      -0.86107197       0.13151767
C       -0.67679242      -0.10894272      -0.17286769
C       -0.43852084       1.26455921       0.18484545
N        0.93011231       1.40640443       0.29228701
C        1.46710097       0.21436482       0.15568809
N        0.57156098      -0.75411376      -0.08959745
H       -2.45277316      -0.25886192       0.44339295
H       -0.89610673       0.83770222      -1.12844810
H        2.52711567       0.00421223       0.22763103
H        0.73920701      -1.74425255      -0.04444896
10
Frame=11 idx=000799 GeodesicLength=0.5611953103666362 rxn_smarts="[O:1]([c:2]1[c:3]([H:8])[n:4][c:5]([H:9])[n:6]1[H:10])[H:7]>>[O:1]([C@@:2]1([H:8])[C-:3]=[N+:4]=[C:5]([H:9])[N:6]1[H:10])[H:7]"
O       -1.76685933      -0.86366050       0.13607670
C       -0.67534959      -0.11285044      -0.18427579
C       -0.43504809       1.25834371       0.17788811
N        0.92968993       1.40400779       0.29346004
C        1.46854087       0.21136028       0.15872675
N        0.57409908      -0.75651063      -0.09067147
H       -2.44883249      -0.25939417       0.44335326
H       -0.91677197       0.86223593      -1.13160246
H        2.52875401       0.00256628       0.23060567
H        0.74177758      -1.74609825      -0.03356082
10
Frame=12 idx=000799 GeodesicLength=0.6120089136438288 rxn_smarts="[O:1]([c:2]1[c:3]([H:8])[n:4][c:5]([H:9])[n:6]1[H:10])[H:7]>>[O:1]([C@@:2]1([H:8])[C-:3]=[N+:4]=[C:5]([H:9])[N:6]1[H:10])[H:7]"
O       -1.76283293      -0.86611562       0.13998953
C       -0.67374832      -0.11688769      -0.19582322
C       -0.43154059       1.25196666       0.17054891
N        0.92916700       1.40147278       0.29496057
C        1.46981419       0.20815189       0.16335001
N        0.57660177      -0.75914178      -0.09049152
H       -2.44491086      -0.25981285       0.44265293
H       -0.93742423       0.88702711      -1.13411613
H        2.53060855       0.00144538       0.23113779
H        0.74426542      -1.74810588      -0.02220887
10
Frame=13 idx=000799 GeodesicLength=0.6628173536380972 rxn_smarts="[O:1]([c:2]1[c:3]([H:8])[n:4][c:5]([H:9])[n:6]1[H:10])[H:7]>>[O:1]([C@@:2]1([H:8])[C-:3]=[N+:4]=[C:5]([H:9])[N:6]1[H:10])[H:7]"
O       -1.75875045      -0.86845779       0.14340237
C       -0.67197385      -0.12108848      -0.20754788
C       -0.42798152       1.24559315       0.16266626
N        0.92859176       1.39891824       0.29641667
C        1.47104004       0.20479263       0.16878295
N        0.57911126      -0.76194533      -0.08952643
H       -2.44085377      -0.26020914       0.44168607
H       -0.95846958       0.91210877      -1.13588710
H        2.53257861       0.00049420       0.23071822
H        0.74670751      -1.75020624      -0.01071113
10
Frame=14 idx=000799 GeodesicLength=0.7136071493047769 rxn_smarts="[O:1]([c:2]1[c:3]([H:8])[n:4][c:5]([H:9])[n:6]1[H:10])[H:7]>>[O:1]([C@@:2]1([H:8])[C-:3]=[N+:4]=[C:5]([H:9])[N:6]1[H:10])[H:7]"
O       -1.75453658      -0.87070500       0.14644184
C       -0.67003509      -0.12543695      -0.21953172
C       -0.42431603       1.23921476       0.15410904
N        0.92802660       1.39637458       0.29741380
C        1.47224579       0.20134903       0.17456427
N        0.58164982      -0.76486338      -0.08817339
H       -2.43649599      -0.26058726       0.44084901
H       -0.98019525       0.93750447      -1.13684583
H        2.53450818      -0.00048752       0.23057563
H        0.74914855      -1.75236271       0.00059735
10
Frame=15 idx=000799 GeodesicLength=0.7643978413968638 rxn_smarts="[O:1]([c:2]1[c:3]([H:8])[n:4][c:5]([H:9])[n:6]1[H:10])[H:7]>>[O:1]([C@@:2]1([H:8])[C-:3]=[N+:4]=[C:5]([H:9])[N:6]1[H:10])[H:7]"
O       -1.75018086      -0.87287200       0.14908568
C       -0.66792327      -0.12992621      -0.23181545
C       -0.42053176       1.23281957       0.14480718
N        0.92748445       1.39384926       0.29783966
C        1.47342813       0.19783836       0.18059433
N        0.58421908      -0.76788284      -0.08657519
H       -2.43176073      -0.26095976       0.44026490
H       -1.00267601       0.96325267      -1.13691867
H        2.53636225      -0.00155006       0.23100424
H        0.75157873      -1.75456899       0.01171333
10
Frame=16 idx=000799 GeodesicLength=0.8151860649139959 rxn_smarts="[O:1]([c:2]1[c:3]([H:8])[n:4][c:5]([H:9])[n:6]1[H:10])[H:7]>>[O:1]([C@@:2]1([H:8])[C-:3]=[N+:4]=[C:5]([H:9])[N:6]1[H:10])[H:7]"
O       -1.74564004      -0.87496415       0.15139651
C       -0.66565506      -0.13456010      -0.24445661
C       -0.41659945       1.22643123       0.13463791
N        0.92700165       1.39137758       0.29741325
C        1.47459420       0.19429041       0.18662242
N        0.58683626      -0.77096758      -0.08499560
H       -2.42652951      -0.26133006       0.44018595
H       -1.02610823       0.98935506      -1.13601314
H        2.53807485      -0.00284022       0.23278116
H        0.75402532      -1.75679216       0.02242815
