16
Frame=0 idx=009351 GeodesicLength=0.0 rxn_smarts="[C:1]([N:2]1[C@@:3]2([H:11])[C@@:4]3([H:12])[C:5]([H:13])([H:14])[C@:6]1([H:15])[C@@:7]23[H:16])([H:8])([H:9])[H:10]>>[C:1]([N:2]1[C@@:3]2([H:11])[C:4][C:5]([H:13])([H:14])[C@:6]1([H:15])[C:7]2([H:12])[H:16])([H:8])([H:9])[H:10]"
C        1.93041913       0.39783482      -0.03503034
N        0.84163036      -0.52125051      -0.29921781
C       -0.02354093      -0.93053095       0.81094536
C       -1.08195564       0.11698439       1.16805476
C       -0.93247530       1.07552954      -0.05371646
C       -0.39159409      -0.03684309      -0.95523904
C       -1.16689096      -1.10945278      -0.14058458
H        1.66853024       1.25796463       0.59369832
H        2.32305406       0.76821513      -0.98420775
H        2.73228057      -0.14873006       0.46425970
H        0.31988655      -1.64862203       1.54509206
H       -2.06878647      -0.57900849       0.56708321
H       -0.26760340       1.91968609       0.12958005
H       -1.90078000       1.45665944      -0.37587998
H       -0.37081179       0.04635554      -2.04098808
H       -1.61136233      -2.06479171      -0.39384948
16
Frame=1 idx=009351 GeodesicLength=0.04744470093385346 rxn_smarts="[C:1]([N:2]1[C@@:3]2([H:11])[C@@:4]3([H:12])[C:5]([H:13])([H:14])[C@:6]1([H:15])[C@@:7]23[H:16])([H:8])([H:9])[H:10]>>[C:1]([N:2]1[C@@:3]2([H:11])[C:4][C:5]([H:13])([H:14])[C@:6]1([H:15])[C:7]2([H:12])[H:16])([H:8])([H:9])[H:10]"
C        1.93038380       0.39618319      -0.03563463
N        0.84057280      -0.52184340      -0.29960998
C       -0.02406941      -0.92935873       0.81163920
C       -1.07966065       0.12051704       1.16508364
C       -0.93134973       1.07789601      -0.05356903
C       -0.39249762      -0.03667492      -0.95508981
C       -1.16893349      -1.10877419      -0.14091060
H        1.66905663       1.25775285       0.59144521
H        2.32459963       0.76457238      -0.98491744
H        2.73103098      -0.15051185       0.46547223
H        0.31830628      -1.64679056       1.54698408
H       -2.08116390      -0.58496646       0.58010823
H       -0.26763315       1.92342727       0.12870802
H       -1.89980457       1.45931637      -0.37535581
H       -0.37180153       0.04801340      -2.04066851
H       -1.59703605      -2.06875840      -0.40368481
16
Frame=2 idx=009351 GeodesicLength=0.09488440936012937 rxn_smarts="[C:1]([N:2]1[C@@:3]2([H:11])[C@@:4]3([H:12])[C:5]([H:13])([H:14])[C@:6]1([H:15])[C@@:7]23[H:16])([H:8])([H:9])[H:10]>>[C:1]([N:2]1[C@@:3]2([H:11])[C:4][C:5]([H:13])([H:14])[C@:6]1([H:15])[C:7]2([H:12])[H:16])([H:8])([H:9])[H:10]"
C        1.93034215       0.39452819      -0.03622633
N        0.83951909      -0.52244121      -0.30001682
C       -0.02461647      -0.92818469       0.81229773
C       -1.07743195       0.12400951       1.16203372
C       -0.93021085       1.08025945      -0.05348457
C       -0.39338345      -0.03651968      -0.95498373
C       -1.17099649      -1.10812023      -0.14129394
H        1.66956493       1.25752679       0.58920681
H        2.32615022       0.76093459      -0.98559977
H        2.72976824      -0.15229181       0.46670441
H        0.31669118      -1.64495112       1.54885048
H       -2.09346242      -0.59110143       0.59350293
H       -0.26766821       1.92716140       0.12782789
H       -1.89882554       1.46194028      -0.37490371
H       -0.37274952       0.04965573      -2.04038973
H       -1.58269092      -2.07240577      -0.41352537
16
Frame=3 idx=009351 GeodesicLength=0.142319881728995 rxn_smarts="[C:1]([N:2]1[C@@:3]2([H:11])[C@@:4]3([H:12])[C:5]([H:13])([H:14])[C@:6]1([H:15])[C@@:7]23[H:16])([H:8])([H:9])[H:10]>>[C:1]([N:2]1[C@@:3]2([H:11])[C:4][C:5]([H:13])([H:14])[C@:6]1([H:15])[C:7]2([H:12])[H:16])([H:8])([H:9])[H:10]"
C        1.93029462       0.39287093      -0.03680410
N        0.83847038      -0.52304306      -0.30043936
C       -0.02518247      -0.92700926       0.81291837
C       -1.07527060       0.12746058       1.15890215
C       -0.92905839       1.08261948      -0.05346503
C       -0.39424987      -0.03637667      -0.95492326
C       -1.17307792      -1.10749168      -0.14173945
H        1.67005436       1.25728688       0.58698509
H        2.32770743       0.75730406      -0.98625247
H        2.72849220      -0.15406898       0.46795820
H        0.31504081      -1.64310471       1.55068807
H       -2.10567551      -0.59741733       0.60727584
H       -0.26770891       1.93088831       0.12693971
H       -1.89784142       1.46453214      -0.37452727
H       -0.37365263       0.05128384      -2.04015414
H       -1.56834208      -2.07573454      -0.42336234
16
Frame=4 idx=009351 GeodesicLength=0.1897523632925029 rxn_smarts="[C:1]([N:2]1[C@@:3]2([H:11])[C@@:4]3([H:12])[C:5]([H:13])([H:14])[C@:6]1([H:15])[C@@:7]23[H:16])([H:8])([H:9])[H:10]>>[C:1]([N:2]1[C@@:3]2([H:11])[C:4][C:5]([H:13])([H:14])[C@:6]1([H:15])[C:7]2([H:12])[H:16])([H:8])([H:9])[H:10]"
C        1.93024175       0.39121272      -0.03736651
N        0.83742798      -0.52364791      -0.30087866
C       -0.02576760      -0.92583275       0.81349855
C       -1.07317757       0.13086906       1.15568595
C       -0.92789194       1.08497584      -0.05351232
C       -0.39509491      -0.03624494      -0.95491090
C       -1.17517545      -1.10688895      -0.14225214
H        1.67052429       1.25703375       0.58478198
H        2.32927310       0.75368315      -0.98687316
H        2.72720274      -0.15584220       0.46923571
H        0.31335485      -1.64125224       1.55249362
H       -2.11779651      -0.60391834       0.62143548
H       -0.26775552       1.93460796       0.12604361
H       -1.89685071       1.46709299      -0.37423012
H       -0.37450754       0.05289928      -2.03996417
H       -1.55400697      -2.07874740      -0.43318692
16
Frame=5 idx=009351 GeodesicLength=0.23718342394081798 rxn_smarts="[C:1]([N:2]1[C@@:3]2([H:11])[C@@:4]3([H:12])[C:5]([H:13])([H:14])[C@:6]1([H:15])[C@@:7]23[H:16])([H:8])([H:9])[H:10]>>[C:1]([N:2]1[C@@:3]2([H:11])[C:4][C:5]([H:13])([H:14])[C@:6]1([H:15])[C:7]2([H:12])[H:16])([H:8])([H:9])[H:10]"
C        1.93018373       0.38955422      -0.03791227
N        0.83639243      -0.52425493      -0.30133558
C       -0.02637300      -0.92465513       0.81403601
C       -1.07115426       0.13423476       1.15238249
C       -0.92671119       1.08732886      -0.05362843
C       -0.39591730      -0.03612346      -0.95494903
C       -1.17728804      -1.10631170      -0.14283635
H        1.67097407       1.25676751       0.58259937
H        2.33084860       0.75007348      -0.98745968
H        2.72589933      -0.15761128       0.47053874
H        0.31163184      -1.63939433       1.55426420
H       -2.12981840      -0.61060699       0.63599289
H       -0.26780801       1.93832062       0.12513953
H       -1.89585204       1.46962475      -0.37401570
H       -0.37531161       0.05450340      -2.03982212
H       -1.53969615      -2.08144978      -0.44299407
16
Frame=6 idx=009351 GeodesicLength=0.2846136541924324 rxn_smarts="[C:1]([N:2]1[C@@:3]2([H:11])[C@@:4]3([H:12])[C:5]([H:13])([H:14])[C@:6]1([H:15])[C@@:7]23[H:16])([H:8])([H:9])[H:10]>>[C:1]([N:2]1[C@@:3]2([H:11])[C:4][C:5]([H:13])([H:14])[C@:6]1([H:15])[C:7]2([H:12])[H:16])([H:8])([H:9])[H:10]"
C        1.93012103       0.38789672      -0.03843994
N        0.83536503      -0.52486316      -0.30181123
C       -0.02699884      -0.92347681       0.81452812
C       -1.06920193       0.13755617       1.14898866
C       -0.92551591       1.08967811      -0.05381516
C       -0.39671506      -0.03601131      -0.95504021
C       -1.17941307      -1.10576051      -0.14349734
H        1.67140293       1.25648871       0.58043940
H        2.33243566       0.74647760      -0.98800955
H        2.72458186      -0.15937512       0.47186933
H        0.30987155      -1.63753175       1.55599684
H       -2.14173363      -0.61748747       0.65095656
H       -0.26786684       1.94202611       0.12422776
H       -1.89484376       1.47212844      -0.37388806
H       -0.37606140       0.05609789      -2.03973050
H       -1.52542762      -2.08384361      -0.45277468
16
Frame=7 idx=009351 GeodesicLength=0.3320438599221985 rxn_smarts="[C:1]([N:2]1[C@@:3]2([H:11])[C@@:4]3([H:12])[C:5]([H:13])([H:14])[C@:6]1([H:15])[C@@:7]23[H:16])([H:8])([H:9])[H:10]>>[C:1]([N:2]1[C@@:3]2([H:11])[C:4][C:5]([H:13])([H:14])[C@:6]1([H:15])[C:7]2([H:12])[H:16])([H:8])([H:9])[H:10]"
C        1.93005399       0.38624107      -0.03894816
N        0.83434650      -0.52547163      -0.30230642
C       -0.02764610      -0.92229757       0.81497271
C       -1.06732171       0.14083325       1.14550190
C       -0.92430576       1.09202402      -0.05407438
C       -0.39748666      -0.03590719      -0.95518678
C       -1.18154924      -1.10523467      -0.14423953
H        1.67181039       1.25619778       0.57830378
H        2.33403597       0.74289708      -0.98852059
H        2.72324979      -0.16113328       0.47322944
H        0.30807265      -1.63566484       1.55768878
H       -2.15353458      -0.62456443       0.66633634
H       -0.26793199       1.94572481       0.12330841
H       -1.89382435       1.47460600      -0.37385071
H       -0.37675403       0.05768430      -2.03969154
H       -1.51121487      -2.08593471      -0.46252326
16
Frame=8 idx=009351 GeodesicLength=0.37947730737261925 rxn_smarts="[C:1]([N:2]1[C@@:3]2([H:11])[C@@:4]3([H:12])[C:5]([H:13])([H:14])[C@:6]1([H:15])[C@@:7]23[H:16])([H:8])([H:9])[H:10]>>[C:1]([N:2]1[C@@:3]2([H:11])[C:4][C:5]([H:13])([H:14])[C@:6]1([H:15])[C:7]2([H:12])[H:16])([H:8])([H:9])[H:10]"
C        1.92998284       0.38458821      -0.03943549
N        0.83333768      -0.52607955      -0.30282216
C       -0.02831556      -0.92111772       0.81536729
C       -1.06551527       0.14406486       1.14191912
C       -0.92308062       1.09436641      -0.05440806
C       -0.39823042      -0.03581015      -0.95539133
C       -1.18369455      -1.10473434      -0.14506804
H        1.67219557       1.25589496       0.57619474
H        2.33565096       0.73933405      -0.98899034
H        2.72190275      -0.16288523       0.47462100
H        0.30623413      -1.63379421       1.55933733
H       -2.16521343      -0.63183837       0.68214427
H       -0.26800392       1.94941660       0.12238177
H       -1.89279253       1.47705878      -0.37390769
H       -0.37738631       0.05926424      -2.03970776
H       -1.49707135      -2.08772853      -0.47223466
16
Frame=9 idx=009351 GeodesicLength=0.42691835805757655 rxn_smarts="[C:1]([N:2]1[C@@:3]2([H:11])[C@@:4]3([H:12])[C:5]([H:13])([H:14])[C@:6]1([H:15])[C@@:7]23[H:16])([H:8])([H:9])[H:10]>>[C:1]([N:2]1[C@@:3]2([H:11])[C:4][C:5]([H:13])([H:14])[C@:6]1([H:15])[C:7]2([H:12])[H:16])([H:8])([H:9])[H:10]"
C        1.92990768       0.38293885      -0.03990038
N        0.83233908      -0.52668600      -0.30335933
C       -0.02900865      -0.91993718       0.81570942
C       -1.06378395       0.14725118       1.13823765
C       -0.92184041       1.09670568      -0.05481823
C       -0.39894490      -0.03571889      -0.95565643
C       -1.18584789      -1.10425852      -0.14598762
H        1.67255770       1.25558044       0.57411433
H        2.33728214       0.73579013      -0.98941635
H        2.72053989      -0.16463078       0.47604616
H        0.30435412      -1.63192049       1.56093930
H       -2.17676215      -0.63931173       0.69839415
H       -0.26808273       1.95310182       0.12144763
H       -1.89174647       1.47948911      -0.37406316
H       -0.37795531       0.06083933      -2.03978163
H       -1.48300814      -2.08923296      -0.48190551
16
Frame=10 idx=009351 GeodesicLength=0.47436148950826973 rxn_smarts="[C:1]([N:2]1[C@@:3]2([H:11])[C@@:4]3([H:12])[C:5]([H:13])([H:14])[C@:6]1([H:15])[C@@:7]23[H:16])([H:8])([H:9])[H:10]>>[C:1]([N:2]1[C@@:3]2([H:11])[C:4][C:5]([H:13])([H:14])[C@:6]1([H:15])[C:7]2([H:12])[H:16])([H:8])([H:9])[H:10]"
C        1.92982883       0.38129399      -0.04034138
N        0.83135156      -0.52729006      -0.30391882
C       -0.02972612      -0.91875569       0.81599688
C       -1.06212981       0.15039130       1.13445440
C       -0.92058482       1.09904208      -0.05530670
C       -0.39962830      -0.03563205      -0.95598458
C       -1.18800725      -1.10380687      -0.14700328
H        1.67289612       1.25525464       0.57206458
H        2.33893119       0.73226725      -0.98979618
H        2.71916076      -0.16636943       0.47750683
H        0.30243171      -1.63004340       1.56249254
H       -2.18817002      -0.64699019       0.71509446
H       -0.26816870       1.95678066       0.12050670
H       -1.89068478       1.48189864      -0.37432115
H       -0.37845773       0.06241146      -2.03991554
H       -1.46904264      -2.09045232      -0.49152874
16
Frame=11 idx=009351 GeodesicLength=0.5218045386046694 rxn_smarts="[C:1]([N:2]1[C@@:3]2([H:11])[C@@:4]3([H:12])[C:5]([H:13])([H:14])[C@:6]1([H:15])[C@@:7]23[H:16])([H:8])([H:9])[H:10]>>[C:1]([N:2]1[C@@:3]2([H:11])[C:4][C:5]([H:13])([H:14])[C@:6]1([H:15])[C:7]2([H:12])[H:16])([H:8])([H:9])[H:10]"
C        1.92974609       0.37965404      -0.04075701
N        0.83037523      -0.52789110      -0.30450154
C       -0.03046968      -0.91757312       0.81622739
C       -1.06055580       0.15348475       1.13056622
C       -0.91931385       1.10137599      -0.05587561
C       -0.40027941      -0.03554845      -0.95637843
C       -1.19017173      -1.10337863      -0.14811982
H        1.67320987       1.25491737       0.57004774
H        2.34059927       0.72876675      -0.99012742
H        2.71776431      -0.16810142       0.47900487
H        0.30046474      -1.62816282       1.56399490
H       -2.19942584      -0.65487439       0.73225983
H       -0.26826210       1.96045322       0.11955969
H       -1.88960609       1.48428969      -0.37468619
H       -0.37889080       0.06398227      -2.04011205
H       -1.45518422      -2.09139416      -0.50110257
16
Frame=12 idx=009351 GeodesicLength=0.5692491335503801 rxn_smarts="[C:1]([N:2]1[C@@:3]2([H:11])[C@@:4]3([H:12])[C:5]([H:13])([H:14])[C@:6]1([H:15])[C@@:7]23[H:16])([H:8])([H:9])[H:10]>>[C:1]([N:2]1[C@@:3]2([H:11])[C:4][C:5]([H:13])([H:14])[C@:6]1([H:15])[C:7]2([H:12])[H:16])([H:8])([H:9])[H:10]"
C        1.92965950       0.37801970      -0.04114568
N        0.82941055      -0.52848828      -0.30510829
C       -0.03124071      -0.91638926       0.81639869
C       -1.05906367       0.15653134       1.12657034
C       -0.91802732       1.10370787      -0.05652692
C       -0.40089672      -0.03546673      -0.95684050
C       -1.19234008      -1.10297275      -0.14934211
H        1.67349809       1.25456880       0.56806601
H        2.34228777       0.72529029      -0.99040745
H        2.71634967      -0.16982664       0.48054238
H        0.29845146      -1.62627884       1.56544388
H       -2.21051981      -0.66296612       0.74990343
H       -0.26836317       1.96411983       0.11860673
H       -1.88850892       1.48666442      -0.37516248
H       -0.37925148       0.06555351      -2.04037354
H       -1.44144517      -2.09206716      -0.51062450
16
Frame=13 idx=009351 GeodesicLength=0.6166921865667494 rxn_smarts="[C:1]([N:2]1[C@@:3]2([H:11])[C@@:4]3([H:12])[C:5]([H:13])([H:14])[C@:6]1([H:15])[C@@:7]23[H:16])([H:8])([H:9])[H:10]>>[C:1]([N:2]1[C@@:3]2([H:11])[C:4][C:5]([H:13])([H:14])[C@:6]1([H:15])[C:7]2([H:12])[H:16])([H:8])([H:9])[H:10]"
C        1.92956877       0.37639134      -0.04150579
N        0.82845748      -0.52908088      -0.30573974
C       -0.03204112      -0.91520367       0.81650873
C       -1.05765589       0.15953131       1.12246389
C       -0.91672528       1.10603840      -0.05726253
C       -0.40147912      -0.03538550      -0.95737322
C       -1.19451175      -1.10258794      -0.15067464
H        1.67375988       1.25420871       0.56612177
H        2.34399763       0.72183928      -0.99063378
H        2.71491569      -0.17154560       0.48212112
H        0.29638953      -1.62439111       1.56683735
H       -2.22144001      -0.67126801       0.76803855
H       -0.26847203       1.96778088       0.11764807
H       -1.88739145       1.48902565      -0.37575449
H       -0.37953709       0.06712687      -2.04070235
H       -1.42783525      -2.09247973      -0.52009293
16
Frame=14 idx=009351 GeodesicLength=0.6641339750434436 rxn_smarts="[C:1]([N:2]1[C@@:3]2([H:11])[C@@:4]3([H:12])[C:5]([H:13])([H:14])[C@:6]1([H:15])[C@@:7]23[H:16])([H:8])([H:9])[H:10]>>[C:1]([N:2]1[C@@:3]2([H:11])[C:4][C:5]([H:13])([H:14])[C@:6]1([H:15])[C:7]2([H:12])[H:16])([H:8])([H:9])[H:10]"
C        1.92947346       0.37476917      -0.04183568
N        0.82751588      -0.52966843      -0.30639669
C       -0.03287307      -0.91401629       0.81655520
C       -1.05633533       0.16248429       1.11824371
C       -0.91540794       1.10836793      -0.05808472
C       -0.40202551      -0.03530366      -0.95797929
C       -1.19668605      -1.10222352      -0.15212244
H        1.67399400       1.25383669       0.56421749
H        2.34572976       0.71841498      -0.99080374
H        2.71346102      -0.17325889       0.48374303
H        0.29427634      -1.62249940       1.56817341
H       -2.23217421      -0.67977897       0.78668212
H       -0.26858920       1.97143635       0.11668429
H       -1.88625256       1.49137549      -0.37646711
H       -0.37974479       0.06870391      -2.04110101
H       -1.41436180      -2.09263965      -0.52950858
16
Frame=15 idx=009351 GeodesicLength=0.7115711122377302 rxn_smarts="[C:1]([N:2]1[C@@:3]2([H:11])[C@@:4]3([H:12])[C:5]([H:13])([H:14])[C@:6]1([H:15])[C@@:7]23[H:16])([H:8])([H:9])[H:10]>>[C:1]([N:2]1[C@@:3]2([H:11])[C:4][C:5]([H:13])([H:14])[C@:6]1([H:15])[C:7]2([H:12])[H:16])([H:8])([H:9])[H:10]"
C        1.92937309       0.37315343      -0.04213369
N        0.82658555      -0.53025035      -0.30707983
C       -0.03373868      -0.91282683       0.81653601
C       -1.05510467       0.16539019       1.11390688
C       -0.91407545       1.11069701      -0.05899528
C       -0.40253491      -0.03521987      -0.95866112
C       -1.19886255      -1.10187832      -0.15369027
H        1.67419934       1.25345249       0.56235546
H        2.34748509       0.71501844      -0.99091467
H        2.71198415      -0.17496711       0.48541013
H        0.29210940      -1.62060341       1.56944999
H       -2.24270950      -0.68849921       0.80584814
H       -0.26871511       1.97508650       0.11571583
H       -1.88509088       1.49371646      -0.37730478
H       -0.37987192       0.07028647      -2.04157183
H       -1.40103295      -2.09255587      -0.53887097
16
Frame=16 idx=009351 GeodesicLength=0.7590006940512751 rxn_smarts="[C:1]([N:2]1[C@@:3]2([H:11])[C@@:4]3([H:12])[C:5]([H:13])([H:14])[C@:6]1([H:15])[C@@:7]23[H:16])([H:8])([H:9])[H:10]>>[C:1]([N:2]1[C@@:3]2([H:11])[C:4][C:5]([H:13])([H:14])[C@:6]1([H:15])[C:7]2([H:12])[H:16])([H:8])([H:9])[H:10]"
C        1.92926700       0.37154417      -0.04239807
N        0.82566604      -0.53082614      -0.30778982
C       -0.03464041      -0.91163504       0.81644902
C       -1.05396681       0.16824913       1.10945043
C       -0.91272808       1.11302628      -0.05999635
C       -0.40300647      -0.03513288      -0.95942127
C       -1.20104116      -1.10155106      -0.15538285
H        1.67437459       1.25305562       0.56053821
H        2.34926435       0.71165069      -0.99096380
H        2.71048340      -0.17667114       0.48712448
H        0.28988582      -1.61870283       1.57066513
H       -2.25303193      -0.69742870       0.82555270
H       -0.26885016       1.97873153       0.11474313
H       -1.88390498       1.49605123      -0.37827250
H       -0.37991585       0.07187621      -2.04211719
H       -1.38785537      -2.09223706      -0.54818125
