12
Frame=0 idx=002159 GeodesicLength=0.0 rxn_smarts="[O:1]=[C:2]([C:3]1([H:8])[C:4]([H:9])([H:10])[O:5][C:6]1([H:11])[H:12])[H:7]>>[O:1]=[C:2]([C@@:3]([C:4]([O:5][H:12])([H:9])[H:10])([C:6][H:11])[H:8])[H:7]"
O        2.31215193      -1.33821108       0.40895473
C        1.26888078      -0.78137028       0.60761367
C        0.43407644      -0.12324902      -0.45508599
C       -1.06090907      -0.41524053      -0.29776651
O       -1.49471396       0.83958270       0.28520431
C        0.20952086       1.36358036      -0.20568755
H        0.85764441      -0.68783238       1.63860148
H        0.85637131      -0.33892778      -1.43748480
H       -1.57411913      -0.60512170      -1.24187592
H       -1.29953448      -1.21212144       0.40602968
H        0.63565732       1.73462174       0.73077060
H       -1.14502644       1.56428938      -0.43927366
12
Frame=1 idx=002159 GeodesicLength=0.05540314154901198 rxn_smarts="[O:1]=[C:2]([C:3]1([H:8])[C:4]([H:9])([H:10])[O:5][C:6]1([H:11])[H:12])[H:7]>>[O:1]=[C:2]([C@@:3]([C:4]([O:5][H:12])([H:9])[H:10])([C:6][H:11])[H:8])[H:7]"
O        2.31537982      -1.33759036       0.40646310
C        1.27119821      -0.78293016       0.60685937
C        0.43418141      -0.12544243      -0.45402890
C       -1.06050206      -0.41711629      -0.29566684
O       -1.48603122       0.84255276       0.28251393
C        0.20323055       1.36053865      -0.19935862
H        0.86096805      -0.69187362       1.63847777
H        0.85543822      -0.33808294      -1.43737471
H       -1.57381297      -0.60729116      -1.23959753
H       -1.30167636      -1.21177687       0.41000835
H        0.63070982       1.73116089       0.73679560
H       -1.14908345       1.57785153      -0.45509154
12
Frame=2 idx=002159 GeodesicLength=0.11169242116021247 rxn_smarts="[O:1]=[C:2]([C:3]1([H:8])[C:4]([H:9])([H:10])[O:5][C:6]1([H:11])[H:12])[H:7]>>[O:1]=[C:2]([C@@:3]([C:4]([O:5][H:12])([H:9])[H:10])([C:6][H:11])[H:8])[H:7]"
O        2.31861353      -1.33675252       0.40412181
C        1.27342793      -0.78444727       0.60615254
C        0.43420451      -0.12766556      -0.45298880
C       -1.06011097      -0.41913883      -0.29363723
O       -1.47761603       0.84515634       0.28002113
C        0.19684412       1.35741781      -0.19328429
H        0.86422781      -0.69571159       1.63838104
H        0.85443559      -0.33740598      -1.43720861
H       -1.57355476      -0.60930503      -1.23742502
H       -1.30382987      -1.21169608       0.41372650
H        0.62580835       1.72778035       0.74240564
H       -1.15245020       1.59176835      -0.47026470
12
Frame=3 idx=002159 GeodesicLength=0.16756516432369745 rxn_smarts="[O:1]=[C:2]([C:3]1([H:8])[C:4]([H:9])([H:10])[O:5][C:6]1([H:11])[H:12])[H:7]>>[O:1]=[C:2]([C@@:3]([C:4]([O:5][H:12])([H:9])[H:10])([C:6][H:11])[H:8])[H:7]"
O        2.32180700      -1.33589976       0.40186996
C        1.27564468      -0.78588358       0.60547493
C        0.43423264      -0.12992085      -0.45198565
C       -1.05974236      -0.42117287      -0.29164398
O       -1.46933412       0.84760917       0.27745958
C        0.19049382       1.35429293      -0.18741391
H        0.86741656      -0.69941149       1.63828446
H        0.85344818      -0.33683307      -1.43706673
H       -1.57328641      -0.61130967      -1.23531792
H       -1.30596359      -1.21168530       0.41735569
H        0.62093170       1.72441063       0.74783185
H       -1.15564811       1.60580384      -0.48484828
12
Frame=4 idx=002159 GeodesicLength=0.22342525618116138 rxn_smarts="[O:1]=[C:2]([C:3]1([H:8])[C:4]([H:9])([H:10])[O:5][C:6]1([H:11])[H:12])[H:7]>>[O:1]=[C:2]([C@@:3]([C:4]([O:5][H:12])([H:9])[H:10])([C:6][H:11])[H:8])[H:7]"
O        2.32498464      -1.33496423       0.39971229
C        1.27783041      -0.78725842       0.60482677
C        0.43423716      -0.13220710      -0.45101072
C       -1.05939374      -0.42326498      -0.28968950
O       -1.46124224       0.84985286       0.27490267
C        0.18414427       1.35113775      -0.18174559
H        0.87055129      -0.70296799       1.63819571
H        0.85244265      -0.33637943      -1.43692456
H       -1.57302694      -0.61327978      -1.23327697
H       -1.30808864      -1.21179972       0.42086471
H        0.61606855       1.72106383       0.75303140
H       -1.15850742       1.62006723      -0.49888622
12
Frame=5 idx=002159 GeodesicLength=0.2792704005082548 rxn_smarts="[O:1]=[C:2]([C:3]1([H:8])[C:4]([H:9])([H:10])[O:5][C:6]1([H:11])[H:12])[H:7]>>[O:1]=[C:2]([C@@:3]([C:4]([O:5][H:12])([H:9])[H:10])([C:6][H:11])[H:8])[H:7]"
O        2.32811521      -1.33395185       0.39763179
C        1.27998397      -0.78854410       0.60422676
C        0.43421813      -0.13449647      -0.45004879
C       -1.05906889      -0.42538943      -0.28776186
O       -1.45329124       0.85188116       0.27252256
C        0.17781453       1.34797763      -0.17625677
H        0.87363891      -0.70636466       1.63809040
H        0.85140770      -0.33605050      -1.43673527
H       -1.57281934      -0.61509638      -1.23129146
H       -1.31019464      -1.21206701       0.42417839
H        0.61119704       1.71775614       0.75800773
H       -1.16100138       1.63434548      -0.51256349
12
Frame=6 idx=002159 GeodesicLength=0.3351353799698502 rxn_smarts="[O:1]=[C:2]([C:3]1([H:8])[C:4]([H:9])([H:10])[O:5][C:6]1([H:11])[H:12])[H:7]>>[O:1]=[C:2]([C@@:3]([C:4]([O:5][H:12])([H:9])[H:10])([C:6][H:11])[H:8])[H:7]"
O        2.33129091      -1.33286154       0.39565086
C        1.28212056      -0.78982424       0.60361058
C        0.43417098      -0.13687122      -0.44913758
C       -1.05875415      -0.42763525      -0.28588073
O       -1.44561285       0.85372546       0.26982475
C        0.17144183       1.34473248      -0.17098768
H        0.87668367      -0.70966445       1.63803911
H        0.85036715      -0.33581510      -1.43663719
H       -1.57253713      -0.61715917      -1.22936728
H       -1.31230355      -1.21240912       0.42755349
H        0.60632633       1.71442416       0.76280569
H       -1.16319377       1.64935800      -0.52547402
12
Frame=7 idx=002159 GeodesicLength=0.39130606223801195 rxn_smarts="[O:1]=[C:2]([C:3]1([H:8])[C:4]([H:9])([H:10])[O:5][C:6]1([H:11])[H:12])[H:7]>>[O:1]=[C:2]([C@@:3]([C:4]([O:5][H:12])([H:9])[H:10])([C:6][H:11])[H:8])[H:7]"
O        2.33444446      -1.33168433       0.39368136
C        1.28423107      -0.79105741       0.60302262
C        0.43408350      -0.13923373      -0.44822090
C       -1.05846501      -0.42993129      -0.28400792
O       -1.43799630       0.85543511       0.26722290
C        0.16503045       1.34146427      -0.16576055
H        0.87970416      -0.71287570       1.63797211
H        0.84929183      -0.33559770      -1.43646937
H       -1.57232116      -0.61916036      -1.22746493
H       -1.31441553      -1.21291167       0.43084050
H        0.60148650       1.71110344       0.76747734
H       -1.16507397       1.66444936      -0.53829317
12
Frame=8 idx=002159 GeodesicLength=0.44680669970963316 rxn_smarts="[O:1]=[C:2]([C:3]1([H:8])[C:4]([H:9])([H:10])[O:5][C:6]1([H:11])[H:12])[H:7]>>[O:1]=[C:2]([C@@:3]([C:4]([O:5][H:12])([H:9])[H:10])([C:6][H:11])[H:8])[H:7]"
O        2.33754472      -1.33045935       0.39187635
C        1.28632088      -0.79215469       0.60248416
C        0.43400094      -0.14165702      -0.44735687
C       -1.05818699      -0.43226886      -0.28217619
O       -1.43070690       0.85679777       0.26479646
C        0.15873408       1.33820691      -0.16094730
H        0.88266236      -0.71586146       1.63790542
H        0.84819251      -0.33568695      -1.43634997
H       -1.57208544      -0.62102020      -1.22564388
H       -1.31646038      -1.21351004       0.43387424
H        0.59649089       1.70783672       0.77183976
H       -1.16650666       1.67977716      -0.55030218
12
Frame=9 idx=002159 GeodesicLength=0.5024528093975421 rxn_smarts="[O:1]=[C:2]([C:3]1([H:8])[C:4]([H:9])([H:10])[O:5][C:6]1([H:11])[H:12])[H:7]>>[O:1]=[C:2]([C@@:3]([C:4]([O:5][H:12])([H:9])[H:10])([C:6][H:11])[H:8])[H:7]"
O        2.34063913      -1.32916703       0.39006890
C        1.28839203      -0.79321592       0.60193877
C        0.43386295      -0.14406921      -0.44649027
C       -1.05792951      -0.43463871      -0.28034229
O       -1.42348789       0.85804965       0.26242927
C        0.15241426       1.33492477      -0.15617133
H        0.88558927      -0.71878922       1.63784969
H        0.84705503      -0.33575146      -1.43620837
H       -1.57187663      -0.62286808      -1.22383320
H       -1.31851861      -1.21422922       0.43688981
H        0.59150772       1.70457556       0.77614217
H       -1.16764774       1.69517886      -0.56227316
12
Frame=10 idx=002159 GeodesicLength=0.5584647066178354 rxn_smarts="[O:1]=[C:2]([C:3]1([H:8])[C:4]([H:9])([H:10])[O:5][C:6]1([H:11])[H:12])[H:7]>>[O:1]=[C:2]([C@@:3]([C:4]([O:5][H:12])([H:9])[H:10])([C:6][H:11])[H:8])[H:7]"
O        2.34375828      -1.32775981       0.38834981
C        1.29044843      -0.79425202       0.60143821
C        0.43371752      -0.14656613      -0.44565809
C       -1.05769484      -0.43718914      -0.27854997
O       -1.41651999       0.85907623       0.25984875
C        0.14600117       1.33155489      -0.15157694
H        0.88851891      -0.72158955       1.63779765
H        0.84590027      -0.33597294      -1.43606641
H       -1.57168384      -0.62492472      -1.22206982
H       -1.32055142      -1.21511814       0.43987379
H        0.58650406       1.70128764       0.78020374
H       -1.16839855       1.71145369      -0.57359072
12
Frame=11 idx=002159 GeodesicLength=0.6142891911845118 rxn_smarts="[O:1]=[C:2]([C:3]1([H:8])[C:4]([H:9])([H:10])[O:5][C:6]1([H:11])[H:12])[H:7]>>[O:1]=[C:2]([C@@:3]([C:4]([O:5][H:12])([H:9])[H:10])([C:6][H:11])[H:8])[H:7]"
O        2.34684989      -1.32630049       0.38667448
C        1.29248575      -0.79521200       0.60094364
C        0.43352991      -0.14906916      -0.44483836
C       -1.05747782      -0.43976551      -0.27676237
O       -1.40967456       0.85991325       0.25742788
C        0.13960948       1.32818485      -0.14714103
H        0.89140135      -0.72427761       1.63775288
H        0.84470946      -0.33626951      -1.43592687
H       -1.57150510      -0.62690315      -1.22033167
H       -1.32256785      -1.21612323       0.44275598
H        0.58143719       1.69802713       0.78413911
H       -1.16879770       1.72779544      -0.58469367
12
Frame=12 idx=002159 GeodesicLength=0.6701140511760455 rxn_smarts="[O:1]=[C:2]([C:3]1([H:8])[C:4]([H:9])([H:10])[O:5][C:6]1([H:11])[H:12])[H:7]>>[O:1]=[C:2]([C@@:3]([C:4]([O:5][H:12])([H:9])[H:10])([C:6][H:11])[H:8])[H:7]"
O        2.34993675      -1.32476087       0.38504991
C        1.29450822      -0.79611512       0.60046486
C        0.43331056      -0.15160485      -0.44403709
C       -1.05728052      -0.44242429      -0.27498769
O       -1.40301014       0.86055559       0.25503771
C        0.13320029       1.32477935      -0.14285618
H        0.89426268      -0.72685504       1.63771358
H        0.84348324      -0.33666415      -1.43578955
H       -1.57134460      -0.62891390      -1.21861874
H       -1.32456517      -1.21726452       0.44557225
H        0.57631679       1.69476996       0.78792593
H       -1.16881810       1.74449784      -0.59547499
12
Frame=13 idx=002159 GeodesicLength=0.7259407739791969 rxn_smarts="[O:1]=[C:2]([C:3]1([H:8])[C:4]([H:9])([H:10])[O:5][C:6]1([H:11])[H:12])[H:7]>>[O:1]=[C:2]([C@@:3]([C:4]([O:5][H:12])([H:9])[H:10])([C:6][H:11])[H:8])[H:7]"
O        2.35302131      -1.32313594       0.38347272
C        1.29651591      -0.79696155       0.60000015
C        0.43305674      -0.15417423      -0.44325352
C       -1.05710463      -0.44516870      -0.27322323
O       -1.39652085       0.86100124       0.25268249
C        0.12676666       1.32133879      -0.13872094
H        0.89710403      -0.72932369       1.63767924
H        0.84221880      -0.33715636      -1.43565526
H       -1.57120462      -0.63096319      -1.21692749
H       -1.32654281      -1.21854385       0.44832650
H        0.57113259       1.69151425       0.79156897
H       -1.16844313       1.76157321      -0.60594963
12
Frame=14 idx=002159 GeodesicLength=0.7817703782667751 rxn_smarts="[O:1]=[C:2]([C:3]1([H:8])[C:4]([H:9])([H:10])[O:5][C:6]1([H:11])[H:12])[H:7]>>[O:1]=[C:2]([C@@:3]([C:4]([O:5][H:12])([H:9])[H:10])([C:6][H:11])[H:8])[H:7]"
O        2.35610640      -1.32142309       0.38193942
C        1.29850994      -0.79775136       0.59954852
C        0.43276640      -0.15677810      -0.44248709
C       -1.05695183      -0.44800279      -0.27146682
O       -1.39020675       0.86124995       0.25036542
C        0.12030182       1.31786337      -0.13473202
H        0.89992764      -0.73168563       1.63765016
H        0.84091432      -0.33774374      -1.43552466
H       -1.57108765      -0.63305802      -1.21525452
H       -1.32850044      -1.21996523       0.45102321
H        0.56587883       1.68825897       0.79507211
H       -1.16765868       1.77903568      -0.61613373
12
Frame=15 idx=002159 GeodesicLength=0.8378079936059368 rxn_smarts="[O:1]=[C:2]([C:3]1([H:8])[C:4]([H:9])([H:10])[O:5][C:6]1([H:11])[H:12])[H:7]>>[O:1]=[C:2]([C@@:3]([C:4]([O:5][H:12])([H:9])[H:10])([C:6][H:11])[H:8])[H:7]"
O        2.35919009      -1.31961575       0.38044140
C        1.30049830      -0.79853439       0.59907499
C        0.43245173      -0.15942276      -0.44174623
C       -1.05678395      -0.45091449      -0.26972235
O       -1.38404162       0.86136387       0.24806516
C        0.11374787       1.31432012      -0.13075484
H        0.90272479      -0.73400127       1.63761930
H        0.83959919      -0.33835754      -1.43540049
H       -1.57098176      -0.63523831      -1.21357015
H       -1.33045072      -1.22147766       0.45372665
H        0.56059768       1.68500147       0.79843604
H       -1.16655160       1.79687672      -0.62616948
12
Frame=16 idx=002159 GeodesicLength=0.8934152183708982 rxn_smarts="[O:1]=[C:2]([C:3]1([H:8])[C:4]([H:9])([H:10])[O:5][C:6]1([H:11])[H:12])[H:7]>>[O:1]=[C:2]([C@@:3]([C:4]([O:5][H:12])([H:9])[H:10])([C:6][H:11])[H:8])[H:7]"
O        2.36228140      -1.31770955       0.37897828
C        1.30245993      -0.79915331       0.59867284
C        0.43206554      -0.16208918      -0.44100280
C       -1.05671609      -0.45395805      -0.26796583
O       -1.37812959       0.86116294       0.24583443
C        0.10725761       1.31079690      -0.12716606
H        0.90553502      -0.73609936       1.63760028
H        0.83816513      -0.33919515      -1.43527647
H       -1.57092852      -0.63743238      -1.21194166
H       -1.33234969      -1.22323970       0.45627435
H        0.55512691       1.68173569       0.80169223
H       -1.16476764       1.81518115      -0.63569958
