15
Frame=0 idx=005819 GeodesicLength=0.0 rxn_smarts="[C:1]([C:2]([N:3]([C:4]([H:12])([H:13])[H:14])[C:5](=[O:6])[H:15])([H:10])[H:11])([H:7])([H:8])[H:9]>>[C:1]([C:2]([O:6]/[C:5](=[N:3]/[C:4]([H:12])([H:13])[H:14])[H:15])([H:10])[H:11])([H:7])([H:8])[H:9]"
C        1.96716919       0.19440721       0.07327387
C        0.94550988       0.70221526      -0.87757187
N       -0.85144205      -0.19971876      -0.02807748
C       -1.64391638      -1.39008519       0.14373244
C       -1.08457106       0.92300989       0.55019766
O       -0.30388555       1.88601895       0.34615331
H        2.94565279       0.29536253      -0.41260581
H        1.81097953      -0.85137160       0.32715730
H        1.99041385       0.79140958       0.98276760
H        0.65775200       0.03510335      -1.67552374
H        1.08041263       1.71877032      -1.21565851
H       -1.03941514      -2.20102352       0.56077835
H       -2.04072332      -1.73533728      -0.81485494
H       -2.49177697      -1.22628403       0.81807412
H       -1.94215935       1.05752332       1.22215766
15
Frame=1 idx=005819 GeodesicLength=0.03843678361077794 rxn_smarts="[C:1]([C:2]([N:3]([C:4]([H:12])([H:13])[H:14])[C:5](=[O:6])[H:15])([H:10])[H:11])([H:7])([H:8])[H:9]>>[C:1]([C:2]([O:6]/[C:5](=[N:3]/[C:4]([H:12])([H:13])[H:14])[H:15])([H:10])[H:11])([H:7])([H:8])[H:9]"
C        1.96412582       0.19284776       0.07494913
C        0.93249896       0.70181764      -0.86748768
N       -0.85164404      -0.19493186      -0.03600679
C       -1.63910628      -1.38757876       0.13982608
C       -1.09648206       0.92945044       0.53684270
O       -0.30441501       1.88759503       0.34735882
H        2.93809209       0.27964807      -0.42184835
H        1.80154596      -0.84922770       0.34051766
H        2.00294986       0.79646181       0.97970863
H        0.65645356       0.03820475      -1.67361286
H        1.07843868       1.71427802      -1.21517969
H       -1.03344257      -2.19231758       0.56683210
H       -2.02640686      -1.74098069      -0.81963282
H       -2.49178085      -1.22096767       0.80725286
H       -1.93082725       1.04570073       1.24048021
15
Frame=2 idx=005819 GeodesicLength=0.07656777376499557 rxn_smarts="[C:1]([C:2]([N:3]([C:4]([H:12])([H:13])[H:14])[C:5](=[O:6])[H:15])([H:10])[H:11])([H:7])([H:8])[H:9]>>[C:1]([C:2]([O:6]/[C:5](=[N:3]/[C:4]([H:12])([H:13])[H:14])[H:15])([H:10])[H:11])([H:7])([H:8])[H:9]"
C        1.96103521       0.19155561       0.07679861
C        0.91970236       0.70129956      -0.85758719
N       -0.85172228      -0.19032118      -0.04359387
C       -1.63442600      -1.38510049       0.13589210
C       -1.10654513       0.93488422       0.52606692
O       -0.30533540       1.88912429       0.34782682
H        2.93034986       0.26407560      -0.43052125
H        1.79227602      -0.84655120       0.35449061
H        2.01514930       0.80197674       0.97636498
H        0.65516219       0.04095369      -1.67138311
H        1.07627518       1.70946303      -1.21501297
H       -1.02735948      -2.18444065       0.57073437
H       -2.01388285      -1.74507169      -0.82421114
H       -2.49074073      -1.21623801       0.79795104
H       -1.91993826       1.03439050       1.25618409
15
Frame=3 idx=005819 GeodesicLength=0.11444011920549066 rxn_smarts="[C:1]([C:2]([N:3]([C:4]([H:12])([H:13])[H:14])[C:5](=[O:6])[H:15])([H:10])[H:11])([H:7])([H:8])[H:9]>>[C:1]([C:2]([O:6]/[C:5](=[N:3]/[C:4]([H:12])([H:13])[H:14])[H:15])([H:10])[H:11])([H:7])([H:8])[H:9]"
C        1.95795399       0.19041988       0.07872402
C        0.90714466       0.70074081      -0.84784487
N       -0.85163496      -0.18590442      -0.05083604
C       -1.62980338      -1.38268022       0.13203465
C       -1.11498607       0.93944266       0.51752170
O       -0.30645087       1.89064248       0.34782838
H        2.92249056       0.24867026      -0.43870286
H        1.78324975      -0.84351304       0.36872600
H        2.02706633       0.80763278       0.97278559
H        0.65385554       0.04353740      -1.66890663
H        1.07401445       1.70444694      -1.21500510
H       -1.02107073      -2.17735166       0.57282968
H       -2.00295300      -1.74786252      -0.82852584
H       -2.48870593      -1.21204337       0.79015689
H       -1.91017033       1.02382202       1.26921443
15
Frame=4 idx=005819 GeodesicLength=0.15211567020187583 rxn_smarts="[C:1]([C:2]([N:3]([C:4]([H:12])([H:13])[H:14])[C:5](=[O:6])[H:15])([H:10])[H:11])([H:7])([H:8])[H:9]>>[C:1]([C:2]([O:6]/[C:5](=[N:3]/[C:4]([H:12])([H:13])[H:14])[H:15])([H:10])[H:11])([H:7])([H:8])[H:9]"
C        1.95489438       0.18933438       0.08063108
C        0.89482029       0.70021135      -0.83825024
N       -0.85138580      -0.18165271      -0.05776265
C       -1.62518890      -1.38031711       0.12831345
C       -1.12232132       0.94341137       0.51048876
O       -0.30764184       1.89215331       0.34757653
H        2.91454393       0.23347858      -0.44646001
H        1.77449874      -0.84029060       0.38287869
H        2.03868850       0.81311965       0.96903057
H        0.65250638       0.04613415      -1.66627224
H        1.07172659       1.69934411      -1.21502802
H       -1.01462626      -2.17082347       0.57382800
H       -1.99305274      -1.74981018      -0.83259525
H       -2.48599518      -1.20820477       0.78344759
H       -1.90146678       1.01391194       1.28017375
15
Frame=5 idx=005819 GeodesicLength=0.18962193814022782 rxn_smarts="[C:1]([C:2]([N:3]([C:4]([H:12])([H:13])[H:14])[C:5](=[O:6])[H:15])([H:10])[H:11])([H:7])([H:8])[H:9]>>[C:1]([C:2]([O:6]/[C:5](=[N:3]/[C:4]([H:12])([H:13])[H:14])[H:15])([H:10])[H:11])([H:7])([H:8])[H:9]"
C        1.95191644       0.18817974       0.08240240
C        0.88271996       0.69980879      -0.82874345
N       -0.85093833      -0.17756509      -0.06430844
C       -1.62051998      -1.37801587       0.12485807
C       -1.12888994       0.94696281       0.50448517
O       -0.30876288       1.89358932       0.34746167
H        2.90656862       0.21855633      -0.45395731
H        1.76611654      -0.83710403       0.39654948
H        2.05009269       0.81809020       0.96516684
H        0.65104631       0.04897178      -1.66352785
H        1.06944014       1.69430535      -1.21485946
H       -1.00803123      -2.16468436       0.57426069
H       -1.98380429      -1.75122388      -0.83630353
H       -2.48276181      -1.20463313       0.77763968
H       -1.89419223       1.00476205       1.28887604
15
Frame=6 idx=005819 GeodesicLength=0.2270153473971441 rxn_smarts="[C:1]([C:2]([N:3]([C:4]([H:12])([H:13])[H:14])[C:5](=[O:6])[H:15])([H:10])[H:11])([H:7])([H:8])[H:9]>>[C:1]([C:2]([O:6]/[C:5](=[N:3]/[C:4]([H:12])([H:13])[H:14])[H:15])([H:10])[H:11])([H:7])([H:8])[H:9]"
C        1.94897425       0.18698720       0.08405437
C        0.87083042       0.69949769      -0.81935097
N       -0.85034489      -0.17360393      -0.07056247
C       -1.61582160      -1.37576387       0.12156744
C       -1.13492330       0.95022396       0.49922432
O       -0.30983490       1.89498500       0.34734716
H        2.89851240       0.20381491      -0.46119848
H        1.75799424      -0.83387646       0.40988718
H        2.06129634       0.82269065       0.96113023
H        0.64950048       0.05198396      -1.66069577
H        1.06716544       1.68929676      -1.21458020
H       -1.00140529      -2.15880395       0.57443183
H       -1.97485595      -1.75232643      -0.83983419
H       -2.47929222      -1.20120474       0.77228816
H       -1.88779541       0.99609924       1.29629139
15
Frame=7 idx=005819 GeodesicLength=0.2642788647938612 rxn_smarts="[C:1]([C:2]([N:3]([C:4]([H:12])([H:13])[H:14])[C:5](=[O:6])[H:15])([H:10])[H:11])([H:7])([H:8])[H:9]>>[C:1]([C:2]([O:6]/[C:5](=[N:3]/[C:4]([H:12])([H:13])[H:14])[H:15])([H:10])[H:11])([H:7])([H:8])[H:9]"
C        1.94604741       0.18574079       0.08561616
C        0.85915681       0.69928717      -0.81009984
N       -0.84962154      -0.16975863      -0.07658738
C       -1.61109179      -1.37355198       0.11845642
C       -1.14051416       0.95325638       0.49449460
O       -0.31090029       1.89637698       0.34716273
H        2.89043106       0.18936305      -0.46808626
H        1.75014530      -0.83069334       0.42278852
H        2.07214602       0.82682844       0.95705521
H        0.64791409       0.05515671      -1.65781561
H        1.06494592       1.68432335      -1.21421258
H       -0.99468823      -2.15317489       0.57428109
H       -1.96632939      -1.75311468      -0.84312822
H       -2.47550223      -1.19792583       0.76752156
H       -1.88213897       0.98788648       1.30255359
15
Frame=8 idx=005819 GeodesicLength=0.3014524980692322 rxn_smarts="[C:1]([C:2]([N:3]([C:4]([H:12])([H:13])[H:14])[C:5](=[O:6])[H:15])([H:10])[H:11])([H:7])([H:8])[H:9]>>[C:1]([C:2]([O:6]/[C:5](=[N:3]/[C:4]([H:12])([H:13])[H:14])[H:15])([H:10])[H:11])([H:7])([H:8])[H:9]"
C        1.94311784       0.18445993       0.08710021
C        0.84768197       0.69917073      -0.80098673
N       -0.84880318      -0.16600922      -0.08243143
C       -1.60634467      -1.37137545       0.11547298
C       -1.14575962       0.95610027       0.49018447
O       -0.31196509       1.89776920       0.34689797
H        2.88228809       0.17507850      -0.47466832
H        1.74248665      -0.82748768       0.43539804
H        2.08272790       0.83063463       0.95287689
H        0.64629409       0.05846651      -1.65489076
H        1.06277231       1.67938379      -1.21376928
H       -0.98792716      -2.14773098       0.57391893
H       -1.95808017      -1.75368521      -0.84626461
H       -2.47151149      -1.19475531       0.76314275
H       -1.87697745       0.97998030       1.30801891
15
Frame=9 idx=005819 GeodesicLength=0.3385635807869861 rxn_smarts="[C:1]([C:2]([N:3]([C:4]([H:12])([H:13])[H:14])[C:5](=[O:6])[H:15])([H:10])[H:11])([H:7])([H:8])[H:9]>>[C:1]([C:2]([O:6]/[C:5](=[N:3]/[C:4]([H:12])([H:13])[H:14])[H:15])([H:10])[H:11])([H:7])([H:8])[H:9]"
C        1.94020758       0.18311654       0.08845254
C        0.83638181       0.69917900      -0.79197904
N       -0.84789057      -0.16234459      -0.08806607
C       -1.60156021      -1.36923747       0.11263033
C       -1.15075804       0.95879944       0.48621324
O       -0.31297991       1.89911461       0.34673183
H        2.87406078       0.16084872      -0.48109822
H        1.73499116      -0.82427052       0.44770451
H        2.09319562       0.83409546       0.94852189
H        0.64459152       0.06199572      -1.65192607
H        1.06061735       1.67453971      -1.21316798
H       -0.98118184      -2.14236906       0.57364774
H       -1.94979736      -1.75420732      -0.84927195
H       -2.46748921      -1.19163727       0.75889489
H       -1.87238869       0.97237702       1.31271236
15
Frame=10 idx=005819 GeodesicLength=0.3756345402902913 rxn_smarts="[C:1]([C:2]([N:3]([C:4]([H:12])([H:13])[H:14])[C:5](=[O:6])[H:15])([H:10])[H:11])([H:7])([H:8])[H:9]>>[C:1]([C:2]([O:6]/[C:5](=[N:3]/[C:4]([H:12])([H:13])[H:14])[H:15])([H:10])[H:11])([H:7])([H:8])[H:9]"
C        1.93728120       0.18177203       0.08973632
C        0.82524421       0.69928178      -0.78310350
N       -0.84692289      -0.15875434      -0.09356552
C       -1.59678356      -1.36712938       0.10983592
C       -1.15551145       0.96134321       0.48256856
O       -0.31401102       1.90045581       0.34651227
H        2.86570737       0.14656010      -0.48733054
H        1.72756034      -0.82089963       0.45997288
H        2.10356875       0.83743668       0.94393003
H        0.64285259       0.06563421      -1.64891762
H        1.05846489       1.66973892      -1.21250857
H       -0.97450324      -2.13709208       0.57336912
H       -1.94151873      -1.75465828      -0.85225365
H       -2.46348282      -1.18855777       0.75468255
H       -1.86794563       0.96486872       1.31707174
15
Frame=11 idx=005819 GeodesicLength=0.4126830598259712 rxn_smarts="[C:1]([C:2]([N:3]([C:4]([H:12])([H:13])[H:14])[C:5](=[O:6])[H:15])([H:10])[H:11])([H:7])([H:8])[H:9]>>[C:1]([C:2]([O:6]/[C:5](=[N:3]/[C:4]([H:12])([H:13])[H:14])[H:15])([H:10])[H:11])([H:7])([H:8])[H:9]"
C        1.93434579       0.18042882       0.09093715
C        0.81425240       0.69949149      -0.77434233
N       -0.84591099      -0.15523069      -0.09892873
C       -1.59201355      -1.36505683       0.10706679
C       -1.16007296       0.96375120       0.47922880
O       -0.31504328       1.90177034       0.34632413
H        2.85718192       0.13206052      -0.49345604
H        1.72014217      -0.81730880       0.47232293
H        2.11399153       0.84073995       0.93899770
H        0.64105806       0.06940721      -1.64586408
H        1.05629332       1.66501060      -1.21176313
H       -0.96793200      -2.13185858       0.57320954
H       -1.93308037      -1.75511842      -0.85526482
H       -2.45959759      -1.18549527       0.75033876
H       -1.86361445       0.95740847       1.32119334
15
Frame=12 idx=005819 GeodesicLength=0.4497426086000352 rxn_smarts="[C:1]([C:2]([N:3]([C:4]([H:12])([H:13])[H:14])[C:5](=[O:6])[H:15])([H:10])[H:11])([H:7])([H:8])[H:9]>>[C:1]([C:2]([O:6]/[C:5](=[N:3]/[C:4]([H:12])([H:13])[H:14])[H:15])([H:10])[H:11])([H:7])([H:8])[H:9]"
C        1.93135589       0.17914072       0.09211646
C        0.80338978       0.69978492      -0.76572024
N       -0.84489600      -0.15176003      -0.10423494
C       -1.58728214      -1.36301035       0.10423957
C       -1.16439474       0.96598243       0.47622202
O       -0.31614023       1.90309011       0.34602003
H        2.84842290       0.11722786      -0.49939920
H        1.71262852      -0.81334339       0.48499817
H        2.12447467       0.84419704       0.93365656
H        0.63924006       0.07322531      -1.64276047
H        1.05409290       1.66030793      -1.21100812
H       -0.96149183      -2.12666035       0.57303227
H       -1.92455407      -1.75554968      -0.85837286
H       -2.45582907      -1.18245851       0.74580927
H       -1.85901663       0.94982600       1.32540148
15
Frame=13 idx=005819 GeodesicLength=0.48678222648259684 rxn_smarts="[C:1]([C:2]([N:3]([C:4]([H:12])([H:13])[H:14])[C:5](=[O:6])[H:15])([H:10])[H:11])([H:7])([H:8])[H:9]>>[C:1]([C:2]([O:6]/[C:5](=[N:3]/[C:4]([H:12])([H:13])[H:14])[H:15])([H:10])[H:11])([H:7])([H:8])[H:9]"
C        1.92835487       0.17781206       0.09320041
C        0.79266965       0.70019845      -0.75720031
N       -0.84384222      -0.14833476      -0.10942384
C       -1.58252066      -1.36099669       0.10147429
C       -1.16859259       0.96812271       0.47342414
O       -0.31720954       1.90437947       0.34580502
H        2.83949144       0.10221056      -0.50522421
H        1.70514325      -0.80921867       0.49764958
H        2.13497617       0.84748904       0.92801490
H        0.63736563       0.07722084      -1.63963569
H        1.05190397       1.65571487      -1.21011888
H       -0.95507424      -2.12148273       0.57298066
H       -1.91588032      -1.75600548      -0.86144497
H       -2.45210907      -1.17946108       0.74124105
H       -1.85467633       0.94235141       1.32925784
15
Frame=14 idx=005819 GeodesicLength=0.5237948255110948 rxn_smarts="[C:1]([C:2]([N:3]([C:4]([H:12])([H:13])[H:14])[C:5](=[O:6])[H:15])([H:10])[H:11])([H:7])([H:8])[H:9]>>[C:1]([C:2]([O:6]/[C:5](=[N:3]/[C:4]([H:12])([H:13])[H:14])[H:15])([H:10])[H:11])([H:7])([H:8])[H:9]"
C        1.92533429       0.17644038       0.09421487
C        0.78210024       0.70071102      -0.74879016
N       -0.84273893      -0.14496062      -0.11450753
C       -1.57772476      -1.35901128       0.09878757
C       -1.17265537       0.97018064       0.47077781
O       -0.31826310       1.90565433       0.34561045
H        2.83042864       0.08715922      -0.51083938
H        1.69773651      -0.80499812       0.51017093
H        2.14535917       0.85054135       0.92219063
H        0.63546288       0.08134575      -1.63649323
H        1.04974899       1.65120361      -1.20911881
H       -0.94861514      -2.11637298       0.57288497
H       -1.90726561      -1.75639631      -0.86442239
H       -2.44829296      -1.17653597       0.73683382
H       -1.85061486       0.93503897       1.33270044
15
Frame=15 idx=005819 GeodesicLength=0.5607943391196932 rxn_smarts="[C:1]([C:2]([N:3]([C:4]([H:12])([H:13])[H:14])[C:5](=[O:6])[H:15])([H:10])[H:11])([H:7])([H:8])[H:9]>>[C:1]([C:2]([O:6]/[C:5](=[N:3]/[C:4]([H:12])([H:13])[H:14])[H:15])([H:10])[H:11])([H:7])([H:8])[H:9]"
C        1.92227611       0.17505023       0.09518090
C        0.77166596       0.70131781      -0.74050237
N       -0.84161570      -0.14162342      -0.11952594
C       -1.57291215      -1.35705039       0.09612806
C       -1.17658379       0.97214519       0.46831242
O       -0.31932768       1.90692899       0.34539006
H        2.82119156       0.07194994      -0.51624572
H        1.69033494      -0.80058253       0.52273024
H        2.15568516       0.85347561       0.91610612
H        0.63354040       0.08557021      -1.63333654
H        1.04761754       1.64676618      -1.20804435
H       -0.94214376      -2.11130654       0.57275799
H       -1.89864714      -1.75674742      -0.86737625
H       -2.44445160      -1.17366990       0.73247299
H       -1.84662985       0.92777602       1.33595239
15
Frame=16 idx=005819 GeodesicLength=0.5977718268145629 rxn_smarts="[C:1]([C:2]([N:3]([C:4]([H:12])([H:13])[H:14])[C:5](=[O:6])[H:15])([H:10])[H:11])([H:7])([H:8])[H:9]>>[C:1]([C:2]([O:6]/[C:5](=[N:3]/[C:4]([H:12])([H:13])[H:14])[H:15])([H:10])[H:11])([H:7])([H:8])[H:9]"
C        1.91917157       0.17365472       0.09612060
C        0.76136993       0.70199529      -0.73235279
N       -0.84045939      -0.13833508      -0.12447938
C       -1.56809992      -1.35510716       0.09349813
C       -1.18035972       0.97401397       0.46600694
O       -0.32042524       1.90822435       0.34504367
H        2.81182494       0.05674651      -0.52136124
H        1.68298861      -0.79601833       0.53523464
H        2.16581889       0.85624657       0.90986304
H        0.63162427       0.08983076      -1.63016164
H        1.04551929       1.64236584      -1.20694463
H       -0.93567020      -2.10632052       0.57251863
H       -1.89013890      -1.75699675      -0.87028986
H       -2.44053819      -1.17085936       0.72824082
H       -1.84262593       0.92055919       1.33906306
