13
Frame=0 idx=009830 GeodesicLength=0.0 rxn_smarts="[C:1]1([H:8])([H:9])[O:2][C@@:3]2([H:10])[C@@:4]3([H:11])[O:5][C@:6]1([H:12])[C@@:7]23[H:13]>>[C-:1]1=[O+:2][C@@:3]2([H:10])[C@@:4]3([H:11])[O:5][C@:6]1([H:12])[C@@:7]23[H:13].[H:8][H:9]"
C        0.12041111       0.48303139       1.39844807
O        0.26533557      -0.83236488       1.27296507
C        0.12862059      -1.22386209      -0.09537586
C       -1.09555327      -0.69225618      -0.80279672
O       -1.63981114       0.38485531      -0.06991375
C       -0.30332241       0.96831275       0.03022335
C        0.24399657      -0.04970727      -0.99423312
H        1.71765914       1.17287100       1.15535552
H        1.14864698       1.12053957       1.85485933
H        0.53441210      -2.19965310      -0.31441266
H       -1.75051568      -1.27070972      -1.43948296
H       -0.27699188       2.03702524      -0.16403333
H        0.90711232       0.10191797      -1.83160292
13
Frame=1 idx=009830 GeodesicLength=0.04916206217769168 rxn_smarts="[C:1]1([H:8])([H:9])[O:2][C@@:3]2([H:10])[C@@:4]3([H:11])[O:5][C@:6]1([H:12])[C@@:7]23[H:13]>>[C-:1]1=[O+:2][C@@:3]2([H:10])[C@@:4]3([H:11])[O:5][C@:6]1([H:12])[C@@:7]23[H:13].[H:8][H:9]"
C        0.13264056       0.48086165       1.39068179
O        0.27165058      -0.83680284       1.26662051
C        0.12786524      -1.22719736      -0.10055547
C       -1.09848247      -0.69329611      -0.80258853
O       -1.63740921       0.38465568      -0.06678689
C       -0.29972244       0.96624217       0.02518560
C        0.24175245      -0.05332986      -1.00013802
H        1.72104094       1.17808372       1.17862889
H        1.14169785       1.14434616       1.88024261
H        0.53016656      -2.20385428      -0.32240734
H       -1.75762414      -1.27025005      -1.43633707
H       -0.27410195       2.03455840      -0.17116988
H        0.90052602       0.09598273      -1.84137621
13
Frame=2 idx=009830 GeodesicLength=0.0983003006697457 rxn_smarts="[C:1]1([H:8])([H:9])[O:2][C@@:3]2([H:10])[C@@:4]3([H:11])[O:5][C@:6]1([H:12])[C@@:7]23[H:13]>>[C-:1]1=[O+:2][C@@:3]2([H:10])[C@@:4]3([H:11])[O:5][C@:6]1([H:12])[C@@:7]23[H:13].[H:8][H:9]"
C        0.14560266       0.47863816       1.38263943
O        0.27829553      -0.84133498       1.26004324
C        0.12715952      -1.23062282      -0.10589930
C       -1.10145579      -0.69429994      -0.80222783
O       -1.63472139       0.38454348      -0.06339354
C       -0.29580497       0.96411109       0.02002913
C        0.23945082      -0.05707566      -1.00625929
H        1.72427296       1.18373935       1.20298822
H        1.13357490       1.16829979       1.90548408
H        0.52579030      -2.20818756      -0.33060816
H       -1.76498182      -1.26967943      -1.43284606
H       -0.27084810       2.03202178      -0.17844953
H        0.89366538       0.08984674      -1.85150038
13
Frame=3 idx=009830 GeodesicLength=0.14737015748637528 rxn_smarts="[C:1]1([H:8])([H:9])[O:2][C@@:3]2([H:10])[C@@:4]3([H:11])[O:5][C@:6]1([H:12])[C@@:7]23[H:13]>>[C-:1]1=[O+:2][C@@:3]2([H:10])[C@@:4]3([H:11])[O:5][C@:6]1([H:12])[C@@:7]23[H:13].[H:8][H:9]"
C        0.15933094       0.47637413       1.37429169
O        0.28528384      -0.84594423       1.25323139
C        0.12650638      -1.23412916      -0.11139901
C       -1.10446871      -0.69526001      -0.80169622
O       -1.63172788       0.38452773      -0.05972350
C       -0.29156099       0.96192579       0.01474297
C        0.23708406      -0.06094163      -1.01259970
H        1.72731262       1.18985430       1.22842036
H        1.12423805       1.19228700       1.93056452
H        0.52128608      -2.21264160      -0.33899470
H       -1.77258032      -1.26898742      -1.42898495
H       -0.26722809       2.02942076      -0.18588555
H        0.88652401       0.08351433      -1.86196730
13
Frame=4 idx=009830 GeodesicLength=0.19631359911024862 rxn_smarts="[C:1]1([H:8])([H:9])[O:2][C@@:3]2([H:10])[C@@:4]3([H:11])[O:5][C@:6]1([H:12])[C@@:7]23[H:13]>>[C-:1]1=[O+:2][C@@:3]2([H:10])[C@@:4]3([H:11])[O:5][C@:6]1([H:12])[C@@:7]23[H:13].[H:8][H:9]"
C        0.17386451       0.47410468       1.36561344
O        0.29262614      -0.85058627       1.24619204
C        0.12591193      -1.23769971      -0.11704660
C       -1.10752267      -0.69617366      -0.80097955
O       -1.62842134       0.38461859      -0.05576370
C       -0.28698594       0.95969926       0.00931360
C        0.23464631      -0.06492975      -1.01917127
H        1.73011599       1.19644619       1.25491792
H        1.11366767       1.21615521       1.95549025
H        0.51666513      -2.21719869      -0.34754725
H       -1.78041988      -1.26817731      -1.42473713
H       -0.26324976       2.02676458      -0.19349634
H        0.87910191       0.07697688      -1.87278541
13
Frame=5 idx=009830 GeodesicLength=0.24505891783524103 rxn_smarts="[C:1]1([H:8])([H:9])[O:2][C@@:3]2([H:10])[C@@:4]3([H:11])[O:5][C@:6]1([H:12])[C@@:7]23[H:13]>>[C-:1]1=[O+:2][C@@:3]2([H:10])[C@@:4]3([H:11])[O:5][C@:6]1([H:12])[C@@:7]23[H:13].[H:8][H:9]"
C        0.18929906       0.47184917       1.35657125
O        0.30034790      -0.85526646       1.23891085
C        0.12537832      -1.24133664      -0.12284016
C       -1.11061560      -0.69703493      -0.80004860
O       -1.62476819       0.38482323      -0.05147804
C       -0.28205328       0.95744126       0.00373349
C        0.23213078      -0.06903378      -1.02597714
H        1.73263899       1.20349731       1.28247561
H        1.10171773       1.23984964       1.98021663
H        0.51191921      -2.22186651      -0.35625883
H       -1.78850422      -1.26723525      -1.42006699
H       -0.25888707       2.02406861      -0.20128871
H        0.87139638       0.07024435      -1.88394934
13
Frame=6 idx=009830 GeodesicLength=0.29347917075729124 rxn_smarts="[C:1]1([H:8])([H:9])[O:2][C@@:3]2([H:10])[C@@:4]3([H:11])[O:5][C@:6]1([H:12])[C@@:7]23[H:13]>>[C-:1]1=[O+:2][C@@:3]2([H:10])[C@@:4]3([H:11])[O:5][C@:6]1([H:12])[C@@:7]23[H:13].[H:8][H:9]"
C        0.20567379       0.46973365       1.34717066
O        0.30843625      -0.85988530       1.23144092
C        0.12491822      -1.24502237      -0.12877127
C       -1.11376701      -0.69787681      -0.79889650
O       -1.62080070       0.38515519      -0.04682490
C       -0.27676505       0.95521766      -0.00200329
C        0.22955653      -0.07324736      -1.03305655
H        1.73482105       1.21096081       1.31107782
H        1.08841323       1.26314080       2.00476872
H        0.50707999      -2.22665157      -0.36512154
H       -1.79686148      -1.26625039      -1.41497962
H       -0.25416254       2.02141343      -0.20927712
H        0.86345771       0.06331226      -1.89552735
13
Frame=7 idx=009830 GeodesicLength=0.3425150464401997 rxn_smarts="[C:1]1([H:8])([H:9])[O:2][C@@:3]2([H:10])[C@@:4]3([H:11])[O:5][C@:6]1([H:12])[C@@:7]23[H:13]>>[C-:1]1=[O+:2][C@@:3]2([H:10])[C@@:4]3([H:11])[O:5][C@:6]1([H:12])[C@@:7]23[H:13].[H:8][H:9]"
C        0.22284398       0.46748734       1.33726573
O        0.31689241      -0.86458810       1.22365701
C        0.12450170      -1.24873589      -0.13479925
C       -1.11690221      -0.69858192      -0.79751528
O       -1.61643693       0.38559582      -0.04197571
C       -0.27118957       0.95287538      -0.00793393
C        0.22682566      -0.07757859      -1.04028116
H        1.73666267       1.21887906       1.34056144
H        1.07398374       1.28624025       2.02918825
H        0.50213029      -2.23143864      -0.37401562
H       -1.80531947      -1.26495452      -1.40944901
H       -0.24914965       2.01859590      -0.21747505
H        0.85515738       0.05620392      -1.90722742
13
Frame=8 idx=009830 GeodesicLength=0.3915708504151031 rxn_smarts="[C:1]1([H:8])([H:9])[O:2][C@@:3]2([H:10])[C@@:4]3([H:11])[O:5][C@:6]1([H:12])[C@@:7]23[H:13]>>[C-:1]1=[O+:2][C@@:3]2([H:10])[C@@:4]3([H:11])[O:5][C@:6]1([H:12])[C@@:7]23[H:13].[H:8][H:9]"
C        0.24097823       0.46535108       1.32691784
O        0.32573014      -0.86924259       1.21564912
C        0.12414760      -1.25250114      -0.14095305
C       -1.12008209      -0.69924706      -0.79588206
O       -1.61171871       0.38617748      -0.03676944
C       -0.26525530       0.95056122      -0.01404146
C        0.22400608      -0.08201821      -1.04776267
H        1.73810804       1.22723546       1.37103343
H        1.05819457       1.30887177       2.05345327
H        0.49707558      -2.23634099      -0.38302441
H       -1.81401799      -1.26357053      -1.40345754
H       -0.24376807       2.01581934      -0.22587840
H        0.84660191       0.04890418      -1.91928464
13
Frame=9 idx=009830 GeodesicLength=0.43985659844049113 rxn_smarts="[C:1]1([H:8])([H:9])[O:2][C@@:3]2([H:10])[C@@:4]3([H:11])[O:5][C@:6]1([H:12])[C@@:7]23[H:13]>>[C-:1]1=[O+:2][C@@:3]2([H:10])[C@@:4]3([H:11])[O:5][C@:6]1([H:12])[C@@:7]23[H:13].[H:8][H:9]"
C        0.25962506       0.46328900       1.31635049
O        0.33473579      -0.87380968       1.20757351
C        0.12384493      -1.25623100      -0.14710987
C       -1.12322682      -0.69984780      -0.79405492
O       -1.60675156       0.38685182      -0.03133060
C       -0.25913078       0.94826086      -0.02016657
C        0.22113713      -0.08647857      -1.05530652
H        1.73899393       1.23556081       1.40205208
H        1.04173408       1.33106048       2.07684237
H        0.49201240      -2.24120800      -0.39200806
H       -1.82271847      -1.26206891      -1.39721307
H       -0.23821870       2.01304783      -0.23425963
H        0.83796300       0.04157318      -1.93136918
13
Frame=10 idx=009830 GeodesicLength=0.48832394196142753 rxn_smarts="[C:1]1([H:8])([H:9])[O:2][C@@:3]2([H:10])[C@@:4]3([H:11])[O:5][C@:6]1([H:12])[C@@:7]23[H:13]>>[C-:1]1=[O+:2][C@@:3]2([H:10])[C@@:4]3([H:11])[O:5][C@:6]1([H:12])[C@@:7]23[H:13].[H:8][H:9]"
C        0.27946349       0.46133575       1.30515661
O        0.34428283      -0.87829468       1.19918917
C        0.12363748      -1.25998707      -0.15339798
C       -1.12640044      -0.70035414      -0.79189595
O       -1.60130530       0.38771681      -0.02550336
C       -0.25256378       0.94597198      -0.02656356
C        0.21813650      -0.09107178      -1.06314821
H        1.73933837       1.24439542       1.43421311
H        1.02359301       1.35257806       2.10023269
H        0.48682377      -2.24615793      -0.40107798
H       -1.83169676      -1.26038565      -1.39032812
H       -0.23222342       2.01027418      -0.24298736
H        0.82891425       0.03397904      -1.94388908
13
Frame=11 idx=009830 GeodesicLength=0.5367076880764344 rxn_smarts="[C:1]1([H:8])([H:9])[O:2][C@@:3]2([H:10])[C@@:4]3([H:11])[O:5][C@:6]1([H:12])[C@@:7]23[H:13]>>[C-:1]1=[O+:2][C@@:3]2([H:10])[C@@:4]3([H:11])[O:5][C@:6]1([H:12])[C@@:7]23[H:13].[H:8][H:9]"
C        0.30052191       0.45958224       1.29329378
O        0.35446555      -0.88259830       1.19049749
C        0.12355643      -1.26372793      -0.15979133
C       -1.12958520      -0.70075395      -0.78936120
O       -1.59533707       0.38882365      -0.01928180
C       -0.24551898       0.94373719      -0.03326935
C        0.21500406      -0.09578976      -1.07130600
H        1.73896647       1.25371900       1.46750637
H        1.00368861       1.37308487       2.12362437
H        0.48152312      -2.25116063      -0.41019220
H       -1.84095739      -1.25854207      -1.38270007
H       -0.22573857       2.00753262      -0.25212536
H        0.81941107       0.02609306      -1.95689470
13
Frame=12 idx=009830 GeodesicLength=0.5848110004854905 rxn_smarts="[C:1]1([H:8])([H:9])[O:2][C@@:3]2([H:10])[C@@:4]3([H:11])[O:5][C@:6]1([H:12])[C@@:7]23[H:13]>>[C-:1]1=[O+:2][C@@:3]2([H:10])[C@@:4]3([H:11])[O:5][C@:6]1([H:12])[C@@:7]23[H:13].[H:8][H:9]"
C        0.32299758       0.45809635       1.28060728
O        0.36546639      -0.88661305       1.18141884
C        0.12364341      -1.26741964      -0.16630845
C       -1.13276058      -0.70101617      -0.78635780
O       -1.58872138       0.39025849      -0.01260927
C       -0.23788795       0.94158368      -0.04037973
C        0.21171002      -0.10066200      -1.07985617
H        1.73760728       1.26358980       1.50218402
H        0.98174082       1.39226238       2.14711284
H        0.47609421      -2.25619994      -0.41934816
H       -1.85054558      -1.25652137      -1.37410533
H       -0.21864211       2.00482775      -0.26181664
H        0.80929790       0.01781373      -1.97054145
13
Frame=13 idx=009830 GeodesicLength=0.6329407875909739 rxn_smarts="[C:1]1([H:8])([H:9])[O:2][C@@:3]2([H:10])[C@@:4]3([H:11])[O:5][C@:6]1([H:12])[C@@:7]23[H:13]>>[C-:1]1=[O+:2][C@@:3]2([H:10])[C@@:4]3([H:11])[O:5][C@:6]1([H:12])[C@@:7]23[H:13].[H:8][H:9]"
C        0.34669776       0.45677462       1.26723831
O        0.37709805      -0.89046059       1.17204337
C        0.12386521      -1.27108368      -0.17290302
C       -1.13590571      -0.70113831      -0.78294111
O       -1.58153090       0.39195190      -0.00552574
C       -0.22976414       0.93948194      -0.04775013
C        0.20828918      -0.10563210      -1.08866375
H        1.73531189       1.27373011       1.53791005
H        0.95805019       1.41048676       2.17027414
H        0.47055964      -2.26127169      -0.42851679
H       -1.86035546      -1.25428377      -1.36473348
H       -0.21104056       2.00215819      -0.27184131
H        0.79872487       0.00928663      -1.98459053
13
Frame=14 idx=009830 GeodesicLength=0.6809367707795704 rxn_smarts="[C:1]1([H:8])([H:9])[O:2][C@@:3]2([H:10])[C@@:4]3([H:11])[O:5][C@:6]1([H:12])[C@@:7]23[H:13]>>[C-:1]1=[O+:2][C@@:3]2([H:10])[C@@:4]3([H:11])[O:5][C@:6]1([H:12])[C@@:7]23[H:13].[H:8][H:9]"
C        0.37189466       0.45578777       1.25295329
O        0.38959459      -0.89394784       1.16228739
C        0.12428431      -1.27465599      -0.17957068
C       -1.13900377      -0.70108304      -0.77898810
O       -1.57362455       0.39402765       0.00201984
C       -0.22102802       0.93750222      -0.05554812
C        0.20469922      -0.11072962      -1.09783910
H        1.73181443       1.28420734       1.57493345
H        0.93221068       1.42712842       2.19337021
H        0.46492570      -2.26634089      -0.43763822
H       -1.87045241      -1.25184281      -1.35427532
H       -0.20281302       1.99956747      -0.28245567
H        0.78749818       0.00037931      -1.99924899
13
Frame=15 idx=009830 GeodesicLength=0.7288039404488523 rxn_smarts="[C:1]1([H:8])([H:9])[O:2][C@@:3]2([H:10])[C@@:4]3([H:11])[O:5][C@:6]1([H:12])[C@@:7]23[H:13]>>[C-:1]1=[O+:2][C@@:3]2([H:10])[C@@:4]3([H:11])[O:5][C@:6]1([H:12])[C@@:7]23[H:13].[H:8][H:9]"
C        0.39877593       0.45520681       1.23761958
O        0.40311905      -0.89699848       1.15209190
C        0.12493955      -1.27810986      -0.18630794
C       -1.14203482      -0.70081558      -0.77440601
O       -1.56488685       0.39656325       0.01007933
C       -0.21157949       0.93567641      -0.06384100
C        0.20092163      -0.11596516      -1.10742243
H        1.72685703       1.29501921       1.61337759
H        0.90393177       1.44188535       2.21640472
H        0.45917232      -2.27140107      -0.44668497
H       -1.88087360      -1.24916706      -1.34253206
H       -0.19384176       1.99707957      -0.29376956
H        0.77549925      -0.00897336      -2.01460915
13
Frame=16 idx=009830 GeodesicLength=0.7765892372615498 rxn_smarts="[C:1]1([H:8])([H:9])[O:2][C@@:3]2([H:10])[C@@:4]3([H:11])[O:5][C@:6]1([H:12])[C@@:7]23[H:13]>>[C-:1]1=[O+:2][C@@:3]2([H:10])[C@@:4]3([H:11])[O:5][C@:6]1([H:12])[C@@:7]23[H:13].[H:8][H:9]"
C        0.42751949       0.45510571       1.22110757
O        0.41783026      -0.89952369       1.14140756
C        0.12587708      -1.28140770      -0.19309702
C       -1.14496608      -0.70028809      -0.76909506
O       -1.55519688       0.39965048       0.01869889
C       -0.20132722       0.93404118      -0.07269293
C        0.19693613      -0.12134285      -1.11744000
H        1.72016463       1.30608521       1.65333045
H        0.87292143       1.45443607       2.23931552
H        0.45329899      -2.27643286      -0.45560620
H       -1.89163109      -1.24621182      -1.32929699
H       -0.18402502       1.99471827      -0.30589014
H        0.76259829      -0.01882991      -2.03074165
