14
Frame=0 idx=010567 GeodesicLength=0.0 rxn_smarts="[C:1]([C@@:2]1([C:5](=[O:6])[N:7]([H:13])[H:14])[C:3]([H:11])([H:12])[O:4]1)([H:8])([H:9])[H:10]>>[C:1]([C@@:2]1([C:5]2=[N:7][O:6]2)[C:3]([H:11])([H:12])[O:4]1)([H:8])([H:9])[H:10].[H:13][H:14]"
C        1.22908732      -1.28808816       0.14661051
C        0.26205718      -0.15481583      -0.04739107
C        0.66326370       1.11880527      -0.65331862
O       -0.09798479       0.16925248      -1.37896896
C       -0.84724673      -0.11690739       0.95416657
O       -0.77101151      -0.54366117       2.12799073
N       -2.06401516       0.31738350       0.94114822
H        2.03554936      -1.20903545      -0.58099767
H        1.64609758      -1.26137687       1.15268211
H        0.72403354      -2.24529091       0.01264792
H        0.13732443       2.03067762      -0.38536091
H        1.69255047       1.23703810      -0.97710592
H       -2.11311141       0.77438182      -0.92776236
H       -2.49659396       1.17163705      -0.38434051
14
Frame=1 idx=010567 GeodesicLength=0.0748339460392198 rxn_smarts="[C:1]([C@@:2]1([C:5](=[O:6])[N:7]([H:13])[H:14])[C:3]([H:11])([H:12])[O:4]1)([H:8])([H:9])[H:10]>>[C:1]([C@@:2]1([C:5]2=[N:7][O:6]2)[C:3]([H:11])([H:12])[O:4]1)([H:8])([H:9])[H:10].[H:13][H:14]"
C        1.23263928      -1.28825812       0.14715212
C        0.26743650      -0.15355410      -0.04706258
C        0.66895975       1.11966449      -0.65342906
O       -0.09446046       0.17119958      -1.37829492
C       -0.84318527      -0.11360460       0.95249348
O       -0.78180506      -0.54742018       2.12446091
N       -2.05973571       0.32095170       0.92383793
H        2.04150799      -1.20861641      -0.57778567
H        1.64565896      -1.26423291       1.15508138
H        0.72693653      -2.24465034       0.00944420
H        0.14495877       2.03262234      -0.38516985
H        1.69824383       1.23644328      -0.97803621
H       -2.15743757       0.73767187      -0.91726352
H       -2.48971754       1.20178339      -0.37542820
14
Frame=2 idx=010567 GeodesicLength=0.14939358866123464 rxn_smarts="[C:1]([C@@:2]1([C:5](=[O:6])[N:7]([H:13])[H:14])[C:3]([H:11])([H:12])[O:4]1)([H:8])([H:9])[H:10]>>[C:1]([C@@:2]1([C:5]2=[N:7][O:6]2)[C:3]([H:11])([H:12])[O:4]1)([H:8])([H:9])[H:10].[H:13][H:14]"
C        1.23537961      -1.28838862       0.14724357
C        0.27286333      -0.15173336      -0.04660968
C        0.67558447       1.12098417      -0.65296001
O       -0.09059979       0.17437454      -1.37718036
C       -0.83890920      -0.10961933       0.95095423
O       -0.79225777      -0.55057768       2.12066434
N       -2.05411372       0.32744592       0.90796852
H        2.04659424      -1.20832418      -0.57497631
H        1.64450506      -1.26769568       1.15678837
H        0.72843393      -2.24355258       0.00553484
H        0.15397573       2.03506712      -0.38433113
H        1.70484602       1.23588697      -0.97835451
H       -2.20199376       0.70129974      -0.90456098
H       -2.48430815       1.22483297      -0.37018090
14
Frame=3 idx=010567 GeodesicLength=0.2241552992259948 rxn_smarts="[C:1]([C@@:2]1([C:5](=[O:6])[N:7]([H:13])[H:14])[C:3]([H:11])([H:12])[O:4]1)([H:8])([H:9])[H:10]>>[C:1]([C@@:2]1([C:5]2=[N:7][O:6]2)[C:3]([H:11])([H:12])[O:4]1)([H:8])([H:9])[H:10].[H:13][H:14]"
C        1.23775817      -1.28868483       0.14698781
C        0.27836634      -0.14952178      -0.04609565
C        0.68290288       1.12271736      -0.65203551
O       -0.08649557       0.17854856      -1.37598217
C       -0.83455483      -0.10509030       0.94956035
O       -0.80248976      -0.55323991       2.11685417
N       -2.04767744       0.33636940       0.89324369
H        2.05135384      -1.20837409      -0.57252080
H        1.64308132      -1.27183651       1.15816182
H        0.72917609      -2.24235446       0.00095643
H        0.16393491       2.03808926      -0.38286468
H        1.71221664       1.23535574      -0.97815946
H       -2.24742735       0.66503186      -0.88991874
H       -2.48014523       1.24298972      -0.36818725
14
Frame=4 idx=010567 GeodesicLength=0.2992209849945438 rxn_smarts="[C:1]([C@@:2]1([C:5](=[O:6])[N:7]([H:13])[H:14])[C:3]([H:11])([H:12])[O:4]1)([H:8])([H:9])[H:10]>>[C:1]([C@@:2]1([C:5]2=[N:7][O:6]2)[C:3]([H:11])([H:12])[O:4]1)([H:8])([H:9])[H:10].[H:13][H:14]"
C        1.23985141      -1.28922903       0.14640073
C        0.28399031      -0.14691789      -0.04552495
C        0.69090380       1.12493269      -0.65065934
O       -0.08213859       0.18370341      -1.37478097
C       -0.83008286      -0.09996722       0.94830129
O       -0.81252865      -0.55542031       2.11303064
N       -2.04048022       0.34766199       0.87949748
H        2.05588139      -1.20885558      -0.57037931
H        1.64145730      -1.27675523       1.15928916
H        0.72924186      -2.24118367      -0.00435629
H        0.17478739       2.04181671      -0.38077277
H        1.72035508       1.23492027      -0.97742151
H       -2.29391563       0.62830171      -0.87321154
H       -2.47732258       1.25699217      -0.36941263
14
Frame=5 idx=010567 GeodesicLength=0.37413223830358244 rxn_smarts="[C:1]([C@@:2]1([C:5](=[O:6])[N:7]([H:13])[H:14])[C:3]([H:11])([H:12])[O:4]1)([H:8])([H:9])[H:10]>>[C:1]([C@@:2]1([C:5]2=[N:7][O:6]2)[C:3]([H:11])([H:12])[O:4]1)([H:8])([H:9])[H:10].[H:13][H:14]"
C        1.24150996      -1.28953140       0.14558109
C        0.28960677      -0.14412182      -0.04504570
C        0.69950872       1.12715681      -0.64903470
O       -0.07741734       0.18940506      -1.37335858
C       -0.82569881      -0.09476868       0.94674324
O       -0.82261553      -0.55700615       2.10870570
N       -2.03277474       0.35979319       0.86605575
H        2.06004450      -1.20914026      -0.56831099
H        1.63924928      -1.28161177       1.15995762
H        0.72868256      -2.23950349      -0.00995438
H        0.18657297       2.04543241      -0.37833077
H        1.72910024       1.23433238      -0.97637173
H       -2.34116203       0.59188822      -0.85385795
H       -2.47460657       1.26767551      -0.37277862
14
Frame=6 idx=010567 GeodesicLength=0.44911873327639823 rxn_smarts="[C:1]([C@@:2]1([C:5](=[O:6])[N:7]([H:13])[H:14])[C:3]([H:11])([H:12])[O:4]1)([H:8])([H:9])[H:10]>>[C:1]([C@@:2]1([C:5]2=[N:7][O:6]2)[C:3]([H:11])([H:12])[O:4]1)([H:8])([H:9])[H:10].[H:13][H:14]"
C        1.24290947      -1.29003282       0.14448788
C        0.29534742      -0.14102986      -0.04461161
C        0.70875420       1.12976556      -0.64705320
O       -0.07229150       0.19596498      -1.37204341
C       -0.82126572      -0.08917854       0.94509892
O       -0.83254201      -0.55781084       2.10433772
N       -2.02453271       0.37339767       0.85300017
H        2.06402474      -1.20977371      -0.56644857
H        1.63673949      -1.28710198       1.16043683
H        0.72759000      -2.23781645      -0.01618020
H        0.19914762       2.04956077      -0.37538424
H        1.73855519       1.23383216      -0.97479327
H       -2.38940065       0.55515491      -0.83193473
H       -2.47303555       1.27506816      -0.37891229
14
Frame=7 idx=010567 GeodesicLength=0.5241877219519084 rxn_smarts="[C:1]([C@@:2]1([C:5](=[O:6])[N:7]([H:13])[H:14])[C:3]([H:11])([H:12])[O:4]1)([H:8])([H:9])[H:10]>>[C:1]([C@@:2]1([C:5]2=[N:7][O:6]2)[C:3]([H:11])([H:12])[O:4]1)([H:8])([H:9])[H:10].[H:13][H:14]"
C        1.24407601      -1.29061596       0.14315663
C        0.30120478      -0.13770736      -0.04428109
C        0.71864737       1.13261803      -0.64477808
O       -0.06669682       0.20320311      -1.37081170
C       -0.81686121      -0.08330870       0.94320136
O       -0.84244272      -0.55780974       2.09973545
N       -2.01591417       0.38799698       0.83999126
H        2.06789652      -1.21061417      -0.56468246
H        1.63387035      -1.29298861       1.16069686
H        0.72604232      -2.23601089      -0.02293527
H        0.21251275       2.05398880      -0.37203568
H        1.74874073       1.23334033      -0.97272937
H       -2.43869332       0.51841002      -0.80706151
H       -2.47238259       1.27949815      -0.38746641
14
Frame=8 idx=010567 GeodesicLength=0.5993503299474863 rxn_smarts="[C:1]([C@@:2]1([C:5](=[O:6])[N:7]([H:13])[H:14])[C:3]([H:11])([H:12])[O:4]1)([H:8])([H:9])[H:10]>>[C:1]([C@@:2]1([C:5]2=[N:7][O:6]2)[C:3]([H:11])([H:12])[O:4]1)([H:8])([H:9])[H:10].[H:13][H:14]"
C        1.24506279      -1.29135118       0.14161301
C        0.30720413      -0.13416988      -0.04408306
C        0.72917885       1.13576033      -0.64222640
O       -0.06058706       0.21111340      -1.36977143
C       -0.81248366      -0.07716278       0.94099839
O       -0.85230269      -0.55692947       2.09493553
N       -2.00698396       0.40343251       0.82680520
H        2.07173495      -1.21172927      -0.56295812
H        1.63066227      -1.29935232       1.16083013
H        0.72411870      -2.23419320      -0.03025581
H        0.22660880       2.05879608      -0.36831544
H        1.75965670       1.23291260      -0.97014637
H       -2.48912181       0.48178013      -0.77897489
H       -2.47274802       1.28109306      -0.39845073
14
Frame=9 idx=010567 GeodesicLength=0.6744572049369404 rxn_smarts="[C:1]([C@@:2]1([C:5](=[O:6])[N:7]([H:13])[H:14])[C:3]([H:11])([H:12])[O:4]1)([H:8])([H:9])[H:10]>>[C:1]([C@@:2]1([C:5]2=[N:7][O:6]2)[C:3]([H:11])([H:12])[O:4]1)([H:8])([H:9])[H:10].[H:13][H:14]"
C        1.24586899      -1.29195483       0.13991692
C        0.31328428      -0.13056802      -0.04412099
C        0.74027802       1.13886803      -0.63951375
O       -0.05381162       0.21937767      -1.36885128
C       -0.80831979      -0.07110541       0.93818281
O       -0.86233948      -0.55518703       2.08962361
N       -1.99791665       0.41894437       0.81305596
H        2.07558699      -1.21274313      -0.56111669
H        1.62693831      -1.30569451       1.16074123
H        0.72200202      -2.23205595      -0.03790013
H        0.24134878       2.06343995      -0.36439951
H        1.77121072       1.23237866      -0.96713141
H       -2.54063091       0.44614303      -0.74719258
H       -2.47349965       1.28015717      -0.41129417
14
Frame=10 idx=010567 GeodesicLength=0.7495895781012119 rxn_smarts="[C:1]([C@@:2]1([C:5](=[O:6])[N:7]([H:13])[H:14])[C:3]([H:11])([H:12])[O:4]1)([H:8])([H:9])[H:10]>>[C:1]([C@@:2]1([C:5]2=[N:7][O:6]2)[C:3]([H:11])([H:12])[O:4]1)([H:8])([H:9])[H:10].[H:13][H:14]"
C        1.24661567      -1.29271862       0.13807342
C        0.31951062      -0.12687645      -0.04439702
C        0.75194243       1.14218012      -0.63658079
O       -0.04636898       0.22813708      -1.36828880
C       -0.80430358      -0.06501203       0.93480269
O       -0.87233215      -0.55238201       2.08407486
N       -1.98876204       0.43468121       0.79860904
H        2.07957979      -1.21399024      -0.55916635
H        1.62288268      -1.31241580       1.16063164
H        0.71978160      -2.22998178      -0.04605832
H        0.25661496       2.06832450      -0.36021591
H        1.78344635       1.23192970      -0.96351622
H       -2.59341523       0.41152379      -0.71158960
H       -2.47519211       1.27660053      -0.42637864
14
Frame=11 idx=010567 GeodesicLength=0.8246960121949157 rxn_smarts="[C:1]([C@@:2]1([C:5](=[O:6])[N:7]([H:13])[H:14])[C:3]([H:11])([H:12])[O:4]1)([H:8])([H:9])[H:10]>>[C:1]([C@@:2]1([C:5]2=[N:7][O:6]2)[C:3]([H:11])([H:12])[O:4]1)([H:8])([H:9])[H:10].[H:13][H:14]"
C        1.24722514      -1.29350657       0.13605265
C        0.32588545      -0.12310044      -0.04495960
C        0.76424917       1.14560041      -0.63342132
O       -0.03807217       0.23735508      -1.36803862
C       -0.80050897      -0.05895399       0.93069780
O       -0.88239187      -0.54837689       2.07814204
N       -1.97955221       0.45039999       0.78324492
H        2.08369239      -1.21529924      -0.55705327
H        1.61827913      -1.31938616       1.16039384
H        0.71740184      -2.22776011      -0.05476192
H        0.27246925       2.07323575      -0.35580635
H        1.79645117       1.23151295      -0.95923158
H       -2.64740974       0.37818049      -0.67160127
H       -2.47771858       1.27009872      -0.44365734
14
Frame=12 idx=010567 GeodesicLength=0.8998335907870796 rxn_smarts="[C:1]([C@@:2]1([C:5](=[O:6])[N:7]([H:13])[H:14])[C:3]([H:11])([H:12])[O:4]1)([H:8])([H:9])[H:10]>>[C:1]([C@@:2]1([C:5]2=[N:7][O:6]2)[C:3]([H:11])([H:12])[O:4]1)([H:8])([H:9])[H:10].[H:13][H:14]"
C        1.24786647      -1.29441470       0.13392343
C        0.33241259      -0.11934791      -0.04586714
C        0.77709089       1.14913565      -0.63007259
O       -0.02890458       0.24689718      -1.36827288
C       -0.79701385      -0.05312874       0.92573378
O       -0.89246782      -0.54318778       2.07186732
N       -1.97043680       0.46585331       0.76671227
H        2.08812759      -1.21671045      -0.55465998
H        1.61326428      -1.32662383       1.16019077
H        0.71516236      -2.22561298      -0.06399481
H        0.28869424       2.07822105      -0.35121689
H        1.81014119       1.23121868      -0.95423261
H       -2.70285744       0.34695162      -0.62692211
H       -2.48107911       1.26074887      -0.46318856
14
Frame=13 idx=010567 GeodesicLength=0.9749242441750924 rxn_smarts="[C:1]([C@@:2]1([C:5](=[O:6])[N:7]([H:13])[H:14])[C:3]([H:11])([H:12])[O:4]1)([H:8])([H:9])[H:10]>>[C:1]([C@@:2]1([C:5]2=[N:7][O:6]2)[C:3]([H:11])([H:12])[O:4]1)([H:8])([H:9])[H:10].[H:13][H:14]"
C        1.24862570      -1.29528270       0.13171068
C        0.33907572      -0.11573236      -0.04719033
C        0.79039689       1.15255616      -0.62654893
O       -0.01872996       0.25653517      -1.36894760
C       -0.79396631      -0.04780036       0.91964409
O       -0.90269455      -0.53682840       2.06497273
N       -1.96154246       0.48064529       0.74872674
H        2.09303113      -1.21799532      -0.55184454
H        1.60779178      -1.33385470       1.15995180
H        0.71331027      -2.22335612      -0.07368098
H        0.30512642       2.08289915      -0.34652114
H        1.82445806       1.23092001      -0.94845342
H       -2.75982578       0.31891709      -0.57698255
H       -2.48505691       1.24837709      -0.48483655
14
Frame=14 idx=010567 GeodesicLength=1.0500135816257332 rxn_smarts="[C:1]([C@@:2]1([C:5](=[O:6])[N:7]([H:13])[H:14])[C:3]([H:11])([H:12])[O:4]1)([H:8])([H:9])[H:10]>>[C:1]([C@@:2]1([C:5]2=[N:7][O:6]2)[C:3]([H:11])([H:12])[O:4]1)([H:8])([H:9])[H:10].[H:13][H:14]"
C        1.24952535      -1.29628251       0.12941965
C        0.34590760      -0.11224869      -0.04895962
C        0.80419198       1.15606980      -0.62282382
O       -0.00747239       0.26637918      -1.37026920
C       -0.79136062      -0.04300481       0.91239758
O       -0.91293647      -0.52918891       2.05766932
N       -1.95288869       0.49472276       0.72911653
H        2.09844857      -1.21927782      -0.54857894
H        1.60185270      -1.34133827       1.15982920
H        0.71187056      -2.22125842      -0.08397384
H        0.32171725       2.08756240      -0.34169157
H        1.83945243       1.23086433      -0.94175866
H       -2.81834411       0.29462891      -0.52129882
H       -2.48996418       1.23237205      -0.50907781
14
Frame=15 idx=010567 GeodesicLength=1.125098851602407 rxn_smarts="[C:1]([C@@:2]1([C:5](=[O:6])[N:7]([H:13])[H:14])[C:3]([H:11])([H:12])[O:4]1)([H:8])([H:9])[H:10]>>[C:1]([C@@:2]1([C:5]2=[N:7][O:6]2)[C:3]([H:11])([H:12])[O:4]1)([H:8])([H:9])[H:10].[H:13][H:14]"
C        1.25057966      -1.29730181       0.12698331
C        0.35292802      -0.10891682      -0.05122984
C        0.81851739       1.15954384      -0.61879967
O        0.00508537       0.27638868      -1.37216446
C       -0.78930755      -0.03882442       0.90375897
O       -0.92329881      -0.52003764       2.04972298
N       -1.94456307       0.50790263       0.70759698
H        2.10447695      -1.22042243      -0.54479212
H        1.59529715      -1.34898917       1.15966469
H        0.71093804      -2.21910547      -0.09500950
H        0.33840421       2.09194972      -0.33666457
H        1.85520329       1.23094460      -0.93391929
H       -2.87831940       0.27511962      -0.45900174
H       -2.49594126       1.21174867      -0.53614575
14
Frame=16 idx=010567 GeodesicLength=1.2001984888874853 rxn_smarts="[C:1]([C@@:2]1([C:5](=[O:6])[N:7]([H:13])[H:14])[C:3]([H:11])([H:12])[O:4]1)([H:8])([H:9])[H:10]>>[C:1]([C@@:2]1([C:5]2=[N:7][O:6]2)[C:3]([H:11])([H:12])[O:4]1)([H:8])([H:9])[H:10].[H:13][H:14]"
C        1.25196173      -1.29839772       0.12446893
C        0.36014098      -0.10585399      -0.05406166
C        0.83322970       1.16299094      -0.61446688
O        0.01898257       0.28645410      -1.37476246
C       -0.78788673      -0.03557537       0.89350714
O       -0.93375590      -0.50955108       2.04101672
N       -1.93663800       0.51990212       0.68385015
H        2.11131015      -1.22136432      -0.54031009
H        1.58823490      -1.35682754       1.15958676
H        0.71086381      -2.21707136      -0.10679464
H        0.35490182       2.09605969      -0.33147005
H        1.87157229       1.23131028      -0.92478796
H       -2.93979690       0.26231181      -0.38931978
H       -2.50312043       1.18561243      -0.56645616
