11
Frame=0 idx=000534 GeodesicLength=0.0 rxn_smarts="[C:1]([C:2]([C:3]([H:9])([H:10])[H:11])([H:7])[H:8])([H:4])([H:5])[H:6]>>[C:1]([C:2](=[C:3]([H:10])[H:11])[H:8])([H:4])([H:5])[H:7].[H:6][H:9]"
C       -0.96930258       0.02831467       0.70915500
C       -0.04929009       0.64018216      -0.24501579
C        1.17125077       0.01487937      -0.53823157
H       -1.97299311       0.42740241       0.80829751
H       -0.54687859      -0.43184448       1.59545129
H       -0.62325165      -1.54933065      -0.21213652
H       -0.03922217       1.33051870       0.70517657
H       -0.52573346       1.19987056      -1.04518451
H        0.08606525      -1.50561262      -0.64036274
H        1.71115204      -0.49913475       0.24828695
H        1.75820357       0.34475466      -1.38543617
11
Frame=1 idx=000534 GeodesicLength=0.08627087506510228 rxn_smarts="[C:1]([C:2]([C:3]([H:9])([H:10])[H:11])([H:7])[H:8])([H:4])([H:5])[H:6]>>[C:1]([C:2](=[C:3]([H:10])[H:11])[H:8])([H:4])([H:5])[H:7].[H:6][H:9]"
C       -0.96954203       0.02971109       0.70640340
C       -0.04157889       0.64728769      -0.24086640
C        1.16933396       0.00513269      -0.54280547
H       -1.97819853       0.41952362       0.79153068
H       -0.55238672      -0.43217101       1.59478284
H       -0.63330568      -1.54937572      -0.20803760
H       -0.05011501       1.32814423       0.73230703
H       -0.51303956       1.21534720      -1.03830608
H        0.09663964      -1.50715530      -0.63817027
H        1.73095730      -0.47549738       0.24984430
H        1.74123552       0.31905288      -1.40668244
11
Frame=2 idx=000534 GeodesicLength=0.17227384822974157 rxn_smarts="[C:1]([C:2]([C:3]([H:9])([H:10])[H:11])([H:7])[H:8])([H:4])([H:5])[H:6]>>[C:1]([C:2](=[C:3]([H:10])[H:11])[H:8])([H:4])([H:5])[H:7].[H:6][H:9]"
C       -0.96966039       0.03116557       0.70372644
C       -0.03348350       0.65429957      -0.23639133
C        1.16748158      -0.00476603      -0.54698162
H       -1.98295429       0.41183802       0.77460276
H       -0.55789552      -0.43254808       1.59415426
H       -0.64401919      -1.54937761      -0.20385404
H       -0.06186287       1.32591362       0.75917050
H       -0.49984562       1.23028593      -1.03137735
H        0.10718677      -1.50890286      -0.63613021
H        1.75114718      -0.45137012       0.24994138
H        1.72390584       0.29346200      -1.42686079
11
Frame=3 idx=000534 GeodesicLength=0.2581575174891355 rxn_smarts="[C:1]([C:2]([C:3]([H:9])([H:10])[H:11])([H:7])[H:8])([H:4])([H:5])[H:6]>>[C:1]([C:2](=[C:3]([H:10])[H:11])[H:8])([H:4])([H:5])[H:7].[H:6][H:9]"
C       -0.96965944       0.03267324       0.70113138
C       -0.02500729       0.66118670      -0.23159077
C        1.16570978      -0.01481317      -0.55073821
H       -1.98724831       0.40435865       0.75753800
H       -0.56340251      -0.43296615       1.59357485
H       -0.65546389      -1.54932486      -0.19958922
H       -0.07449530       1.32384067       0.78573657
H       -0.48615625       1.24467069      -1.02439895
H        0.11777329      -1.51088047      -0.63424598
H        1.77169998      -0.42680289       0.24853060
H        1.70624995       0.26805758      -1.44594826
11
Frame=4 idx=000534 GeodesicLength=0.3440361451860061 rxn_smarts="[C:1]([C:2]([C:3]([H:9])([H:10])[H:11])([H:7])[H:8])([H:4])([H:5])[H:6]>>[C:1]([C:2](=[C:3]([H:10])[H:11])[H:8])([H:4])([H:5])[H:7].[H:6][H:9]"
C       -0.96954278       0.03422807       0.69862078
C       -0.01615083       0.66792232      -0.22646184
C        1.16404440      -0.02499582      -0.55404548
H       -1.99107480       0.39709584       0.74034768
H       -0.56891225      -0.43341632       1.59305260
H       -0.66769664      -1.54920497      -0.19524461
H       -0.08804424       1.32193355       0.81199253
H       -0.47196922       1.25850015      -1.01736553
H        0.12847467      -1.51310636      -0.63251600
H        1.79259484      -0.40183809       0.24555589
H        1.68827686       0.24288163      -1.46393603
11
Frame=5 idx=000534 GeodesicLength=0.4299682224454187 rxn_smarts="[C:1]([C:2]([C:3]([H:9])([H:10])[H:11])([H:7])[H:8])([H:4])([H:5])[H:6]>>[C:1]([C:2](=[C:3]([H:10])[H:11])[H:8])([H:4])([H:5])[H:7].[H:6][H:9]"
C       -0.96931340       0.03582337       0.69620194
C       -0.00692381       0.67448055      -0.22100084
C        1.16250322      -0.03530222      -0.55688099
H       -1.99442824       0.39006471       0.72306997
H       -0.57442120      -0.43389368       1.59259551
H       -0.68079944      -1.54899251      -0.19084532
H       -0.10253442       1.32019331       0.83789097
H       -0.45729481       1.27175972      -1.01027105
H        0.13937674      -1.51561132      -0.63092166
H        1.81380338      -0.37652294       0.24097094
H        1.67003197       0.21800102      -1.48080947
11
Frame=6 idx=000534 GeodesicLength=0.5160193211017665 rxn_smarts="[C:1]([C:2]([C:3]([H:9])([H:10])[H:11])([H:7])[H:8])([H:4])([H:5])[H:6]>>[C:1]([C:2](=[C:3]([H:10])[H:11])[H:8])([H:4])([H:5])[H:7].[H:6][H:9]"
C       -0.96897826       0.03745280       0.69387440
C        0.00266960       0.68083641      -0.21520857
C        1.16111772      -0.04571227      -0.55921428
H       -1.99731157       0.38327484       0.70571299
H       -0.57994040      -0.43439558       1.59220577
H       -0.69482890      -1.54866521      -0.18640624
H       -0.11799153       1.31861433       0.86343275
H       -0.44212809       1.28446657      -1.00310142
H        0.15057563      -1.51841729      -0.62943119
H        1.83530080      -0.35088323       0.23470539
H        1.65151501       0.19342863      -1.49656961
11
Frame=7 idx=000534 GeodesicLength=0.602198092549748 rxn_smarts="[C:1]([C:2]([C:3]([H:9])([H:10])[H:11])([H:7])[H:8])([H:4])([H:5])[H:6]>>[C:1]([C:2](=[C:3]([H:10])[H:11])[H:8])([H:4])([H:5])[H:7].[H:6][H:9]"
C       -0.96854421       0.03910808       0.69164245
C        0.01261081       0.68696523      -0.20908456
C        1.15990868      -0.05620451      -0.56102305
H       -1.99972293       0.37674405       0.68832184
H       -0.58547048      -0.43492584       1.59188378
H       -0.70987488      -1.54818499      -0.18197980
H       -0.13443023       1.31719069       0.88857289
H       -0.42648420       1.29661883      -0.99584083
H        0.16218403      -1.52156240      -0.62798855
H        1.85705680      -0.32495944       0.22671448
H        1.63276661       0.16921030      -1.51121866
11
Frame=8 idx=000534 GeodesicLength=0.6884335117207708 rxn_smarts="[C:1]([C:2]([C:3]([H:9])([H:10])[H:11])([H:7])[H:8])([H:4])([H:5])[H:6]>>[C:1]([C:2](=[C:3]([H:10])[H:11])[H:8])([H:4])([H:5])[H:7].[H:6][H:9]"
C       -0.96802311       0.04078171       0.68950501
C        0.02288203       0.69285188      -0.20261795
C        1.15891036      -0.06674662      -0.56227913
H       -2.00166932       0.37048724       0.67092090
H       -0.59102752      -0.43549226       1.59162847
H       -0.72600637      -1.54750289      -0.17763773
H       -0.15185732       1.31590833       0.91327787
H       -0.41037101       1.30823245      -0.98846132
H        0.17433550      -1.52508565      -0.62649738
H        1.87904619      -0.29879457       0.21692797
H        1.61378056       0.14536039      -1.52476671
11
Frame=9 idx=000534 GeodesicLength=0.7751215545248158 rxn_smarts="[C:1]([C:2]([C:3]([H:9])([H:10])[H:11])([H:7])[H:8])([H:4])([H:5])[H:6]>>[C:1]([C:2](=[C:3]([H:10])[H:11])[H:8])([H:4])([H:5])[H:7].[H:6][H:9]"
C       -0.96740325       0.04246406       0.68746152
C        0.03351568       0.69847038      -0.19581681
C        1.15818712      -0.07729284      -0.56297190
H       -2.00318115       0.36447498       0.65347750
H       -0.59660987      -0.43612257       1.59143145
H       -0.74335357      -1.54651934      -0.17330723
H       -0.17020407       1.31466464       0.93760827
H       -0.39376147       1.31933090      -0.98095796
H        0.18721379      -1.52898518      -0.62499770
H        1.90107739      -0.27227209       0.20537126
H        1.59451941       0.12178707      -1.53729840
11
Frame=10 idx=000534 GeodesicLength=0.8617988100156211 rxn_smarts="[C:1]([C:2]([C:3]([H:9])([H:10])[H:11])([H:7])[H:8])([H:4])([H:5])[H:6]>>[C:1]([C:2](=[C:3]([H:10])[H:11])[H:8])([H:4])([H:5])[H:7].[H:6][H:9]"
C       -0.96671371       0.04414690       0.68549766
C        0.04444322       0.70381299      -0.18868831
C        1.15772606      -0.08782759      -0.56310815
H       -2.00423524       0.35878202       0.63609460
H       -0.60223251      -0.43682749       1.59126875
H       -0.76195940      -1.54523038      -0.16920981
H       -0.18952759       1.31350087       0.96148082
H       -0.37670585       1.32994281      -0.97329426
H        0.20093680      -1.53335038      -0.62320975
H        1.92324466      -0.24555603       0.19194068
H        1.57502356       0.09860628      -1.54877223
11
Frame=11 idx=000534 GeodesicLength=0.9485856294732202 rxn_smarts="[C:1]([C:2]([C:3]([H:9])([H:10])[H:11])([H:7])[H:8])([H:4])([H:5])[H:6]>>[C:1]([C:2](=[C:3]([H:10])[H:11])[H:8])([H:4])([H:5])[H:7].[H:6][H:9]"
C       -0.96595892       0.04582037       0.68360299
C        0.05565521       0.70886158      -0.18124834
C        1.15756583      -0.09831800      -0.56268220
H       -2.00484238       0.35343289       0.61879455
H       -0.60789909      -0.43763386       1.59111600
H       -0.78193033      -1.54355901      -0.16539528
H       -0.20981704       1.31236888       0.98492552
H       -0.35921149       1.34009303      -0.96546229
H        0.21569352      -1.53822195      -0.62101993
H        1.94546163      -0.21864983       0.17657297
H        1.55528307       0.07580592      -1.55920399
11
Frame=12 idx=000534 GeodesicLength=1.0354228436589996 rxn_smarts="[C:1]([C:2]([C:3]([H:9])([H:10])[H:11])([H:7])[H:8])([H:4])([H:5])[H:6]>>[C:1]([C:2](=[C:3]([H:10])[H:11])[H:8])([H:4])([H:5])[H:7].[H:6][H:9]"
C       -0.96514963       0.04747441       0.68175798
C        0.06713690       0.71360576      -0.17350328
C        1.15772607      -0.10873292      -0.56171234
H       -2.00501233       0.34846436       0.60159868
H       -0.61362740      -0.43857429       1.59094187
H       -0.80334312      -1.54143941      -0.16195405
H       -0.23105018       1.31121427       1.00795812
H       -0.34128422       1.34982387      -0.95742785
H        0.23167281      -1.54364409      -0.61824829
H        1.96766295      -0.19156466       0.15922697
H        1.53526816       0.05337269      -1.56863781
11
Frame=13 idx=000534 GeodesicLength=1.1222606555265127 rxn_smarts="[C:1]([C:2]([C:3]([H:9])([H:10])[H:11])([H:7])[H:8])([H:4])([H:5])[H:6]>>[C:1]([C:2](=[C:3]([H:10])[H:11])[H:8])([H:4])([H:5])[H:7].[H:6][H:9]"
C       -0.96429162       0.04910100       0.67994895
C        0.07886408       0.71804257      -0.16546443
C        1.15824021      -0.11902587      -0.56021165
H       -2.00476100       0.34390994       0.58455075
H       -0.61942115      -0.43969135       1.59070966
H       -0.82629966      -1.53877413      -0.15900674
H       -0.25319599       1.30998425       1.03059005
H       -0.32294631       1.35916520      -0.94917236
H        0.24908739      -1.54967821      -0.61469299
H        1.98976288      -0.16432507       0.13986192
H        1.51496117       0.03129167      -1.57711317
11
Frame=14 idx=000534 GeodesicLength=1.209033587384831 rxn_smarts="[C:1]([C:2]([C:3]([H:9])([H:10])[H:11])([H:7])[H:8])([H:4])([H:5])[H:6]>>[C:1]([C:2](=[C:3]([H:10])[H:11])[H:8])([H:4])([H:5])[H:7].[H:6][H:9]"
C       -0.96339508       0.05069112       0.67814749
C        0.09082569       0.72217145      -0.15713364
C        1.15913632      -0.12915427      -0.55820509
H       -2.00409948       0.33981368       0.56766034
H       -0.62530305      -0.44102978       1.59037311
H       -0.85087290      -1.53547670      -0.15665958
H       -0.27623035       1.30860681       1.05285553
H       -0.30419762       1.36817076      -0.94065166
H        0.26816452      -1.55636775      -0.61012553
H        2.01167693      -0.13694150       0.11840920
H        1.49429502       0.00951618      -1.58467017
11
Frame=15 idx=000534 GeodesicLength=1.2956544157691885 rxn_smarts="[C:1]([C:2]([C:3]([H:9])([H:10])[H:11])([H:7])[H:8])([H:4])([H:5])[H:6]>>[C:1]([C:2](=[C:3]([H:10])[H:11])[H:8])([H:4])([H:5])[H:7].[H:6][H:9]"
C       -0.96246570       0.05223784       0.67633150
C        0.10300378       0.72599916      -0.14851421
C        1.16044920      -0.13906427      -0.55571437
H       -2.00304294       0.33621926       0.55095767
H       -0.63128574      -0.44264449       1.58988127
H       -0.87715731      -1.53143695      -0.15505022
H       -0.30011715       1.30700648       1.07478101
H       -0.28505344       1.37688346      -0.93183402
H        0.28914312      -1.56377461      -0.60428912
H        2.03330231      -0.10943029       0.09479666
H        1.47322387      -0.01199559      -1.59134617
11
Frame=16 idx=000534 GeodesicLength=1.3820571491488858 rxn_smarts="[C:1]([C:2]([C:3]([H:9])([H:10])[H:11])([H:7])[H:8])([H:4])([H:5])[H:6]>>[C:1]([C:2](=[C:3]([H:10])[H:11])[H:8])([H:4])([H:5])[H:7].[H:6][H:9]"
C       -0.96151200       0.05373257       0.67447104
C        0.11538822       0.72953779      -0.13960638
C        1.16221464      -0.14870440      -0.55276351
H       -2.00160782       0.33317853       0.53445720
H       -0.63739247      -0.44460114       1.58917543
H       -0.90524125      -1.52654895      -0.15430178
H       -0.32481983       1.30509444       1.09641297
H       -0.26551643       1.38536047      -0.92268487
H        0.31227668      -1.57194297      -0.59692059
H        2.05453366      -0.08179169       0.06892760
H        1.45167662      -0.03331464      -1.59716711
