14
Frame=0 idx=002238 GeodesicLength=0.0 rxn_smarts="[C:1]([C:2]#[C:3][C@@:4]([C:5]([H:11])([H:12])[H:13])([O:6][H:14])[H:10])([H:7])([H:8])[H:9]>>[C+:1]([C:2](=[C-:3][C@@:4]([C:5]([H:11])([H:12])[H:13])([O:6][H:14])[H:10])[H:8])([H:7])[H:9]"
C        2.74290196      -0.01957400       0.02451990
C        1.41885834      -0.21374881      -0.28948075
C        0.27211093      -0.23339033      -0.87210748
C       -1.00313630       0.32721272      -0.38129931
C       -1.99054162      -0.77632968      -0.03089409
O       -0.90002550       1.16259821       0.77777837
H        3.22951380      -0.65392956       0.75398483
H        1.38699208      -0.09788830       0.87806687
H        3.31282912       0.80703114      -0.38878802
H       -1.42159170       0.91576289      -1.21008907
H       -1.58842103      -1.38887829       0.77770011
H       -2.93033690      -0.33656488       0.30264262
H       -2.17044958      -1.41425659      -0.89469111
H       -0.35870363       1.92195553       0.55265715
14
Frame=1 idx=002238 GeodesicLength=0.059170626663371695 rxn_smarts="[C:1]([C:2]#[C:3][C@@:4]([C:5]([H:11])([H:12])[H:13])([O:6][H:14])[H:10])([H:7])([H:8])[H:9]>>[C+:1]([C:2](=[C-:3][C@@:4]([C:5]([H:11])([H:12])[H:13])([O:6][H:14])[H:10])[H:8])([H:7])[H:9]"
C        2.74054372      -0.01054272       0.03188373
C        1.41790012      -0.23931827      -0.26752107
C        0.27388843      -0.23684227      -0.85666402
C       -1.00404873       0.32754382      -0.37903333
C       -1.99736788      -0.77400888      -0.03824132
O       -0.91025034       1.16337483       0.77991450
H        3.25873462      -0.64700303       0.73753603
H        1.41429505      -0.09295246       0.91018786
H        3.29219647       0.80635493      -0.42299346
H       -1.41257108       0.91605341      -1.21284787
H       -1.60445905      -1.38751448       0.77410703
H       -2.93906945      -0.33147313       0.28609582
H       -2.17043829      -1.41141823      -0.90382316
H       -0.35935359       1.91774647       0.56139926
14
Frame=2 idx=002238 GeodesicLength=0.11838827317101651 rxn_smarts="[C:1]([C:2]#[C:3][C@@:4]([C:5]([H:11])([H:12])[H:13])([O:6][H:14])[H:10])([H:7])([H:8])[H:9]>>[C+:1]([C:2](=[C-:3][C@@:4]([C:5]([H:11])([H:12])[H:13])([O:6][H:14])[H:10])[H:8])([H:7])[H:9]"
C        2.73876952      -0.00370421       0.03819326
C        1.41666473      -0.26092192      -0.24387919
C        0.27599386      -0.23816673      -0.84007194
C       -1.00545466       0.32840693      -0.37633082
C       -2.00343988      -0.77241096      -0.04594184
O       -0.92270147       1.16465478       0.78256290
H        3.28581070      -0.64254002       0.71975092
H        1.44348084      -0.08200566       0.94256298
H        3.27403343       0.79960854      -0.45828249
H       -1.40423198       0.91645133      -1.21523240
H       -1.61951998      -1.38648423       0.77022627
H       -2.94768312      -0.32829785       0.26867200
H       -2.16836590      -1.40940956      -0.91342102
H       -0.36335608       1.91481956       0.57119137
14
Frame=3 idx=002238 GeodesicLength=0.17770978361017326 rxn_smarts="[C:1]([C:2]#[C:3][C@@:4]([C:5]([H:11])([H:12])[H:13])([O:6][H:14])[H:10])([H:7])([H:8])[H:9]>>[C+:1]([C:2](=[C-:3][C@@:4]([C:5]([H:11])([H:12])[H:13])([O:6][H:14])[H:10])[H:8])([H:7])[H:9]"
C        2.73767856       0.00108122       0.04326871
C        1.41515477      -0.27925706      -0.21868708
C        0.27833068      -0.23788292      -0.82240216
C       -1.00725312       0.32966362      -0.37322737
C       -2.00894031      -0.77139329      -0.05396339
O       -0.93698325       1.16626152       0.78565018
H        3.31100429      -0.64019756       0.70081985
H        1.47475052      -0.06572043       0.97477173
H        3.25748412       0.78804789      -0.49398443
H       -1.39633212       0.91694775      -1.21725739
H       -1.63392783      -1.38577103       0.76606752
H       -2.95620496      -0.32662261       0.25044198
H       -2.16464453      -1.40802962      -0.92341724
H       -0.37011682       1.91287253       0.58191909
14
Frame=4 idx=002238 GeodesicLength=0.23715928168791595 rxn_smarts="[C:1]([C:2]#[C:3][C@@:4]([C:5]([H:11])([H:12])[H:13])([O:6][H:14])[H:10])([H:7])([H:8])[H:9]>>[C+:1]([C:2](=[C-:3][C@@:4]([C:5]([H:11])([H:12])[H:13])([O:6][H:14])[H:10])[H:8])([H:7])[H:9]"
C        2.73730461       0.00391329       0.04704916
C        1.41337977      -0.29468937      -0.19201867
C        0.28082735      -0.23629364      -0.80369222
C       -1.00938677       0.33123382      -0.36973536
C       -2.01396915      -0.77087274      -0.06229164
O       -0.95286272       1.16806741       0.78914501
H        3.33441478      -0.63982267       0.68098598
H        1.50827962      -0.04448019       1.00641305
H        3.24203679       0.77241566      -0.52977215
H       -1.38872646       0.91755617      -1.21890983
H       -1.64786868      -1.38538232       0.76161854
H       -2.96463549      -0.32620738       0.23144732
H       -2.15951143      -1.40714221      -0.93377907
H       -0.37928223       1.91170415       0.59353987
14
Frame=5 idx=002238 GeodesicLength=0.29674551867026444 rxn_smarts="[C:1]([C:2]#[C:3][C@@:4]([C:5]([H:11])([H:12])[H:13])([O:6][H:14])[H:10])([H:7])([H:8])[H:9]>>[C+:1]([C:2](=[C-:3][C@@:4]([C:5]([H:11])([H:12])[H:13])([O:6][H:14])[H:10])[H:8])([H:7])[H:9]"
C        2.73760997       0.00491271       0.04956320
C        1.41135949      -0.30742108      -0.16392641
C        0.28343332      -0.23359786      -0.78395667
C       -1.01181121       0.33306696      -0.36585733
C       -2.01857813      -0.77079011      -0.07091907
O       -0.97018012       1.16997585       0.79302752
H        3.35606980      -0.64133288       0.66049638
H        1.54419286      -0.01861148       1.03710445
H        3.22732924       0.75320263      -0.56549700
H       -1.38130758       0.91829655      -1.22016664
H       -1.66145358      -1.38532695       0.75686027
H       -2.97295357      -0.32689177       0.21171583
H       -2.15311117      -1.40664125      -0.94448404
H       -0.39059932       1.91115865       0.60603951
14
Frame=6 idx=002238 GeodesicLength=0.35645826913660844 rxn_smarts="[C:1]([C:2]#[C:3][C@@:4]([C:5]([H:11])([H:12])[H:13])([O:6][H:14])[H:10])([H:7])([H:8])[H:9]>>[C+:1]([C:2](=[C-:3][C@@:4]([C:5]([H:11])([H:12])[H:13])([O:6][H:14])[H:10])[H:8])([H:7])[H:9]"
C        2.73852876       0.00422430       0.05092982
C        1.40912300      -0.31747759      -0.13447224
C        0.28610136      -0.22987873      -0.76322728
C       -1.01450831       0.33514794      -0.36159480
C       -2.02277159      -0.77111550      -0.07983520
O       -0.98884586       1.17192454       0.79728864
H        3.37591980      -0.64474774       0.63959410
H        1.58258434       0.01161973       1.06645062
H        3.21315615       0.73063960      -0.60110191
H       -1.37403662       0.91920689      -1.22099970
H       -1.67470334      -1.38562462       0.75177348
H       -2.98111683      -0.32860409       0.19128589
H       -2.14550504      -1.40645604      -0.95551322
H       -0.40392582       1.91114131       0.61942180
14
Frame=7 idx=002238 GeodesicLength=0.4162692658005902 rxn_smarts="[C:1]([C:2]#[C:3][C@@:4]([C:5]([H:11])([H:12])[H:13])([O:6][H:14])[H:10])([H:7])([H:8])[H:9]>>[C+:1]([C:2](=[C-:3][C@@:4]([C:5]([H:11])([H:12])[H:13])([O:6][H:14])[H:10])[H:8])([H:7])[H:9]"
C        2.73994282       0.00203107       0.05130433
C        1.40671501      -0.32487420      -0.10375575
C        0.28879175      -0.22522372      -0.74154171
C       -1.01744942       0.33746126      -0.35696184
C       -2.02653796      -0.77181036      -0.08901439
O       -1.00875180       1.17387439       0.80188259
H        3.39391336      -0.65007364       0.61846027
H        1.62348901       0.04579131       1.09407286
H        3.19927189       0.70501406      -0.63644871
H       -1.36687434       0.92030268      -1.22139961
H       -1.68761292      -1.38626394       0.74636222
H       -2.98906525      -0.33126227       0.17020738
H       -2.13674606      -1.40652482      -0.96681501
H       -0.41908609       1.91155818       0.63364738
14
Frame=8 idx=002238 GeodesicLength=0.4761416872596994 rxn_smarts="[C:1]([C:2]#[C:3][C@@:4]([C:5]([H:11])([H:12])[H:13])([O:6][H:14])[H:10])([H:7])([H:8])[H:9]>>[C+:1]([C:2](=[C-:3][C@@:4]([C:5]([H:11])([H:12])[H:13])([O:6][H:14])[H:10])[H:8])([H:7])[H:9]"
C        2.74173793      -0.00145874       0.05087884
C        1.40419073      -0.32957803      -0.07190444
C        0.29145759      -0.21968912      -0.71895460
C       -1.02061825       0.34000222      -0.35197834
C       -2.02985579      -0.77284309      -0.09842455
O       -1.02981029       1.17580505       0.80675876
H        3.41000014      -0.65732228       0.59725811
H        1.66690873       0.08342946       1.11961802
H        3.18549141       0.67655260      -0.67140376
H       -1.35981060       0.92160165      -1.22136594
H       -1.70015337      -1.38722987       0.74064251
H       -2.99673663      -0.33480575       0.14853621
H       -2.12686789      -1.40680084      -0.97833174
H       -0.43593370       1.91233674       0.64867092
14
Frame=9 idx=002238 GeodesicLength=0.5360020523619146 rxn_smarts="[C:1]([C:2]#[C:3][C@@:4]([C:5]([H:11])([H:12])[H:13])([O:6][H:14])[H:10])([H:7])([H:8])[H:9]>>[C+:1]([C:2](=[C-:3][C@@:4]([C:5]([H:11])([H:12])[H:13])([O:6][H:14])[H:10])[H:8])([H:7])[H:9]"
C        2.74357721      -0.00580684       0.04990359
C        1.40167634      -0.33204978      -0.03925413
C        0.29408392      -0.21382165      -0.69560479
C       -1.02384212       0.34263436      -0.34679919
C       -2.03277718      -0.77405562      -0.10790530
O       -1.05155001       1.17779021       0.81157426
H        3.42431181      -0.66614647       0.57567867
H        1.71264075       0.12273604       1.14295082
H        3.17088488       0.64685654      -0.70496737
H       -1.35258493       0.92289562      -1.22112868
H       -1.71247347      -1.38828512       0.73486665
H       -3.00404590      -0.33879403       0.12641541
H       -2.11615314      -1.40726557      -0.98975110
H       -0.45374816       1.91331231       0.66402117
14
Frame=10 idx=002238 GeodesicLength=0.5958393565099447 rxn_smarts="[C:1]([C:2]#[C:3][C@@:4]([C:5]([H:11])([H:12])[H:13])([O:6][H:14])[H:10])([H:7])([H:8])[H:9]>>[C+:1]([C:2](=[C-:3][C@@:4]([C:5]([H:11])([H:12])[H:13])([O:6][H:14])[H:10])[H:8])([H:7])[H:9]"
C        2.74550149      -0.01105045       0.04850920
C        1.39917204      -0.33190007      -0.00587147
C        0.29661697      -0.20721862      -0.67156325
C       -1.02723073       0.34548166      -0.34138317
C       -2.03518778      -0.77552423      -0.11748536
O       -1.07418421       1.17982461       0.81643135
H        3.43659597      -0.67685588       0.55412826
H        1.76072836       0.16403561       1.16376326
H        3.15591404       0.61525482      -0.73751387
H       -1.34544343       0.92435060      -1.22056593
H       -1.72431108      -1.38954649       0.72891967
H       -3.01092910      -0.34350380       0.10389838
H       -2.10441099      -1.40790606      -1.00115432
H       -0.47283153       1.91455831       0.67988725
14
Frame=11 idx=002238 GeodesicLength=0.6556181829491575 rxn_smarts="[C:1]([C:2]#[C:3][C@@:4]([C:5]([H:11])([H:12])[H:13])([O:6][H:14])[H:10])([H:7])([H:8])[H:9]>>[C+:1]([C:2](=[C-:3][C@@:4]([C:5]([H:11])([H:12])[H:13])([O:6][H:14])[H:10])[H:8])([H:7])[H:9]"
C        2.74738907      -0.01711373       0.04682013
C        1.39671847      -0.32906940       0.02807438
C        0.29903608      -0.19980644      -0.64692124
C       -1.03077750       0.34857305      -0.33575972
C       -2.03701739      -0.77723908      -0.12712610
O       -1.09766656       1.18192846       0.82126311
H        3.44669108      -0.68949956       0.53274500
H        1.81114251       0.20691834       1.18181771
H        3.14047195       0.58192163      -0.76885578
H       -1.33843964       0.92598833      -1.21968247
H       -1.73553147      -1.39099361       0.72281843
H       -3.01730021      -0.34895952       0.08106858
H       -2.09160559      -1.40870521      -1.01247714
H       -0.49311080       1.91605677       0.69621510
14
Frame=12 idx=002238 GeodesicLength=0.7153390469450628 rxn_smarts="[C:1]([C:2]#[C:3][C@@:4]([C:5]([H:11])([H:12])[H:13])([O:6][H:14])[H:10])([H:7])([H:8])[H:9]>>[C+:1]([C:2](=[C-:3][C@@:4]([C:5]([H:11])([H:12])[H:13])([O:6][H:14])[H:10])[H:8])([H:7])[H:9]"
C        2.74914824      -0.02389361       0.04496722
C        1.39436508      -0.32350208       0.06241964
C        0.30131992      -0.19151795      -0.62177019
C       -1.03448352       0.35193920      -0.32995943
C       -2.03821050      -0.77919257      -0.13679284
O       -1.12196513       1.18412264       0.82601568
H        3.45447803      -0.70408551       0.51166852
H        1.86386814       0.25092513       1.19694574
H        3.12447279       0.54700401      -0.79887167
H       -1.33162809       0.92784226      -1.21849474
H       -1.74602534      -1.39261571       0.71658821
H       -3.02309446      -0.35518071       0.05799447
H       -2.07770449      -1.40964909      -1.02366828
H       -0.51454066       1.91780401       0.71295768
14
Frame=13 idx=002238 GeodesicLength=0.7749192397656 rxn_smarts="[C:1]([C:2]#[C:3][C@@:4]([C:5]([H:11])([H:12])[H:13])([O:6][H:14])[H:10])([H:7])([H:8])[H:9]>>[C+:1]([C:2](=[C-:3][C@@:4]([C:5]([H:11])([H:12])[H:13])([O:6][H:14])[H:10])[H:8])([H:7])[H:9]"
C        2.75056027      -0.03104036       0.04315157
C        1.39219066      -0.31562637       0.09686136
C        0.30345914      -0.18274238      -0.59625786
C       -1.03823045       0.35547448      -0.32415289
C       -2.03880503      -0.78127388      -0.14631559
O       -1.14673847       1.18655413       0.83031980
H        3.46007130      -0.72036944       0.49046393
H        1.91861021       0.29434461       1.20943554
H        3.10738557       0.51207128      -0.82675958
H       -1.32484772       0.92967089      -1.21727601
H       -1.75588451      -1.39416013       0.71052109
H       -3.02825643      -0.36185335       0.03480966
H       -2.06290855      -1.41080876      -1.03440098
H       -0.53660601       1.91975928       0.72959995
14
Frame=14 idx=002238 GeodesicLength=0.8344199941653141 rxn_smarts="[C:1]([C:2]#[C:3][C@@:4]([C:5]([H:11])([H:12])[H:13])([O:6][H:14])[H:10])([H:7])([H:8])[H:9]>>[C+:1]([C:2](=[C-:3][C@@:4]([C:5]([H:11])([H:12])[H:13])([O:6][H:14])[H:10])[H:8])([H:7])[H:9]"
C        2.75168045      -0.03877715       0.04137126
C        1.39018241      -0.30495485       0.13137122
C        0.30543850      -0.17292216      -0.57043814
C       -1.04213936       0.35934814      -0.31825514
C       -2.03864407      -0.78358167      -0.15577513
O       -1.17226725       1.18915226       0.83439290
H        3.46308012      -0.73867245       0.46970231
H        1.97559080       0.33785549       1.21890904
H        3.08965651       0.47609054      -0.85302132
H       -1.31838555       0.93174285      -1.21583140
H       -1.76477320      -1.39582137       0.70441694
H       -3.03271116      -0.36934913       0.01153670
H       -2.04693886      -1.41211799      -1.04486312
H       -0.55976934       1.92200749       0.74648386
14
Frame=15 idx=002238 GeodesicLength=0.8938455223279462 rxn_smarts="[C:1]([C:2]#[C:3][C@@:4]([C:5]([H:11])([H:12])[H:13])([O:6][H:14])[H:10])([H:7])([H:8])[H:9]>>[C+:1]([C:2](=[C-:3][C@@:4]([C:5]([H:11])([H:12])[H:13])([O:6][H:14])[H:10])[H:8])([H:7])[H:9]"
C        2.75244932      -0.04721417       0.03966827
C        1.38834478      -0.29119817       0.16581797
C        0.30725471      -0.16171845      -0.54440343
C       -1.04625587       0.36366085      -0.31224450
C       -2.03758948      -0.78615367      -0.16518658
O       -1.19864925       1.19187187       0.83830506
H        3.46315962      -0.75916301       0.44973725
H        2.03492230       0.38151873       1.22504453
H        3.07140074       0.43868502      -0.87772712
H       -1.31241234       0.93420144      -1.21406994
H       -1.77242070      -1.39767338       0.69818951
H       -3.03635241      -0.37787347      -0.01175668
H       -2.02961500      -1.41351851      -1.05510630
H       -0.58423642       1.92457491       0.76373196
14
Frame=16 idx=002238 GeodesicLength=0.9531978604867195 rxn_smarts="[C:1]([C:2]#[C:3][C@@:4]([C:5]([H:11])([H:12])[H:13])([O:6][H:14])[H:10])([H:7])([H:8])[H:9]>>[C+:1]([C:2](=[C-:3][C@@:4]([C:5]([H:11])([H:12])[H:13])([O:6][H:14])[H:10])[H:8])([H:7])[H:9]"
C        2.75276884      -0.05628775       0.03814148
C        1.38671315      -0.27430989       0.19999528
C        0.30890821      -0.14902854      -0.51829469
C       -1.05058016       0.36844886      -0.30618871
C       -2.03555818      -0.78898158      -0.17448331
O       -1.22584042       1.19476026       0.84195578
H        3.46012495      -0.78188800       0.43060769
H        2.09657263       0.42461647       1.22787744
H        3.05253396       0.40026034      -0.90066158
H       -1.30701703       0.93705025      -1.21207541
H       -1.77865583      -1.39966688       0.69192897
H       -3.03909687      -0.38746133      -0.03496472
H       -2.01087597      -1.41502215      -1.06503104
H       -0.60999728       1.92750993       0.78119283
