16
Frame=0 idx=006486 GeodesicLength=0.0 rxn_smarts="[C:1]([C@@:2]([C:3]([O:4][H:14])([H:12])[H:13])([N:5]([C:6](=[O:7])[H:16])[H:15])[H:11])([H:8])([H:9])[H:10]>>[C:1]([C@@:2]([C:3]([O:4][H:14])([H:12])[H:13])([O:7]/[C:6](=[N:5]/[H:15])[H:16])[H:11])([H:8])([H:9])[H:10]"
C       -1.15500611       1.39987603      -0.05609670
C       -0.48159292       0.21489759       0.53090680
C       -0.94897109      -1.14436303       0.15916855
O       -0.44878994      -2.16761060       0.95714182
N        1.21510946       0.54930985      -1.08484275
C        2.03032109      -0.05548298      -0.29697205
O        1.63741149      -0.49919969       0.81807307
H       -0.55526670       2.29869784       0.05451830
H       -2.07028491       1.54023116       0.53842416
H       -1.41762414       1.25927113      -1.10139473
H       -0.18750940       0.33060087       1.56502536
H       -2.04041097      -1.11007441       0.30493260
H       -0.78008838      -1.30835676      -0.91131080
H        0.50140133      -1.98861996       1.03618247
H        1.61456087       0.89057616      -1.95137837
H        3.08674039      -0.20975321      -0.56237778
16
Frame=1 idx=006486 GeodesicLength=0.05205972160534972 rxn_smarts="[C:1]([C@@:2]([C:3]([O:4][H:14])([H:12])[H:13])([N:5]([C:6](=[O:7])[H:16])[H:15])[H:11])([H:8])([H:9])[H:10]>>[C:1]([C@@:2]([C:3]([O:4][H:14])([H:12])[H:13])([O:7]/[C:6](=[N:5]/[H:15])[H:16])[H:11])([H:8])([H:9])[H:10]"
C       -1.14713183       1.40030317      -0.05777955
C       -0.46267749       0.21499196       0.52150230
C       -0.94962776      -1.14320742       0.16037009
O       -0.45444998      -2.16801066       0.96097705
N        1.20097419       0.52460439      -1.09225005
C        2.02505236      -0.07022918      -0.30446901
O        1.63630157      -0.49539963       0.82000427
H       -0.55131799       2.30177912       0.05563904
H       -2.06364300       1.53510646       0.53496014
H       -1.40962659       1.26207206      -1.10364591
H       -0.19269337       0.33070832       1.56315767
H       -2.03942567      -1.10111784       0.31181969
H       -0.78613867      -1.31522382      -0.90970876
H        0.49847728      -2.00228453       1.03149128
H        1.60444890       0.90254343      -1.94109369
H        3.09147805      -0.17663582      -0.55097456
16
Frame=2 idx=006486 GeodesicLength=0.10416956992249612 rxn_smarts="[C:1]([C@@:2]([C:3]([O:4][H:14])([H:12])[H:13])([N:5]([C:6](=[O:7])[H:16])[H:15])[H:11])([H:8])([H:9])[H:10]>>[C:1]([C@@:2]([C:3]([O:4][H:14])([H:12])[H:13])([O:7]/[C:6](=[N:5]/[H:15])[H:16])[H:11])([H:8])([H:9])[H:10]"
C       -1.13930733       1.40079265      -0.05926004
C       -0.44415531       0.21519901       0.51263287
C       -0.94957686      -1.14180388       0.16116015
O       -0.45919320      -2.16820846       0.96417356
N        1.18768006       0.50158347      -1.09821277
C        2.02055876      -0.08313046      -0.31048365
O        1.63532483      -0.49037542       0.82263120
H       -0.54772189       2.30499592       0.05764156
H       -2.05750680       1.52982731       0.53098103
H       -1.40102599       1.26514782      -1.10587387
H       -0.19840728       0.33091502       1.56128344
H       -2.03776338      -1.09262765       0.31766899
H       -0.79087577      -1.32124911      -0.90843639
H        0.49612219      -2.01540813       1.02653425
H        1.59244840       0.91155132      -1.93100195
H        3.09339957      -0.14720940      -0.54143838
16
Frame=3 idx=006486 GeodesicLength=0.15644328240697497 rxn_smarts="[C:1]([C@@:2]([C:3]([O:4][H:14])([H:12])[H:13])([N:5]([C:6](=[O:7])[H:16])[H:15])[H:11])([H:8])([H:9])[H:10]>>[C:1]([C@@:2]([C:3]([O:4][H:14])([H:12])[H:13])([O:7]/[C:6](=[N:5]/[H:15])[H:16])[H:11])([H:8])([H:9])[H:10]"
C       -1.13110775       1.40116746      -0.06085612
C       -0.42587653       0.21521258       0.50408055
C       -0.94950334      -1.14036681       0.16198197
O       -0.46377485      -2.16840418       0.96725201
N        1.17480838       0.47857968      -1.10383789
C        2.01656798      -0.09553624      -0.31604658
O        1.63442044      -0.48533243       0.82509332
H       -0.54356268       2.30792694       0.05959662
H       -2.05109989       1.52485463       0.52657384
H       -1.39196211       1.26807572      -1.10822658
H       -0.20398183       0.33111611       1.55905623
H       -2.03602812      -1.08425397       0.32347314
H       -0.79560002      -1.32706234      -0.90709207
H        0.49371511      -2.02864080       1.02122461
H        1.57912350       0.91992371      -1.92017725
H        3.09386171      -0.11726006      -0.53209580
16
Frame=4 idx=006486 GeodesicLength=0.2087542364413012 rxn_smarts="[C:1]([C@@:2]([C:3]([O:4][H:14])([H:12])[H:13])([N:5]([C:6](=[O:7])[H:16])[H:15])[H:11])([H:8])([H:9])[H:10]>>[C:1]([C@@:2]([C:3]([O:4][H:14])([H:12])[H:13])([O:7]/[C:6](=[N:5]/[H:15])[H:16])[H:11])([H:8])([H:9])[H:10]"
C       -1.12308374       1.40162864      -0.06216635
C       -0.40802398       0.21536898       0.49610519
C       -0.94886564      -1.13870169       0.16245276
O       -0.46759221      -2.16844758       0.96972842
N        1.16260482       0.45721482      -1.10813022
C        2.01313751      -0.10606584      -0.32020813
O        1.63359067      -0.47922974       0.82822109
H       -0.53989588       2.31101737       0.06247873
H       -2.04527436       1.51972538       0.52179500
H       -1.38244436       1.27130640      -1.11046155
H       -0.21007401       0.33138080       1.55688516
H       -2.03377600      -1.07631837       0.32838280
H       -0.79921473      -1.33207777      -0.90604953
H        0.49175984      -2.04142127       1.01560055
H        1.56461315       0.92528539      -1.91020120
H        3.09253892      -0.09066550      -0.52443270
16
Frame=5 idx=006486 GeodesicLength=0.2611487342126991 rxn_smarts="[C:1]([C@@:2]([C:3]([O:4][H:14])([H:12])[H:13])([N:5]([C:6](=[O:7])[H:16])[H:15])[H:11])([H:8])([H:9])[H:10]>>[C:1]([C@@:2]([C:3]([O:4][H:14])([H:12])[H:13])([O:7]/[C:6](=[N:5]/[H:15])[H:16])[H:11])([H:8])([H:9])[H:10]"
C       -1.11507554       1.40208935      -0.06335664
C       -0.39051211       0.21554227       0.48857753
C       -0.94795156      -1.13690941       0.16278182
O       -0.47100210      -2.16841282       0.97189996
N        1.15087373       0.43676137      -1.11163509
C        2.01007855      -0.11557669      -0.32360793
O        1.63281837      -0.47264299       0.83156311
H       -0.53635582       2.31407912       0.06580790
H       -2.03968746       1.51463475       0.51669912
H       -1.37259721       1.27461886      -1.11265614
H       -0.21632119       0.33169133       1.55458344
H       -2.03126837      -1.06865751       0.33282646
H       -0.80224382      -1.33661789      -0.90510961
H        0.48995653      -2.05401574       1.00976991
H        1.54926736       0.92901865      -1.90045817
H        3.09002064      -0.06560263      -0.51768566
16
Frame=6 idx=006486 GeodesicLength=0.31357711701845514 rxn_smarts="[C:1]([C@@:2]([C:3]([O:4][H:14])([H:12])[H:13])([N:5]([C:6](=[O:7])[H:16])[H:15])[H:11])([H:8])([H:9])[H:10]>>[C:1]([C@@:2]([C:3]([O:4][H:14])([H:12])[H:13])([O:7]/[C:6](=[N:5]/[H:15])[H:16])[H:11])([H:8])([H:9])[H:10]"
C       -1.10708883       1.40257511      -0.06436514
C       -0.37333833       0.21573044       0.48152348
C       -0.94684213      -1.13499332       0.16297826
O       -0.47406975      -2.16834430       0.97372572
N        1.13957220       0.41717390      -1.11436476
C        2.00738103      -0.12403996      -0.32624494
O        1.63209778      -0.46563716       0.83514020
H       -0.53293127       2.31712680       0.06967175
H       -2.03434307       1.50958894       0.51135656
H       -1.36241908       1.27807938      -1.11476220
H       -0.22273300       0.33198992       1.55221538
H       -2.02859008      -1.06124604       0.33688431
H       -0.80483818      -1.34066369      -0.90429452
H        0.48826112      -2.06650170       1.00359891
H        1.53328289       0.93067796      -1.89147070
H        3.08659868      -0.04151629      -0.51159233
16
Frame=7 idx=006486 GeodesicLength=0.36605964357924897 rxn_smarts="[C:1]([C@@:2]([C:3]([O:4][H:14])([H:12])[H:13])([N:5]([C:6](=[O:7])[H:16])[H:15])[H:11])([H:8])([H:9])[H:10]>>[C:1]([C@@:2]([C:3]([O:4][H:14])([H:12])[H:13])([O:7]/[C:6](=[N:5]/[H:15])[H:16])[H:11])([H:8])([H:9])[H:10]"
C       -1.09913854       1.40306329      -0.06523907
C       -0.35648930       0.21593276       0.47491120
C       -0.94556930      -1.13297666       0.16309636
O       -0.47682670      -2.16823425       0.97529610
N        1.12863284       0.39834104      -1.11642139
C        2.00496102      -0.13162077      -0.32825319
O        1.63141875      -0.45825444       0.83889963
H       -0.52964321       2.32013757       0.07398021
H       -2.02923149       1.50457628       0.50573586
H       -1.35194498       1.28163014      -1.11681143
H       -0.22925982       0.33230906       1.54975400
H       -2.02576843      -1.05407189       0.34064859
H       -0.80706981      -1.34430024      -0.90354866
H        0.48664505      -2.07888900       0.99714230
H        1.51687131       0.93082808      -1.88300783
H        3.08241260      -0.01847100      -0.50618269
16
Frame=8 idx=006486 GeodesicLength=0.41862214698454364 rxn_smarts="[C:1]([C@@:2]([C:3]([O:4][H:14])([H:12])[H:13])([N:5]([C:6](=[O:7])[H:16])[H:15])[H:11])([H:8])([H:9])[H:10]>>[C:1]([C@@:2]([C:3]([O:4][H:14])([H:12])[H:13])([O:7]/[C:6](=[N:5]/[H:15])[H:16])[H:11])([H:8])([H:9])[H:10]"
C       -1.09114059       1.40355207      -0.06598714
C       -0.33993041       0.21610346       0.46871766
C       -0.94423717      -1.13087757       0.16318317
O       -0.47935769      -2.16812722       0.97660593
N        1.11799594       0.37999514      -1.11790626
C        2.00282062      -0.13839608      -0.32969937
O        1.63076698      -0.45067078       0.84276781
H       -0.52634000       2.32306474       0.07867663
H       -2.02422866       1.49967090       0.49986439
H       -1.34113782       1.28526627      -1.11879081
H       -0.23583514       0.33260557       1.54718665
H       -2.02288175      -1.04705875       0.34428911
H       -0.80917413      -1.34757302      -0.90283751
H        0.48502905      -2.09130773       0.99022686
H        1.50006378       0.92932351      -1.87522938
H        3.07758699       0.00442950      -0.50106776
16
Frame=9 idx=006486 GeodesicLength=0.4712506041392362 rxn_smarts="[C:1]([C@@:2]([C:3]([O:4][H:14])([H:12])[H:13])([N:5]([C:6](=[O:7])[H:16])[H:15])[H:11])([H:8])([H:9])[H:10]>>[C:1]([C@@:2]([C:3]([O:4][H:14])([H:12])[H:13])([O:7]/[C:6](=[N:5]/[H:15])[H:16])[H:11])([H:8])([H:9])[H:10]"
C       -1.08312652       1.40403412      -0.06662826
C       -0.32364682       0.21624951       0.46291666
C       -0.94284702      -1.12870912       0.16325425
O       -0.48168600      -2.16802032       0.97771630
N        1.10763964       0.36214262      -1.11886811
C        2.00090711      -0.14450352      -0.33069084
O        1.63014977      -0.44291402       0.84670574
H       -0.52306118       2.32591146       0.08370144
H       -2.01933852       1.49485920       0.49376125
H       -1.33005692       1.28895884      -1.12071085
H       -0.24241036       0.33289792       1.54450377
H       -2.01994091      -1.04021197       0.34780869
H       -0.81113454      -1.35052387      -0.90214536
H        0.48338880      -2.10374437       0.98296270
H        1.48301249       0.92649011      -1.86801920
H        3.07215098       0.02708340      -0.49626816
16
Frame=10 idx=006486 GeodesicLength=0.523942221415655 rxn_smarts="[C:1]([C@@:2]([C:3]([O:4][H:14])([H:12])[H:13])([N:5]([C:6](=[O:7])[H:16])[H:15])[H:11])([H:8])([H:9])[H:10]>>[C:1]([C@@:2]([C:3]([O:4][H:14])([H:12])[H:13])([O:7]/[C:6](=[N:5]/[H:15])[H:16])[H:11])([H:8])([H:9])[H:10]"
C       -1.07512149       1.40450452      -0.06718089
C       -0.30763558       0.21638192       0.45749901
C       -0.94140280      -1.12647922       0.16332985
O       -0.48380593      -2.16790753       0.97865678
N        1.09754332       0.34477019      -1.11932219
C        1.99919117      -0.14998647      -0.33126434
O        1.62956813      -0.43495992       0.85073172
H       -0.51985355       2.32868327       0.08902856
H       -2.01458509       1.49011936       0.48740339
H       -1.31871838       1.29268995      -1.12258757
H       -0.24899493       0.33320671       1.54171812
H       -2.01694854      -1.03353637       0.35124572
H       -0.81296817      -1.35317937      -0.90145314
H        0.48172260      -2.11619303       0.97535076
H        1.46582779       0.92255518      -1.86128242
H        3.06618145       0.04933083      -0.49187335
16
Frame=11 idx=006486 GeodesicLength=0.5766948014754775 rxn_smarts="[C:1]([C@@:2]([C:3]([O:4][H:14])([H:12])[H:13])([N:5]([C:6](=[O:7])[H:16])[H:15])[H:11])([H:8])([H:9])[H:10]>>[C:1]([C@@:2]([C:3]([O:4][H:14])([H:12])[H:13])([O:7]/[C:6](=[N:5]/[H:15])[H:16])[H:11])([H:8])([H:9])[H:10]"
C       -1.06710765       1.40495869      -0.06766075
C       -0.29187673       0.21648720       0.45244297
C       -0.93993790      -1.12419793       0.16343020
O       -0.48574488      -2.16780082       0.97944622
N        1.08768567       0.32778476      -1.11932234
C        1.99766418      -0.15490707      -0.33147253
O        1.62902526      -0.42687060       0.85481381
H       -0.51667952       2.33136514       0.09461012
H       -2.00992796       1.48547055       0.48080263
H       -1.30713136       1.29644304      -1.12442807
H       -0.25554951       0.33352793       1.53882619
H       -2.01393364      -1.02700704       0.35466311
H       -0.81475036      -1.35556887      -0.90074777
H        0.48000133      -2.12869057       0.96736598
H        1.44855390       0.91760380      -1.85499981
H        3.05970916       0.07140179      -0.48776995
16
Frame=12 idx=006486 GeodesicLength=0.6295090864477613 rxn_smarts="[C:1]([C@@:2]([C:3]([O:4][H:14])([H:12])[H:13])([N:5]([C:6](=[O:7])[H:16])[H:15])[H:11])([H:8])([H:9])[H:10]>>[C:1]([C@@:2]([C:3]([O:4][H:14])([H:12])[H:13])([O:7]/[C:6](=[N:5]/[H:15])[H:16])[H:11])([H:8])([H:9])[H:10]"
C       -1.05910277       1.40539573      -0.06807732
C       -0.27636164       0.21657327       0.44773436
C       -0.93845018      -1.12186968       0.16356406
O       -0.48750169      -2.16769598       0.98010521
N        1.07805200       0.31118235      -1.11888447
C        1.99629890      -0.15932086      -0.33135664
O        1.62852264      -0.41864131       0.85894870
H       -0.51357164       2.33396280       0.10042526
H       -2.00537448       1.48089928       0.47395723
H       -1.29531472       1.30020954      -1.12623658
H       -0.26206618       0.33387343       1.53583150
H       -2.01089415      -1.02062420       0.35807352
H       -0.81647969      -1.35770980      -0.90001931
H        0.47821687      -2.14122998       0.95902941
H        1.43126023       0.91177345      -1.84911082
H        3.05276650       0.09322195      -0.48398411
16
Frame=13 idx=006486 GeodesicLength=0.6823810274070312 rxn_smarts="[C:1]([C@@:2]([C:3]([O:4][H:14])([H:12])[H:13])([N:5]([C:6](=[O:7])[H:16])[H:15])[H:11])([H:8])([H:9])[H:10]>>[C:1]([C@@:2]([C:3]([O:4][H:14])([H:12])[H:13])([O:7]/[C:6](=[N:5]/[H:15])[H:16])[H:11])([H:8])([H:9])[H:10]"
C       -1.05112244       1.40581463      -0.06843965
C       -0.26108219       0.21664656       0.44335913
C       -0.93693994      -1.11949884       0.16373920
O       -0.48907735      -2.16758992       0.98065357
N        1.06863014       0.29495579      -1.11802699
C        1.99507373      -0.16327888      -0.33095461
O        1.62806248      -0.41027024       0.86313136
H       -0.51055706       2.33648046       0.10645341
H       -2.00092990       1.47639495       0.46686737
H       -1.28328730       1.30398103      -1.12801787
H       -0.26853532       0.33425465       1.53273777
H       -2.00783183      -1.01438679       0.36148930
H       -0.81815746      -1.35961910      -0.89926040
H        0.47636059      -2.15380847       0.95036025
H        1.41400365       0.90518922      -1.84355851
H        3.04539020       0.11473493      -0.48053331
16
Frame=14 idx=006486 GeodesicLength=0.7353139192373068 rxn_smarts="[C:1]([C@@:2]([C:3]([O:4][H:14])([H:12])[H:13])([N:5]([C:6](=[O:7])[H:16])[H:15])[H:11])([H:8])([H:9])[H:10]>>[C:1]([C@@:2]([C:3]([O:4][H:14])([H:12])[H:13])([O:7]/[C:6](=[N:5]/[H:15])[H:16])[H:11])([H:8])([H:9])[H:10]"
C       -1.04316538       1.40621391      -0.06875601
C       -0.24602669       0.21670612       0.43930357
C       -0.93541715      -1.11708895       0.16396438
O       -0.49047514      -2.16748472       0.98109747
N        1.05940707       0.27906981      -1.11677112
C        1.99397790      -0.16681174      -0.33029051
O        1.62764700      -0.40177009       0.86735536
H       -0.50763499       2.33891516       0.11267273
H       -1.99658043       1.47195658       0.45953490
H       -1.27105527       1.30775072      -1.12977502
H       -0.27494344       0.33467268       1.52954861
H       -2.00475289      -1.00828582       0.36493962
H       -0.81981357      -1.36130807      -0.89846475
H        0.47441944      -2.16643275       0.94134423
H        1.39681333       0.89790400      -1.83831842
H        3.03760022       0.13599316      -0.47738504
16
Frame=15 idx=006486 GeodesicLength=0.7882763120607587 rxn_smarts="[C:1]([C@@:2]([C:3]([O:4][H:14])([H:12])[H:13])([N:5]([C:6](=[O:7])[H:16])[H:15])[H:11])([H:8])([H:9])[H:10]>>[C:1]([C@@:2]([C:3]([O:4][H:14])([H:12])[H:13])([O:7]/[C:6](=[N:5]/[H:15])[H:16])[H:11])([H:8])([H:9])[H:10]"
C       -1.03532442       1.40659749      -0.06902249
C       -0.23120478       0.21679892       0.43555776
C       -0.93382445      -1.11463643       0.16422481
O       -0.49167130      -2.16734186       0.98148786
N        1.05038106       0.26367931      -1.11510695
C        1.99294485      -0.17003493      -0.32943073
O        1.62728082      -0.39304649       0.87162619
H       -0.50496596       2.34130448       0.11909487
H       -1.99241671       1.46752174       0.45196594
H       -1.25869464       1.31151723      -1.13150438
H       -0.28130937       0.33516809       1.52627134
H       -2.00162314      -1.00236038       0.36832798
H       -0.82129869      -1.36279251      -0.89763551
H        0.47241364      -2.17902652       0.93214128
H        1.37981894       0.89022319      -1.83323732
H        3.02949415       0.15642867      -0.47476064
16
Frame=16 idx=006486 GeodesicLength=0.8412424233549556 rxn_smarts="[C:1]([C@@:2]([C:3]([O:4][H:14])([H:12])[H:13])([N:5]([C:6](=[O:7])[H:16])[H:15])[H:11])([H:8])([H:9])[H:10]>>[C:1]([C@@:2]([C:3]([O:4][H:14])([H:12])[H:13])([O:7]/[C:6](=[N:5]/[H:15])[H:16])[H:11])([H:8])([H:9])[H:10]"
C       -1.02767666       1.40696859      -0.06923485
C       -0.21662279       0.21696527       0.43210960
C       -0.93211815      -1.11213786       0.16450784
O       -0.49265052      -2.16712652       0.98186764
N        1.04154418       0.24890424      -1.11303952
C        1.99191659      -0.17305320      -0.32843150
O        1.62696716      -0.38402270       0.87594019
H       -0.50268185       2.34367639       0.12572629
H       -1.98850779       1.46303942       0.44417195
H       -1.24627610       1.31528088      -1.13319959
H       -0.28764508       0.33576969       1.52291047
H       -1.99841815      -0.99663975       0.37157663
H       -0.82249789      -1.36408898      -0.89677569
H        0.47035840      -2.19152900       0.92287928
H        1.36312280       0.88239707      -1.82819058
H        3.02118584       0.17559646      -0.47281817
