15
Frame=0 idx=011084 GeodesicLength=0.0 rxn_smarts="[C:1]([c:2]1[c:3]([H:11])[c:4]([N:5]([H:12])[H:13])[c:6]([H:14])[n:7]1[H:15])([H:8])([H:9])[H:10]>>[C:1]([C:2]1=[C:3]([H:11])[C:4]([N:5]([H:12])[H:13])=[C-:6][N+:7]1([H:14])[H:15])([H:8])([H:9])[H:10]"
C        2.27555765      -0.44655103       0.01331098
C        0.82981419      -0.09192855       0.06816279
C       -0.27778272      -0.75532451      -0.33998821
C       -1.43541241       0.05102226      -0.09268792
N       -2.71810103      -0.31122531      -0.52125637
C       -1.15010221       1.23041659       0.56371727
N        0.38647567       1.14106120       0.54488640
H        2.73834564      -0.42443028       1.00345434
H        2.39375618      -1.45366695      -0.38417652
H        2.83484709       0.23598860      -0.63141935
H       -0.27241372      -1.72420911      -0.82150713
H       -3.42183448       0.29443233      -0.12715052
H       -2.94671415      -1.27772017      -0.34694263
H       -0.12163792       1.86868779      -0.17712203
H        0.88520216       1.66344719       1.24871894
15
Frame=1 idx=011084 GeodesicLength=0.04862078214703257 rxn_smarts="[C:1]([c:2]1[c:3]([H:11])[c:4]([N:5]([H:12])[H:13])[c:6]([H:14])[n:7]1[H:15])([H:8])([H:9])[H:10]>>[C:1]([C:2]1=[C:3]([H:11])[C:4]([N:5]([H:12])[H:13])=[C-:6][N+:7]1([H:14])[H:15])([H:8])([H:9])[H:10]"
C        2.27669103      -0.44443628       0.00791882
C        0.83041197      -0.09311785       0.06722132
C       -0.27734557      -0.76198390      -0.33104966
C       -1.43537521       0.04586829      -0.08684827
N       -2.71605922      -0.30978204      -0.52839818
C       -1.14507101       1.22524316       0.56473690
N        0.38586507       1.13967530       0.54637196
H        2.74273678      -0.42216045       0.99656862
H        2.39590291      -1.45112848      -0.39038011
H        2.83258337       0.23955280      -0.63827714
H       -0.27334435      -1.73764783      -0.79855563
H       -3.41975647       0.30246687      -0.14442299
H       -2.95205118      -1.27369464      -0.34924443
H       -0.12851705       1.88629467      -0.17206019
H        0.88332892       1.65485039       1.25641897
15
Frame=2 idx=011084 GeodesicLength=0.09720885818568195 rxn_smarts="[C:1]([c:2]1[c:3]([H:11])[c:4]([N:5]([H:12])[H:13])[c:6]([H:14])[n:7]1[H:15])([H:8])([H:9])[H:10]>>[C:1]([C:2]1=[C:3]([H:11])[C:4]([N:5]([H:12])[H:13])=[C-:6][N+:7]1([H:14])[H:15])([H:8])([H:9])[H:10]"
C        2.27773586      -0.44238466       0.00244081
C        0.83095241      -0.09436997       0.06631699
C       -0.27692860      -0.76871437      -0.32184251
C       -1.43534007       0.04079715      -0.08114896
N       -2.71382970      -0.30843891      -0.53560484
C       -1.14004859       1.22022077       0.56545003
N        0.38527354       1.13825815       0.54788247
H        2.74713910      -0.41987283       0.98953331
H        2.39789906      -1.44868327      -0.39660966
H        2.83015801       0.24299221      -0.64532113
H       -0.27423409      -1.75092377      -0.77528742
H       -3.41735092       0.31036031      -0.16184347
H       -2.95723979      -1.26966585      -0.35159387
H       -0.13561979       1.90425953      -0.16645755
H        0.88143357       1.64616551       1.26408581
15
Frame=3 idx=011084 GeodesicLength=0.14577885081146108 rxn_smarts="[C:1]([c:2]1[c:3]([H:11])[c:4]([N:5]([H:12])[H:13])[c:6]([H:14])[n:7]1[H:15])([H:8])([H:9])[H:10]>>[C:1]([C:2]1=[C:3]([H:11])[C:4]([N:5]([H:12])[H:13])=[C-:6][N+:7]1([H:14])[H:15])([H:8])([H:9])[H:10]"
C        2.27868785      -0.44043731      -0.00303641
C        0.83143392      -0.09569971       0.06548750
C       -0.27653872      -0.77553954      -0.31229209
C       -1.43530732       0.03580339      -0.07555650
N       -2.71144032      -0.30723677      -0.54277699
C       -1.13502168       1.21538534       0.56580081
N        0.38471201       1.13683718       0.54936125
H        2.75153188      -0.41754995       0.98244314
H        2.39973125      -1.44640208      -0.40270836
H        2.82758923       0.24621465      -0.65250296
H       -0.27503862      -1.76377806      -0.75229265
H       -3.41465905       0.31804936      -0.17927004
H       -2.96226142      -1.26568730      -0.35388240
H       -0.14294854       1.92256916      -0.16039730
H        0.87952952       1.63747164       1.27162299
15
Frame=4 idx=011084 GeodesicLength=0.19433799201358826 rxn_smarts="[C:1]([c:2]1[c:3]([H:11])[c:4]([N:5]([H:12])[H:13])[c:6]([H:14])[n:7]1[H:15])([H:8])([H:9])[H:10]>>[C:1]([C:2]1=[C:3]([H:11])[C:4]([N:5]([H:12])[H:13])=[C-:6][N+:7]1([H:14])[H:15])([H:8])([H:9])[H:10]"
C        2.27954064      -0.43859695      -0.00851839
C        0.83185457      -0.09709284       0.06469761
C       -0.27616816      -0.78241076      -0.30247065
C       -1.43527200       0.03090068      -0.07009161
N       -2.70888572      -0.30618088      -0.54990917
C       -1.12998906       1.21074004       0.56578109
N        0.38418172       1.13542123       0.55079500
H        2.75587739      -0.41522649       0.97529967
H        2.40139484      -1.44427622      -0.40870734
H        2.82489406       0.24922511      -0.65978956
H       -0.27577177      -1.77627163      -0.72947253
H       -3.41164461       0.32550363      -0.19668543
H       -2.96710868      -1.26175367      -0.35611591
H       -0.15051668       1.94125723      -0.15384619
H        0.87761345       1.62876151       1.27903340
15
Frame=5 idx=011084 GeodesicLength=0.24290025156259692 rxn_smarts="[C:1]([c:2]1[c:3]([H:11])[c:4]([N:5]([H:12])[H:13])[c:6]([H:14])[n:7]1[H:15])([H:8])([H:9])[H:10]>>[C:1]([C:2]1=[C:3]([H:11])[C:4]([N:5]([H:12])[H:13])=[C-:6][N+:7]1([H:14])[H:15])([H:8])([H:9])[H:10]"
C        2.28030656      -0.43686796      -0.01399637
C        0.83222298      -0.09857360       0.06401006
C       -0.27582677      -0.78938712      -0.29223277
C       -1.43523506       0.02607434      -0.06470069
N       -2.70617257      -0.30526476      -0.55701867
C       -1.12493707       1.20628488       0.56539787
N        0.38369481       1.13401011       0.55218816
H        2.76024256      -0.41284391       0.96809606
H        2.40289489      -1.44233548      -0.41454281
H        2.82204455       0.25199481      -0.66724709
H       -0.27642747      -1.78833723      -0.70701717
H       -3.40839051       0.33275317      -0.21412453
H       -2.97178118      -1.25787931      -0.35830789
H       -0.15833451       1.96030042      -0.14679894
H        0.87569878       1.62007166       1.28629478
15
Frame=6 idx=011084 GeodesicLength=0.2914789676054213 rxn_smarts="[C:1]([c:2]1[c:3]([H:11])[c:4]([N:5]([H:12])[H:13])[c:6]([H:14])[n:7]1[H:15])([H:8])([H:9])[H:10]>>[C:1]([C:2]1=[C:3]([H:11])[C:4]([N:5]([H:12])[H:13])=[C-:6][N+:7]1([H:14])[H:15])([H:8])([H:9])[H:10]"
C        2.28097551      -0.43525715      -0.01946889
C        0.83253451      -0.10012055       0.06336601
C       -0.27550103      -0.79639037      -0.28171685
C       -1.43519089       0.02133772      -0.05941357
N       -2.70329394      -0.30450031      -0.56407958
C       -1.11986784       1.20202951       0.56463073
N        0.38325114       1.13261633       0.55351440
H        2.76455737      -0.41046039       0.96084739
H        2.40422744      -1.44056879      -0.42025271
H        2.81907300       0.25452784      -0.67480743
H       -0.27701778      -1.80004899      -0.68481558
H       -3.40482450       0.33975248      -0.23154097
H       -2.97627439      -1.25405848      -0.36044668
H       -0.16642709       1.97974588      -0.13922108
H        0.87377848       1.61139527       1.29340481
15
Frame=7 idx=011084 GeodesicLength=0.33888224611156736 rxn_smarts="[C:1]([c:2]1[c:3]([H:11])[c:4]([N:5]([H:12])[H:13])[c:6]([H:14])[n:7]1[H:15])([H:8])([H:9])[H:10]>>[C:1]([C:2]1=[C:3]([H:11])[C:4]([N:5]([H:12])[H:13])=[C-:6][N+:7]1([H:14])[H:15])([H:8])([H:9])[H:10]"
C        2.28158254      -0.43373024      -0.02485129
C        0.83283015      -0.10162510       0.06267872
C       -0.27520170      -0.80337383      -0.27107976
C       -1.43516311       0.01670027      -0.05418078
N       -2.70036536      -0.30384002      -0.57101158
C       -1.11480056       1.19780504       0.56377573
N        0.38283249       1.13138155       0.55457726
H        2.76875506      -0.40804926       0.95370918
H        2.40542594      -1.43895436      -0.42572102
H        2.81612473       0.25683654      -0.68234202
H       -0.27753367      -1.81126990      -0.66326235
H       -3.40120482       0.34656683      -0.24876901
H       -2.98060995      -1.25035783      -0.36243690
H       -0.17449012       1.99913882      -0.13144198
H        0.87181838       1.60277150       1.30035579
15
Frame=8 idx=011084 GeodesicLength=0.3875099883452902 rxn_smarts="[C:1]([c:2]1[c:3]([H:11])[c:4]([N:5]([H:12])[H:13])[c:6]([H:14])[n:7]1[H:15])([H:8])([H:9])[H:10]>>[C:1]([C:2]1=[C:3]([H:11])[C:4]([N:5]([H:12])[H:13])=[C-:6][N+:7]1([H:14])[H:15])([H:8])([H:9])[H:10]"
C        2.28206343      -0.43247146      -0.03006347
C        0.83304465      -0.10328786       0.06209638
C       -0.27489713      -0.81032377      -0.26019121
C       -1.43510216       0.01217929      -0.04909876
N       -2.69727672      -0.30347181      -0.57767974
C       -1.10964945       1.19402875       0.56209045
N        0.38251614       1.13012323       0.55555751
H        2.77280861      -0.40576268       0.94671533
H        2.40641416      -1.43769143      -0.43083674
H        2.81309914       0.25869602      -0.68981331
H       -0.27792455      -1.82179008      -0.64288186
H       -3.39721680       0.35283684      -0.26557655
H       -2.98465527      -1.24681018      -0.36418239
H       -0.18315366       2.01941716      -0.12300887
H        0.86992961       1.59432799       1.30687322
15
Frame=9 idx=011084 GeodesicLength=0.43621337517216113 rxn_smarts="[C:1]([c:2]1[c:3]([H:11])[c:4]([N:5]([H:12])[H:13])[c:6]([H:14])[n:7]1[H:15])([H:8])([H:9])[H:10]>>[C:1]([C:2]1=[C:3]([H:11])[C:4]([N:5]([H:12])[H:13])=[C-:6][N+:7]1([H:14])[H:15])([H:8])([H:9])[H:10]"
C        2.28249417      -0.43140026      -0.03509859
C        0.83324607      -0.10500143       0.06150972
C       -0.27458819      -0.81722889      -0.24922299
C       -1.43501732       0.00777209      -0.04414397
N       -2.69415862      -0.30328869      -0.58411149
C       -1.10443121       1.19049764       0.55990028
N        0.38228526       1.12894126       0.55631427
H        2.77672180      -0.40356903       0.93993807
H        2.40728527      -1.43668701      -0.43561999
H        2.81014865       0.26021825      -0.69715376
H       -0.27822392      -1.83174425      -0.62358248
H       -3.39317374       0.35875304      -0.28197438
H       -2.98849249      -1.24342473      -0.36564821
H       -0.19216373       2.04012070      -0.11415035
H        0.86806802       1.58604130       1.31304388
15
Frame=10 idx=011084 GeodesicLength=0.48496681086574983 rxn_smarts="[C:1]([c:2]1[c:3]([H:11])[c:4]([N:5]([H:12])[H:13])[c:6]([H:14])[n:7]1[H:15])([H:8])([H:9])[H:10]>>[C:1]([C:2]1=[C:3]([H:11])[C:4]([N:5]([H:12])[H:13])=[C-:6][N+:7]1([H:14])[H:15])([H:8])([H:9])[H:10]"
C        2.28284549      -0.43058011      -0.03985271
C        0.83341572      -0.10674178       0.06085284
C       -0.27426528      -0.82397130      -0.23835134
C       -1.43491199       0.00351297      -0.03935304
N       -2.69102432      -0.30337033      -0.59014086
C       -1.09913827       1.18727435       0.55709709
N        0.38214749       1.12789173       0.55673128
H        2.78033992      -0.40155968       0.93352445
H        2.40800790      -1.43600855      -0.43995215
H        2.80735517       0.26130105      -0.70418516
H       -0.27839977      -1.84093092      -0.60584480
H       -3.38899478       0.36414205      -0.29769412
H       -2.99207571      -1.24026698      -0.36667938
H       -0.20153819       2.06132280      -0.10490515
H        0.86623663       1.57798468       1.31875305
15
Frame=11 idx=011084 GeodesicLength=0.5337688237749161 rxn_smarts="[C:1]([c:2]1[c:3]([H:11])[c:4]([N:5]([H:12])[H:13])[c:6]([H:14])[n:7]1[H:15])([H:8])([H:9])[H:10]>>[C:1]([C:2]1=[C:3]([H:11])[C:4]([N:5]([H:12])[H:13])=[C-:6][N+:7]1([H:14])[H:15])([H:8])([H:9])[H:10]"
C        2.28313568      -0.43001025      -0.04432972
C        0.83356688      -0.10850195       0.06009509
C       -0.27391609      -0.83052273      -0.22765426
C       -1.43477743      -0.00059559      -0.03474009
N       -2.68789777      -0.30371053      -0.59577752
C       -1.09376117       1.18435134       0.55366262
N        0.38211187       1.12697776       0.55678723
H        2.78365945      -0.39976395       0.92748419
H        2.40860624      -1.43564757      -0.44385626
H        2.80475726       0.26195905      -0.71088421
H       -0.27846297      -1.84941177      -0.58957121
H       -3.38474227       0.36902084      -0.31273997
H       -2.99541035      -1.23733985      -0.36725914
H       -0.21130239       2.08304045      -0.09521739
H        0.86443309       1.57015477       1.32400066
15
Frame=12 idx=011084 GeodesicLength=0.5832420676182148 rxn_smarts="[C:1]([c:2]1[c:3]([H:11])[c:4]([N:5]([H:12])[H:13])[c:6]([H:14])[n:7]1[H:15])([H:8])([H:9])[H:10]>>[C:1]([C:2]1=[C:3]([H:11])[C:4]([N:5]([H:12])[H:13])=[C-:6][N+:7]1([H:14])[H:15])([H:8])([H:9])[H:10]"
C        2.28338521      -0.42969120      -0.04869945
C        0.83371638      -0.11036629       0.05929730
C       -0.27353707      -0.83700557      -0.21687893
C       -1.43458813      -0.00462031      -0.03025969
N       -2.68465022      -0.30427891      -0.60120303
C       -1.08827872       1.18180582       0.54943232
N        0.38222133       1.12608691       0.55658500
H        2.78681787      -0.39808580       0.92157028
H        2.40909295      -1.43560982      -0.44747098
H        2.80222879       0.26221157      -0.71754988
H       -0.27846086      -1.85751954      -0.57401116
H       -3.38017428       0.37351648      -0.32763106
H       -2.99856003      -1.23451185      -0.36753900
H       -0.22188732       2.10559020      -0.08440146
H        0.86267410       1.56247831       1.32875973
15
Frame=13 idx=011084 GeodesicLength=0.6322933720773906 rxn_smarts="[C:1]([c:2]1[c:3]([H:11])[c:4]([N:5]([H:12])[H:13])[c:6]([H:14])[n:7]1[H:15])([H:8])([H:9])[H:10]>>[C:1]([C:2]1=[C:3]([H:11])[C:4]([N:5]([H:12])[H:13])=[C-:6][N+:7]1([H:14])[H:15])([H:8])([H:9])[H:10]"
C        2.28360903      -0.42940147      -0.05309114
C        0.83385963      -0.11224537       0.05851015
C       -0.27314064      -0.84347289      -0.20597692
C       -1.43438823      -0.00858573      -0.02578917
N       -2.68133396      -0.30498005      -0.60669067
C       -1.08278974       1.17931965       0.54504350
N        0.38239710       1.12526345       0.55630738
H        2.79011844      -0.39637657       0.91550854
H        2.40950614      -1.43564860      -0.45111500
H        2.79961042       0.26233731      -0.72442821
H       -0.27846228      -1.86562779      -0.55820569
H       -3.37553410       0.37805975      -0.34300167
H       -3.00164621      -1.23170915      -0.36766026
H       -0.23270803       2.12832122      -0.07300406
H        0.86090242       1.55474624       1.33359322
15
Frame=14 idx=011084 GeodesicLength=0.6807088302949815 rxn_smarts="[C:1]([c:2]1[c:3]([H:11])[c:4]([N:5]([H:12])[H:13])[c:6]([H:14])[n:7]1[H:15])([H:8])([H:9])[H:10]>>[C:1]([C:2]1=[C:3]([H:11])[C:4]([N:5]([H:12])[H:13])=[C-:6][N+:7]1([H:14])[H:15])([H:8])([H:9])[H:10]"
C        2.28377215      -0.42915167      -0.05779699
C        0.83397012      -0.11421714       0.05776973
C       -0.27278759      -0.84990435      -0.19470427
C       -1.43415047      -0.01228399      -0.02166762
N       -2.67773440      -0.30565171      -0.61260713
C       -1.07712191       1.17693636       0.54022135
N        0.38260897       1.12450915       0.55591229
H        2.79355311      -0.39441004       0.90912484
H        2.40979214      -1.43586511      -0.45460048
H        2.79673650       0.26221471      -0.73183229
H       -0.27856342      -1.87391171      -0.54130503
H       -3.37075374       0.38229991      -0.35831679
H       -3.00453850      -1.22882683      -0.36833643
H       -0.24380992       2.15136019      -0.06025639
H        0.85902697       1.54690225       1.33839520
15
Frame=15 idx=011084 GeodesicLength=0.7296441841235537 rxn_smarts="[C:1]([c:2]1[c:3]([H:11])[c:4]([N:5]([H:12])[H:13])[c:6]([H:14])[n:7]1[H:15])([H:8])([H:9])[H:10]>>[C:1]([C:2]1=[C:3]([H:11])[C:4]([N:5]([H:12])[H:13])=[C-:6][N+:7]1([H:14])[H:15])([H:8])([H:9])[H:10]"
C        2.28391856      -0.42900050      -0.06248574
C        0.83408965      -0.11623055       0.05700970
C       -0.27238230      -0.85624169      -0.18365983
C       -1.43385716      -0.01603213      -0.01752426
N       -2.67408870      -0.30652344      -0.61834605
C       -1.07147835       1.17470135       0.53501314
N        0.38290351       1.12365067       0.55550472
H        2.79689795      -0.39260303       0.90274554
H        2.41001074      -1.43612568      -0.45826974
H        2.79391239       0.26205848      -0.73910517
H       -0.27860832      -1.88216109      -0.52436798
H       -3.36567124       0.38659068      -0.37415059
H       -3.00743267      -1.22595012      -0.36845842
H       -0.25535151       2.17481930      -0.04699098
H        0.85713745       1.53904775       1.34308567
15
Frame=16 idx=011084 GeodesicLength=0.7781081391808155 rxn_smarts="[C:1]([c:2]1[c:3]([H:11])[c:4]([N:5]([H:12])[H:13])[c:6]([H:14])[n:7]1[H:15])([H:8])([H:9])[H:10]>>[C:1]([C:2]1=[C:3]([H:11])[C:4]([N:5]([H:12])[H:13])=[C-:6][N+:7]1([H:14])[H:15])([H:8])([H:9])[H:10]"
C        2.28400077      -0.42896666      -0.06755090
C        0.83420809      -0.11834063       0.05623533
C       -0.27198796      -0.86257543      -0.17193527
C       -1.43352290      -0.01956540      -0.01350623
N       -2.67000954      -0.30753868      -0.62454334
C       -1.06567124       1.17270613       0.52906949
N        0.38337125       1.12292950       0.55481145
H        2.80052283      -0.39053418       0.89574753
H        2.41003105      -1.43667230      -0.46193519
H        2.79075730       0.26148751      -0.74726266
H       -0.27876744      -1.89069289      -0.50572994
H       -3.36007493       0.39076571      -0.39105211
H       -3.01011656      -1.22295636      -0.36891251
H       -0.26788311       2.19892263      -0.03111589
H        0.85514239       1.53103105       1.34768024
