16
Frame=0 idx=001181 GeodesicLength=0.0 rxn_smarts="[C:1]([C:2]1([O:3][H:10])[C:4]([H:11])([H:12])[C:5]([H:13])([H:14])[C:6]1([H:15])[H:16])([H:7])([H:8])[H:9]>>[C:1](=[C:2]([O:3][H:10])[C:4]1([H:12])[C:5]([H:13])([H:14])[C:6]1([H:15])[H:16])([H:7])[H:9].[H:8][H:11]"
C        1.49901709       0.52194762      -0.31188204
C        0.54739352      -0.40123497       0.15292575
O        0.99992198      -1.64068011       0.58920234
C       -0.75606044      -0.44562282      -0.52968045
C       -1.57023417       0.65107375       0.08375398
C       -0.71771296       0.21080492       1.24631938
H        1.14612413       1.49444989      -0.63333913
H        0.91626811      -0.01351833      -1.95824165
H        2.48884464       0.52481598       0.13497830
H        1.90367549      -1.74086033       0.28176697
H        0.10559133      -0.21950651      -2.09446762
H       -1.22337304      -1.42984054      -0.52181990
H       -2.63465202       0.45258072       0.15125352
H       -1.37505553       1.65924110      -0.26905834
H       -1.14080264      -0.57888470       1.85422667
H       -0.18894553       0.95523432       1.82406224
16
Frame=1 idx=001181 GeodesicLength=0.06844441070166504 rxn_smarts="[C:1]([C:2]1([O:3][H:10])[C:4]([H:11])([H:12])[C:5]([H:13])([H:14])[C:6]1([H:15])[H:16])([H:7])([H:8])[H:9]>>[C:1](=[C:2]([O:3][H:10])[C:4]1([H:12])[C:5]([H:13])([H:14])[C:6]1([H:15])[H:16])([H:7])[H:9].[H:8][H:11]"
C        1.50125216       0.52035307      -0.32243217
C        0.55421707      -0.40138470       0.15886679
O        1.01135067      -1.63871286       0.59548104
C       -0.75352675      -0.45102681      -0.52105089
C       -1.56674842       0.65355341       0.08032780
C       -0.72575929       0.20627850       1.24902687
H        1.14562700       1.49802212      -0.62558873
H        0.91447232      -0.00177495      -1.96032184
H        2.49165557       0.52709077       0.12348845
H        1.90926834      -1.74578894       0.27365244
H        0.09034302      -0.22642526      -2.09339296
H       -1.21979706      -1.43524153      -0.51544743
H       -2.63318150       0.46302417       0.13882926
H       -1.36084106       1.66013514      -0.27084707
H       -1.15777368      -0.57816558       1.85776054
H       -0.20055839       0.95006347       1.83164790
16
Frame=2 idx=001181 GeodesicLength=0.13677799785778144 rxn_smarts="[C:1]([C:2]1([O:3][H:10])[C:4]([H:11])([H:12])[C:5]([H:13])([H:14])[C:6]1([H:15])[H:16])([H:7])([H:8])[H:9]>>[C:1](=[C:2]([O:3][H:10])[C:4]1([H:12])[C:5]([H:13])([H:14])[C:6]1([H:15])[H:16])([H:7])[H:9].[H:8][H:11]"
C        1.50338118       0.51881351      -0.33302496
C        0.56109255      -0.40130686       0.16483453
O        1.02284265      -1.63648663       0.60175109
C       -0.75090657      -0.45627473      -0.51239563
C       -1.56318097       0.65597228       0.07698378
C       -0.73388311       0.20170283       1.25174436
H        1.14541510       1.50141658      -0.61786164
H        0.91286893       0.00987986      -1.96244947
H        2.49444822       0.52925797       0.11169796
H        1.91459241      -1.75064364       0.26560198
H        0.07484540      -0.23348611      -2.09222578
H       -1.21604347      -1.44050908      -0.50917046
H       -2.63145750       0.47328632       0.12635667
H       -1.34668463       1.66094763      -0.27230032
H       -1.17494307      -0.57739319       1.86115704
H       -0.21238710       0.94482326       1.83930084
16
Frame=3 idx=001181 GeodesicLength=0.20514525641859982 rxn_smarts="[C:1]([C:2]1([O:3][H:10])[C:4]([H:11])([H:12])[C:5]([H:13])([H:14])[C:6]1([H:15])[H:16])([H:7])([H:8])[H:9]>>[C:1](=[C:2]([O:3][H:10])[C:4]1([H:12])[C:5]([H:13])([H:14])[C:6]1([H:15])[H:16])([H:7])[H:9].[H:8][H:11]"
C        1.50543491       0.51734452      -0.34365291
C        0.56803494      -0.40101652       0.17082312
O        1.03442480      -1.63405369       0.60800374
C       -0.74822565      -0.46137579      -0.50372175
C       -1.55956991       0.65834997       0.07372527
C       -0.74208667       0.19707378       1.25446972
H        1.14549927       1.50466427      -0.61019778
H        0.91152613       0.02138931      -1.96463077
H        2.49727619       0.53134169       0.09963055
H        1.91971206      -1.75545189       0.25766664
H        0.05902565      -0.24063319      -2.09097602
H       -1.21215430      -1.44567593      -0.50299706
H       -2.62954485       0.48338070       0.11384301
H       -1.33262439       1.66173107      -0.27341188
H       -1.19231865      -0.57659208       1.86440832
H       -0.22440953       0.93952378       1.84701780
16
Frame=4 idx=001181 GeodesicLength=0.27350112691662143 rxn_smarts="[C:1]([C:2]1([O:3][H:10])[C:4]([H:11])([H:12])[C:5]([H:13])([H:14])[C:6]1([H:15])[H:16])([H:7])([H:8])[H:9]>>[C:1](=[C:2]([O:3][H:10])[C:4]1([H:12])[C:5]([H:13])([H:14])[C:6]1([H:15])[H:16])([H:7])[H:9].[H:8][H:11]"
C        1.50739798       0.51594533      -0.35430721
C        0.57503793      -0.40051100       0.17682563
O        1.04608794      -1.63139857       0.61423207
C       -0.74547810      -0.46632863      -0.49503084
C       -1.55590095       0.66068430       0.07055735
C       -0.75036619       0.19238552       1.25720095
H        1.14586659       1.50775778      -0.60260592
H        0.91047803       0.03277889      -1.96687585
H        2.50011311       0.53334080       0.08729770
H        1.92461095      -1.76019817       0.24984658
H        0.04286381      -0.24790504      -2.08964283
H       -1.20812151      -1.45073033      -0.49692134
H       -2.62742155       0.49331371       0.10130000
H       -1.31864552       1.66247626      -0.27417757
H       -1.20989734      -0.57575922       1.86750543
H       -0.23662517       0.93414840       1.85479583
16
Frame=5 idx=001181 GeodesicLength=0.3418452871791209 rxn_smarts="[C:1]([C:2]1([O:3][H:10])[C:4]([H:11])([H:12])[C:5]([H:13])([H:14])[C:6]1([H:15])[H:16])([H:7])([H:8])[H:9]>>[C:1](=[C:2]([O:3][H:10])[C:4]1([H:12])[C:5]([H:13])([H:14])[C:6]1([H:15])[H:16])([H:7])[H:9].[H:8][H:11]"
C        1.50926683       0.51461900      -0.36497866
C        0.58209998      -0.39979294       0.18283418
O        1.05783100      -1.62852327       0.62042741
C       -0.74266626      -0.47113458      -0.48632618
C       -1.55217251       0.66297874       0.06748468
C       -0.75871898       0.18763302       1.25993548
H        1.14650955       1.51069986      -0.59510208
H        0.90976772       0.04406021      -1.96919560
H        2.50295084       0.53526164       0.07471793
H        1.92929333      -1.76487799       0.24215318
H        0.02632620      -0.25532532      -2.08822655
H       -1.20395040      -1.45567120      -0.49094010
H       -2.62508670       0.50309450       0.08873926
H       -1.30474591       1.66318873      -0.27459331
H       -1.22767786      -0.57489748       1.87043953
H       -0.24902683       0.92868709       1.86263083
16
Frame=6 idx=001181 GeodesicLength=0.41017775686365604 rxn_smarts="[C:1]([C:2]1([O:3][H:10])[C:4]([H:11])([H:12])[C:5]([H:13])([H:14])[C:6]1([H:15])[H:16])([H:7])([H:8])[H:9]>>[C:1](=[C:2]([O:3][H:10])[C:4]1([H:12])[C:5]([H:13])([H:14])[C:6]1([H:15])[H:16])([H:7])[H:9].[H:8][H:11]"
C        1.51103862       0.51336842      -0.37565776
C        0.58921936      -0.39886594       0.18884020
O        1.06965240      -1.62543107       0.62658023
C       -0.73979290      -0.47579518      -0.47761135
C       -1.54838297       0.66523697       0.06451178
C       -0.76714199       0.18281140       1.26267047
H        1.14741975       1.51349373      -0.58770260
H        0.90944028       0.05524598      -1.97160190
H        2.50578065       0.53711199       0.06191275
H        1.93376499      -1.76948671       0.23459809
H        0.00937619      -0.26291931      -2.08672717
H       -1.19964736      -1.46049749      -0.48504976
H       -2.62253946       0.51273292       0.07617249
H       -1.29092332       1.66387394      -0.27465552
H       -1.24565823      -0.57400930       1.87320184
H       -0.26160599       0.92312965       1.87051821
16
Frame=7 idx=001181 GeodesicLength=0.4784989010439023 rxn_smarts="[C:1]([C:2]1([O:3][H:10])[C:4]([H:11])([H:12])[C:5]([H:13])([H:14])[C:6]1([H:15])[H:16])([H:7])([H:8])[H:9]>>[C:1](=[C:2]([O:3][H:10])[C:4]1([H:12])[C:5]([H:13])([H:14])[C:6]1([H:15])[H:16])([H:7])[H:9].[H:8][H:11]"
C        1.51271112       0.51219646      -0.38633438
C        0.59639410      -0.39773438       0.19483462
O        1.08155028      -1.62212591       0.63268070
C       -0.73686106      -0.48031227      -0.46889002
C       -1.54453063       0.66746275       0.06164279
C       -0.77563200       0.17791617       1.26540277
H        1.14858822       1.51614346      -0.58042264
H        0.90954216       0.06635354      -1.97410739
H        2.50859349       0.53890028       0.04890589
H        1.93803201      -1.77402039       0.22719106
H       -0.00802470      -0.27071768      -2.08514391
H       -1.19521957      -1.46520834      -0.47924581
H       -2.61977893       0.52223949       0.06361146
H       -1.27717530       1.66453687      -0.27436168
H       -1.26383592      -0.57309622       1.87578376
H       -0.27435328       0.91746617       1.87845278
16
Frame=8 idx=001181 GeodesicLength=0.54680941214159 rxn_smarts="[C:1]([C:2]1([O:3][H:10])[C:4]([H:11])([H:12])[C:5]([H:13])([H:14])[C:6]1([H:15])[H:16])([H:7])([H:8])[H:9]>>[C:1](=[C:2]([O:3][H:10])[C:4]1([H:12])[C:5]([H:13])([H:14])[C:6]1([H:15])[H:16])([H:7])[H:9].[H:8][H:11]"
C        1.51428282       0.51110570      -0.39699807
C        0.60362190      -0.39640383       0.20080740
O        1.09352191      -1.61861327       0.63871762
C       -0.73387422      -0.48468787      -0.46016628
C       -1.54061375       0.66965990       0.05888174
C       -0.78418531       0.17294315       1.26812879
H        1.15000502       1.51865338      -0.57327741
H        0.91012302       0.07740157      -1.97672598
H        2.51137952       0.54063653       0.03572476
H        1.94210216      -1.77847487       0.21994210
H       -0.02591880      -0.27875281      -2.08347522
H       -1.19067545      -1.46980282      -0.47352332
H       -2.61680422       0.53162515       0.05106852
H       -1.26349936       1.66518216      -0.27370998
H       -1.28220733      -0.57215899       1.87817690
H       -0.28725790       0.91168693       1.88642843
16
Frame=9 idx=001181 GeodesicLength=0.6151091566084628 rxn_smarts="[C:1]([C:2]1([O:3][H:10])[C:4]([H:11])([H:12])[C:5]([H:13])([H:14])[C:6]1([H:15])[H:16])([H:7])([H:8])[H:9]>>[C:1](=[C:2]([O:3][H:10])[C:4]1([H:12])[C:5]([H:13])([H:14])[C:6]1([H:15])[H:16])([H:7])[H:9].[H:8][H:11]"
C        1.51575299       0.51009878      -0.40763780
C        0.61090027      -0.39488068       0.20674808
O        1.10556436      -1.61489935       0.64467959
C       -0.73083605      -0.48892435      -0.45144432
C       -1.53663059       0.67183222       0.05623214
C       -0.79279809       0.16788883       1.27084464
H        1.15165960       1.52102863      -0.56628065
H        0.91123504       0.08841290      -1.97947205
H        2.51412871       0.54233173       0.02239937
H        1.94598306      -1.78284713       0.21285823
H       -0.04435127      -0.28706201      -2.08171860
H       -1.18602415      -1.47428025      -0.46787626
H       -2.61361450       0.54090115       0.03855607
H       -1.24989302       1.66581385      -0.27270000
H       -1.30076805      -0.57119725       1.88037320
H       -0.30030831       0.90578293       1.89443834
16
Frame=10 idx=001181 GeodesicLength=0.68339869641308 rxn_smarts="[C:1]([C:2]1([O:3][H:10])[C:4]([H:11])([H:12])[C:5]([H:13])([H:14])[C:6]1([H:15])[H:16])([H:7])([H:8])[H:9]>>[C:1](=[C:2]([O:3][H:10])[C:4]1([H:12])[C:5]([H:13])([H:14])[C:6]1([H:15])[H:16])([H:7])[H:9].[H:8][H:11]"
C        1.51712166       0.50917836      -0.41824204
C        0.61822642      -0.39317233       0.21264542
O        1.11767422      -1.61099143       0.65055437
C       -0.72775054      -0.49302443      -0.44272856
C       -1.53257937       0.67398347       0.05369706
C       -0.80146633       0.16275008       1.27354603
H        1.15354056       1.52327505      -0.55944494
H        0.91293431       0.09941372      -1.98236100
H        2.51683099       0.54399791       0.00896213
H        1.94968332      -1.78713445       0.20594538
H       -0.06337186      -0.29568626      -2.07987039
H       -1.18127578      -1.47864025      -0.46229742
H       -2.61020896       0.55007925       0.02608636
H       -1.23635356       1.66643551      -0.27133231
H       -1.31951308      -0.57020965       1.88236484
H       -0.31349198       0.89974545       1.90247507
16
Frame=11 idx=001181 GeodesicLength=0.7516775168719587 rxn_smarts="[C:1]([C:2]1([O:3][H:10])[C:4]([H:11])([H:12])[C:5]([H:13])([H:14])[C:6]1([H:15])[H:16])([H:7])([H:8])[H:9]>>[C:1](=[C:2]([O:3][H:10])[C:4]1([H:12])[C:5]([H:13])([H:14])[C:6]1([H:15])[H:16])([H:7])[H:9].[H:8][H:11]"
C        1.51838962       0.50834733      -0.42879870
C        0.62559735      -0.39128719       0.21848771
O        1.12984786      -1.60689773       0.65632922
C       -0.72462192      -0.49699140      -0.43402359
C       -1.52845821       0.67611736       0.05127886
C       -0.81018591       0.15752450       1.27622827
H        1.15563602       1.52539941      -0.55278053
H        0.91528014       0.11043615      -1.98540893
H        2.51947646       0.54564786      -0.00455246
H        1.95321147      -1.79133512       0.19920654
H       -0.08303426      -0.30467285      -2.07792541
H       -1.17644135      -1.48288292      -0.45677793
H       -2.60658684       0.55917164       0.01367137
H       -1.22287805       1.66705000      -0.26960919
H       -1.33843676      -0.56919357       1.88414430
H       -0.32679562       0.89356654       1.91053047
16
Frame=12 idx=001181 GeodesicLength=0.819945010008009 rxn_smarts="[C:1]([C:2]1([O:3][H:10])[C:4]([H:11])([H:12])[C:5]([H:13])([H:14])[C:6]1([H:15])[H:16])([H:7])([H:8])[H:9]>>[C:1](=[C:2]([O:3][H:10])[C:4]1([H:12])[C:5]([H:13])([H:14])[C:6]1([H:15])[H:16])([H:7])[H:9].[H:8][H:11]"
C        1.51955857       0.50760855      -0.43929522
C        0.63300967      -0.38923499       0.22426214
O        1.14208089      -1.60262816       0.66198984
C       -0.72145486      -0.50082881      -0.42533444
C       -1.52426531       0.67823747       0.04897938
C       -0.81895244       0.15221022       1.27888618
H        1.15793305       1.52740881      -0.54629683
H        0.91833813       0.12151443      -1.98863294
H        2.52205507       0.54729596      -0.01810642
H        1.95657766      -1.79544737       0.19264412
H       -0.10339895      -0.31407142      -2.07587712
H       -1.17153319      -1.48700855      -0.45130783
H       -2.60274758       0.56819073       0.00132337
H       -1.20946362       1.66765969      -0.26753416
H       -1.35753238      -0.56814529       1.88570444
H       -0.34020471       0.88723876       1.91859549
16
Frame=13 idx=001181 GeodesicLength=0.8882011194277011 rxn_smarts="[C:1]([C:2]1([O:3][H:10])[C:4]([H:11])([H:12])[C:5]([H:13])([H:14])[C:6]1([H:15])[H:16])([H:7])([H:8])[H:9]>>[C:1](=[C:2]([O:3][H:10])[C:4]1([H:12])[C:5]([H:13])([H:14])[C:6]1([H:15])[H:16])([H:7])[H:9].[H:8][H:11]"
C        1.52063113       0.50696529      -0.44971839
C        0.64045976      -0.38702665       0.22995521
O        1.15436870      -1.59819381       0.66752114
C       -0.71825427      -0.50454086      -0.41666642
C       -1.51999890       0.68034719       0.04679960
C       -0.82776142       0.14680616       1.28151410
H        1.16041809       1.52931122      -0.54000086
H        0.92218018       0.13268846      -1.99205072
H        2.52455710       0.54895776      -0.03165923
H        1.95979197      -1.79947055       0.18625727
H       -0.12453311      -0.32393748      -2.07371710
H       -1.16656460      -1.49101812      -0.44587511
H       -2.59869080       0.57714913      -0.01094560
H       -1.19610738       1.66826622      -0.26511265
H       -1.37679250      -0.56705967       1.88703859
H       -0.35370396       0.88075572       1.92666017
16
Frame=14 idx=001181 GeodesicLength=0.956445352886981 rxn_smarts="[C:1]([C:2]1([O:3][H:10])[C:4]([H:11])([H:12])[C:5]([H:13])([H:14])[C:6]1([H:15])[H:16])([H:7])([H:8])[H:9]>>[C:1](=[C:2]([O:3][H:10])[C:4]1([H:12])[C:5]([H:13])([H:14])[C:6]1([H:15])[H:16])([H:7])[H:9].[H:8][H:11]"
C        1.52161083       0.50642123      -0.46005409
C        0.64794374      -0.38467409       0.23555258
O        1.16670656      -1.59360652       0.67290730
C       -0.71502536      -0.50813251      -0.40802509
C       -1.51565712       0.68244941       0.04473910
C       -0.83660817       0.14131235       1.28410558
H        1.16307775       1.53111587      -0.53389477
H        0.92688276       0.14400955      -1.99568047
H        2.52697378       0.55064851      -0.04516878
H        1.96286378      -1.80340572       0.18004150
H       -0.14651036      -0.33433671      -2.07143448
H       -1.16154984      -1.49491361      -0.44046498
H       -2.59441622       0.58605948      -0.02312424
H       -1.18280611       1.66886986      -0.26235298
H       -1.39620881      -0.56592953       1.88814048
H       -0.36727720       0.87411242       1.93471333
16
Frame=15 idx=001181 GeodesicLength=1.0246874034393807 rxn_smarts="[C:1]([C:2]1([O:3][H:10])[C:4]([H:11])([H:12])[C:5]([H:13])([H:14])[C:6]1([H:15])[H:16])([H:7])([H:8])[H:9]>>[C:1](=[C:2]([O:3][H:10])[C:4]1([H:12])[C:5]([H:13])([H:14])[C:6]1([H:15])[H:16])([H:7])[H:9].[H:8][H:11]"
C        1.52250553       0.50598196      -0.47028718
C        0.65545944      -0.38219163       0.24103966
O        1.17909301      -1.58888369       0.67813173
C       -0.71177526      -0.51161126      -0.39941610
C       -1.51124199       0.68454804       0.04279598
C       -0.84548905       0.13573074       1.28665372
H        1.16590196       1.53283726      -0.52797330
H        0.93252990       0.15554027      -1.99954045
H        2.52930448       0.55238379      -0.05859348
H        1.96580632      -1.80726030       0.17398800
H       -0.16941563      -0.34534287      -2.06901515
H       -1.15650716      -1.49870197      -0.43505903
H       -2.58993008       0.59493424      -0.03520325
H       -1.16955948       1.66947283      -0.25926883
H       -1.41577401      -0.56474668       1.88900519
H       -0.38090799       0.86730928       1.94274247
16
Frame=16 idx=001181 GeodesicLength=1.092901619749768 rxn_smarts="[C:1]([C:2]1([O:3][H:10])[C:4]([H:11])([H:12])[C:5]([H:13])([H:14])[C:6]1([H:15])[H:16])([H:7])([H:8])[H:9]>>[C:1](=[C:2]([O:3][H:10])[C:4]1([H:12])[C:5]([H:13])([H:14])[C:6]1([H:15])[H:16])([H:7])[H:9].[H:8][H:11]"
C        1.52331139       0.50564719      -0.48040305
C        0.66299626      -0.37959332       0.24639809
O        1.19150802      -1.58403469       0.68316880
C       -0.70850459      -0.51497693      -0.39084726
C       -1.50674285       0.68664067       0.04097111
C       -0.85439476       0.13006070       1.28915139
H        1.16886312       1.53446994      -0.52224670
H        0.93923834       0.16730347      -2.00365009
H        2.53152005       0.55418415      -0.07187864
H        1.96862621      -1.81101401       0.16809756
H       -0.19335346      -0.35699251      -2.06644452
H       -1.15144664      -1.50237202      -0.42964240
H       -2.58521567       0.60377710      -0.04716807
H       -1.15635855       1.67006365      -0.25586872
H       -1.43546800      -0.56349897       1.88962869
H       -0.39457889       0.86033558       1.95073381
