15
Frame=0 idx=010348 GeodesicLength=0.0 rxn_smarts="[C:1]([C@@:2]1([C:5](=[O:6])[N:7]([H:14])[H:15])[C:3]([H:11])([H:12])[N:4]1[H:13])([H:8])([H:9])[H:10]>>[C:1](/[C:2](=[N:4]\[H:13])[C@:5]1([N:7]([H:14])[H:15])[C:3]([H:11])([H:12])[O:6]1)([H:8])([H:9])[H:10]"
C       -1.03139698      -0.92201304       0.67035397
C       -0.37613326       0.29945945       0.01704769
C       -0.60364276       0.36540205      -1.46111008
N       -0.72296569       1.56115976       0.48164156
C        1.09550526      -0.06463588      -0.27903136
O        1.11803888      -0.38423145      -1.49539899
N        2.13325864      -0.01498439       0.52319999
H       -2.11570460      -0.80819406       0.60750072
H       -0.74951721      -1.86567736       0.19509618
H       -0.75397121      -0.96869588       1.72512033
H       -0.33600463       1.30952756      -1.91268352
H       -1.37026630      -0.22263806      -1.96499920
H       -1.34614318       1.46227441       1.27869437
H        1.98766663       0.40499912       1.42824505
H        3.07127646      -0.15175228       0.18632326
15
Frame=1 idx=010348 GeodesicLength=0.09661920112202799 rxn_smarts="[C:1]([C@@:2]1([C:5](=[O:6])[N:7]([H:14])[H:15])[C:3]([H:11])([H:12])[N:4]1[H:13])([H:8])([H:9])[H:10]>>[C:1](/[C:2](=[N:4]\[H:13])[C@:5]1([N:7]([H:14])[H:15])[C:3]([H:11])([H:12])[O:6]1)([H:8])([H:9])[H:10]"
C       -1.05365236      -0.94089025       0.67172917
C       -0.36808959       0.27421834       0.04691321
C       -0.58161890       0.38100095      -1.44869350
N       -0.69263716       1.54175202       0.50325549
C        1.09008533      -0.10241061      -0.27678873
O        1.10320731      -0.46485496      -1.48398165
N        2.14018429       0.01617561       0.50729839
H       -2.13426993      -0.81463470       0.57667483
H       -0.77427991      -1.88660093       0.19992271
H       -0.80508610      -0.99563878       1.73319501
H       -0.27537024       1.31209148      -1.90357028
H       -1.37774514      -0.16721142      -1.95159721
H       -1.34206430       1.45675141       1.28065410
H        1.99495316       0.48377349       1.38884699
H        3.07638354      -0.09352165       0.15614148
15
Frame=2 idx=010348 GeodesicLength=0.1925320467793096 rxn_smarts="[C:1]([C@@:2]1([C:5](=[O:6])[N:7]([H:14])[H:15])[C:3]([H:11])([H:12])[N:4]1[H:13])([H:8])([H:9])[H:10]>>[C:1](/[C:2](=[N:4]\[H:13])[C@:5]1([N:7]([H:14])[H:15])[C:3]([H:11])([H:12])[O:6]1)([H:8])([H:9])[H:10]"
C       -1.07537268      -0.95882954       0.67353873
C       -0.36019091       0.24934513       0.07782222
C       -0.55766400       0.39593058      -1.43502077
N       -0.66432995       1.52220916       0.52503391
C        1.08500043      -0.13729070      -0.27262167
O        1.08839511      -0.53935413      -1.47019815
N        2.14613764       0.04647761       0.48941080
H       -2.15109708      -0.82125869       0.54444128
H       -0.79644131      -1.90677231       0.20681165
H       -0.85787068      -1.01994113       1.74137936
H       -0.21605439       1.31295488      -1.89408984
H       -1.37959063      -0.11374450      -1.93679903
H       -1.33945660       1.45189636       1.28167004
H        2.00019803       0.55628268       1.34722701
H        3.07833702      -0.03790541       0.12139446
15
Frame=3 idx=010348 GeodesicLength=0.2878303722629185 rxn_smarts="[C:1]([C@@:2]1([C:5](=[O:6])[N:7]([H:14])[H:15])[C:3]([H:11])([H:12])[N:4]1[H:13])([H:8])([H:9])[H:10]>>[C:1](/[C:2](=[N:4]\[H:13])[C@:5]1([N:7]([H:14])[H:15])[C:3]([H:11])([H:12])[O:6]1)([H:8])([H:9])[H:10]"
C       -1.09628561      -0.97588735       0.67561291
C       -0.35238886       0.22490177       0.10956934
C       -0.53234625       0.41032060      -1.42027741
N       -0.63788474       1.50263697       0.54691372
C        1.08029147      -0.16915788      -0.26707958
O        1.07376804      -0.60792996      -1.45475489
N        2.15096659       0.07576560       0.47004231
H       -2.16581653      -0.82818491       0.51097096
H       -0.81591401      -1.92622996       0.21550841
H       -0.91174559      -1.04174624       1.74928594
H       -0.15857735       1.31252206      -1.88446647
H       -1.37686675      -0.06229578      -1.92064695
H       -1.33788142       1.44761792       1.28183677
H        2.00338473       0.62350209       1.30396396
H        3.07729627       0.01416507       0.08352099
15
Frame=4 idx=010348 GeodesicLength=0.3826885010190012 rxn_smarts="[C:1]([C@@:2]1([C:5](=[O:6])[N:7]([H:14])[H:15])[C:3]([H:11])([H:12])[N:4]1[H:13])([H:8])([H:9])[H:10]>>[C:1](/[C:2](=[N:4]\[H:13])[C@:5]1([N:7]([H:14])[H:15])[C:3]([H:11])([H:12])[O:6]1)([H:8])([H:9])[H:10]"
C       -1.11619464      -0.99211792       0.67785738
C       -0.34461782       0.20092216       0.14197383
C       -0.50614525       0.42429552      -1.40469194
N       -0.61306774       1.48316213       0.56882077
C        1.07595945      -0.19806086      -0.26065862
O        1.05942027      -0.67094887      -1.43829071
N        2.15458346       0.10383934       0.44968031
H       -2.17814733      -0.83546255       0.47648112
H       -0.83273896      -1.94504655       0.22584615
H       -0.96624764      -1.06120028       1.75665997
H       -0.10329079       1.31112906      -1.87501159
H       -1.37053128      -0.01284516      -1.90321722
H       -1.33693576       1.44391137       1.28121806
H        2.00443417       0.68589764       1.25967720
H        3.07351986       0.06252496       0.04365528
15
Frame=5 idx=010348 GeodesicLength=0.4770033271707278 rxn_smarts="[C:1]([C@@:2]1([C:5](=[O:6])[N:7]([H:14])[H:15])[C:3]([H:11])([H:12])[N:4]1[H:13])([H:8])([H:9])[H:10]>>[C:1](/[C:2](=[N:4]\[H:13])[C@:5]1([N:7]([H:14])[H:15])[C:3]([H:11])([H:12])[O:6]1)([H:8])([H:9])[H:10]"
C       -1.13496867      -1.00744927       0.68019175
C       -0.33682617       0.17743158       0.17475194
C       -0.47947936       0.43784215      -1.38849904
N       -0.58962754       1.46384486       0.59041909
C        1.07199181      -0.22407260      -0.25386446
O        1.04547301      -0.72875613      -1.42131789
N        2.15695433       0.13067070       0.42864043
H       -2.18791784      -0.84301788       0.44124096
H       -0.84704469      -1.96312467       0.23775827
H       -1.02097075      -1.07819538       1.76319843
H       -0.05051054       1.30885154      -1.86610296
H       -1.36146585       0.03450431      -1.88447084
H       -1.33592656       1.44075368       1.27992803
H        2.00307476       0.74270800       1.21560287
H        3.06724406       0.10800910       0.00252343
15
Frame=6 idx=010348 GeodesicLength=0.5711315928437977 rxn_smarts="[C:1]([C@@:2]1([C:5](=[O:6])[N:7]([H:14])[H:15])[C:3]([H:11])([H:12])[N:4]1[H:13])([H:8])([H:9])[H:10]>>[C:1](/[C:2](=[N:4]\[H:13])[C@:5]1([N:7]([H:14])[H:15])[C:3]([H:11])([H:12])[O:6]1)([H:8])([H:9])[H:10]"
C       -1.15262669      -1.02197050       0.68257100
C       -0.32892028       0.15435560       0.20783349
C       -0.45255824       0.45102750      -1.37193188
N       -0.56721553       1.44477345       0.61171847
C        1.06833097      -0.24762384      -0.24691848
O        1.03186502      -0.78213865      -1.40417036
N        2.15814521       0.15603607       0.40735522
H       -2.19506931      -0.85078929       0.40536149
H       -0.85919105      -1.98064653       0.25113184
H       -1.07578962      -1.09292234       1.76879988
H       -0.00013364       1.30583971      -1.85800357
H       -1.35030975       0.07998170      -1.86462308
H       -1.33447670       1.43819426       1.27810219
H        1.99947232       0.79422073       1.17242840
H        3.05847727       0.15166212      -0.03965462
15
Frame=7 idx=010348 GeodesicLength=0.6651014305309837 rxn_smarts="[C:1]([C@@:2]1([C:5](=[O:6])[N:7]([H:14])[H:15])[C:3]([H:11])([H:12])[N:4]1[H:13])([H:8])([H:9])[H:10]>>[C:1](/[C:2](=[N:4]\[H:13])[C@:5]1([N:7]([H:14])[H:15])[C:3]([H:11])([H:12])[O:6]1)([H:8])([H:9])[H:10]"
C       -1.16914474      -1.03573477       0.68491359
C       -0.32085679       0.13165970       0.24118647
C       -0.42561542       0.46400768      -1.35495558
N       -0.54571534       1.42581414       0.63272861
C        1.06490424      -0.26876514      -0.24003854
O        1.01857158      -0.83127134      -1.38702466
N        2.15820703       0.18007959       0.38599251
H       -2.19950340      -0.85890609       0.36892070
H       -0.86934063      -1.99754476       0.26588290
H       -1.13063853      -1.10557675       1.77316061
H        0.04783009       1.30227058      -1.85064782
H       -1.33757766       0.12375579      -1.84350152
H       -1.33262419       1.43594366       1.27562914
H        1.99393955       0.84171799       1.12976423
H        3.04756421       0.19254973      -0.08201064
15
Frame=8 idx=010348 GeodesicLength=0.7590472432675723 rxn_smarts="[C:1]([C@@:2]1([C:5](=[O:6])[N:7]([H:14])[H:15])[C:3]([H:11])([H:12])[N:4]1[H:13])([H:8])([H:9])[H:10]>>[C:1](/[C:2](=[N:4]\[H:13])[C@:5]1([N:7]([H:14])[H:15])[C:3]([H:11])([H:12])[O:6]1)([H:8])([H:9])[H:10]"
C       -1.18448548      -1.04872808       0.68723172
C       -0.31260227       0.10934379       0.27462789
C       -0.39886368       0.47676430      -1.33795333
N       -0.52497142       1.40712863       0.65321438
C        1.06165523      -0.28777528      -0.23347998
O        1.00560796      -0.87673768      -1.37021663
N        2.15720181       0.20278905       0.36483527
H       -2.20119124      -0.86726490       0.33215844
H       -0.87771144      -2.01388420       0.28196179
H       -1.18520427      -1.11610280       1.77626071
H        0.09329056       1.29813729      -1.84453408
H       -1.32379297       0.16587935      -1.82140838
H       -1.32986610       1.43412097       1.27282738
H        1.98643652       0.88449882       1.08889350
H        3.03449680       0.23183074      -0.12441869
15
Frame=9 idx=010348 GeodesicLength=0.8530011428511107 rxn_smarts="[C:1]([C@@:2]1([C:5](=[O:6])[N:7]([H:14])[H:15])[C:3]([H:11])([H:12])[N:4]1[H:13])([H:8])([H:9])[H:10]>>[C:1](/[C:2](=[N:4]\[H:13])[C@:5]1([N:7]([H:14])[H:15])[C:3]([H:11])([H:12])[O:6]1)([H:8])([H:9])[H:10]"
C       -1.19865865      -1.06097186       0.68949154
C       -0.30412258       0.08738246       0.30809114
C       -0.37243814       0.48936442      -1.32102503
N       -0.50486187       1.38868397       0.67310027
C        1.05849366      -0.30480032      -0.22739394
O        0.99291392      -0.91885899      -1.35386713
N        2.15519325       0.22423543       0.34403492
H       -2.20011880      -0.87590965       0.29522067
H       -0.88452343      -2.02963781       0.29930198
H       -1.23934959      -1.12458241       1.77793144
H        0.13629615       1.29347398      -1.83975195
H       -1.30931717       0.20649434      -1.79835808
H       -1.32611750       1.43259404       1.26972392
H        1.97719003       0.92300855       1.05000181
H        3.01942075       0.26952384      -0.16650157
15
Frame=10 idx=010348 GeodesicLength=0.9470163239559007 rxn_smarts="[C:1]([C@@:2]1([C:5](=[O:6])[N:7]([H:14])[H:15])[C:3]([H:11])([H:12])[N:4]1[H:13])([H:8])([H:9])[H:10]>>[C:1](/[C:2](=[N:4]\[H:13])[C@:5]1([N:7]([H:14])[H:15])[C:3]([H:11])([H:12])[O:6]1)([H:8])([H:9])[H:10]"
C       -1.21167600      -1.07248612       0.69168368
C       -0.29539306       0.06575637       0.34151635
C       -0.34644888       0.50186700      -1.30431488
N       -0.48530264       1.37048108       0.69231131
C        1.05532907      -0.32000625      -0.22189300
O        0.98043498      -0.95796649      -1.33808874
N        2.15224585       0.24449760       0.32370997
H       -2.19628995      -0.88485475       0.25825586
H       -0.88998256      -2.04479919       0.31784364
H       -1.29292575      -1.13108591       1.77807461
H        0.17688132       1.28830397      -1.83643215
H       -1.29443796       0.24572188      -1.77444879
H       -1.32130682       1.43128315       1.26640154
H        1.96641028       0.95752902       1.01336756
H        3.00246212       0.30575866      -0.20798696
15
Frame=11 idx=010348 GeodesicLength=1.04112865847941 rxn_smarts="[C:1]([C@@:2]1([C:5](=[O:6])[N:7]([H:14])[H:15])[C:3]([H:11])([H:12])[N:4]1[H:13])([H:8])([H:9])[H:10]>>[C:1](/[C:2](=[N:4]\[H:13])[C@:5]1([N:7]([H:14])[H:15])[C:3]([H:11])([H:12])[O:6]1)([H:8])([H:9])[H:10]"
C       -1.22356563      -1.08328709       0.69380065
C       -0.28639596       0.04444296       0.37485494
C       -0.32096956       0.51432117      -1.28794989
N       -0.46623129       1.35251002       0.71078003
C        1.05207100      -0.33355505      -0.21704846
O        0.96811287      -0.99436844      -1.32294705
N        2.14842585       0.26365720       0.30394409
H       -2.18973325      -0.89411422       0.22139625
H       -0.89429748      -2.05935635       0.33752729
H       -1.34580435      -1.13566862       1.77660438
H        0.21510207       1.28262988      -1.83466365
H       -1.27937137       0.28367368      -1.74978205
H       -1.31539218       1.43010298       1.26295517
H        1.95431701       0.98832477       0.97920407
H        2.98373227       0.34068711      -0.24867577
15
Frame=12 idx=010348 GeodesicLength=1.1353778409567945 rxn_smarts="[C:1]([C@@:2]1([C:5](=[O:6])[N:7]([H:14])[H:15])[C:3]([H:11])([H:12])[N:4]1[H:13])([H:8])([H:9])[H:10]>>[C:1](/[C:2](=[N:4]\[H:13])[C@:5]1([N:7]([H:14])[H:15])[C:3]([H:11])([H:12])[O:6]1)([H:8])([H:9])[H:10]"
C       -1.23436547      -1.09339233       0.69584759
C       -0.27711870       0.02342233       0.40808050
C       -0.29604506       0.52677897      -1.27205091
N       -0.44760923       1.33476506       0.72847252
C        1.04864018      -0.34560227      -0.21290476
O        0.95589539      -1.02835524      -1.30849075
N        2.14381116       0.28178224       0.28479676
H       -2.18050585      -0.90370126       0.18478333
H       -0.89766965      -2.07330129       0.35828285
H       -1.39785115      -1.13841123       1.77347582
H        0.25103601       1.27643782      -1.83452808
H       -1.26428685       0.32048439      -1.72446437
H       -1.30841833       1.42898876       1.25944755
H        1.94113437       1.01565328       0.94767347
H        2.96335318       0.37445076      -0.28842151
15
Frame=13 idx=010348 GeodesicLength=1.2299019857355824 rxn_smarts="[C:1]([C@@:2]1([C:5](=[O:6])[N:7]([H:14])[H:15])[C:3]([H:11])([H:12])[N:4]1[H:13])([H:8])([H:9])[H:10]>>[C:1](/[C:2](=[N:4]\[H:13])[C@:5]1([N:7]([H:14])[H:15])[C:3]([H:11])([H:12])[O:6]1)([H:8])([H:9])[H:10]"
C       -1.24414406      -1.10285102       0.69784057
C       -0.26754585       0.00266239       0.44117623
C       -0.27162812       0.53929114      -1.25670289
N       -0.42935602       1.31724186       0.74534662
C        1.04492654      -0.35629706      -0.20947253
O        0.94369639      -1.06020884      -1.29470190
N        2.13841657       0.29896257       0.26628040
H       -2.16867297      -0.91362558       0.14861482
H       -0.90038508      -2.08666646       0.38001927
H       -1.44894097      -1.13947017       1.76866586
H        0.28486971       1.26970366      -1.83607792
H       -1.24920939       0.35630825      -1.69855767
H       -1.30039823       1.42788423       1.25588026
H        1.92704740       1.03975832       0.91886017
H        2.94132409       0.40730670      -0.32717129
15
Frame=14 idx=010348 GeodesicLength=1.3245299373879025 rxn_smarts="[C:1]([C@@:2]1([C:5](=[O:6])[N:7]([H:14])[H:15])[C:3]([H:11])([H:12])[N:4]1[H:13])([H:8])([H:9])[H:10]>>[C:1](/[C:2](=[N:4]\[H:13])[C@:5]1([N:7]([H:14])[H:15])[C:3]([H:11])([H:12])[O:6]1)([H:8])([H:9])[H:10]"
C       -1.25287998      -1.11158966       0.69970374
C       -0.25766226      -0.01787885       0.47411517
C       -0.24781013       0.55187797      -1.24189295
N       -0.41150917       1.29978669       0.76137364
C        1.04087189      -0.36576260      -0.20669292
O        0.93145690      -1.09006735      -1.28148661
N        2.13233381       0.31522391       0.24842484
H       -2.15420002      -0.92392240       0.11275899
H       -0.90243996      -2.09929403       0.40276508
H       -1.49905472      -1.13864373       1.76195272
H        0.31651596       1.26239003      -1.83911020
H       -1.23428954       0.39119362      -1.67209665
H       -1.29136140       1.42657343       1.25239139
H        1.91227579       1.06095416       0.89259498
H        2.91775283       0.43915882      -0.36480121
15
Frame=15 idx=010348 GeodesicLength=1.419453937776415 rxn_smarts="[C:1]([C@@:2]1([C:5](=[O:6])[N:7]([H:14])[H:15])[C:3]([H:11])([H:12])[N:4]1[H:13])([H:8])([H:9])[H:10]>>[C:1](/[C:2](=[N:4]\[H:13])[C@:5]1([N:7]([H:14])[H:15])[C:3]([H:11])([H:12])[O:6]1)([H:8])([H:9])[H:10]"
C       -1.26069403      -1.11971613       0.70152282
C       -0.24749846      -0.03818505       0.50689028
C       -0.22452102       0.56461408      -1.22780898
N       -0.39406554       1.28252759       0.77655954
C        1.03639407      -0.37408845      -0.20462479
O        0.91916957      -1.11818225      -1.26897089
N        2.12560315       0.33068226       0.23124214
H       -2.13730930      -0.93457793       0.07761418
H       -0.90419936      -2.11131648       0.42628757
H       -1.54793656      -1.13628475       1.75354673
H        0.34618839       1.25454622      -1.84380415
H       -1.21949629       0.42521516      -1.64528897
H       -1.28147235       1.42514493       1.24902854
H        1.89697895       1.07953120       0.86897002
H        2.89285878       0.47008959      -0.40116403
15
Frame=16 idx=010348 GeodesicLength=1.5146097808110282 rxn_smarts="[C:1]([C@@:2]1([C:5](=[O:6])[N:7]([H:14])[H:15])[C:3]([H:11])([H:12])[N:4]1[H:13])([H:8])([H:9])[H:10]>>[C:1](/[C:2](=[N:4]\[H:13])[C@:5]1([N:7]([H:14])[H:15])[C:3]([H:11])([H:12])[O:6]1)([H:8])([H:9])[H:10]"
C       -1.26754407      -1.12718066       0.70327854
C       -0.23704600      -0.05825638       0.53944591
C       -0.20179356       0.57753128      -1.21450072
N       -0.37703931       1.26539822       0.79080661
C        1.03138680      -0.38134504      -0.20323312
O        0.90677137      -1.14464825      -1.25707352
N        2.11819533       0.34534311       0.21478014
H       -2.11807297      -0.94545467       0.04338656
H       -0.90577194      -2.12260332       0.45039288
H       -1.59519753      -1.13249602       1.74344366
H        0.37386065       1.24612029      -1.85009593
H       -1.20485630       0.45840260      -1.61822931
H       -1.27081120       1.42350599       1.24568039
H        1.88124581       1.09557933       0.84798893
H        2.86667293       0.50010352      -0.43607104
