11
Frame=0 idx=003642 GeodesicLength=0.0 rxn_smarts="[O:1]=[C:2]1[C:3]([H:7])([H:8])[C@@:4]2([H:9])[N:5]([H:10])[C@@:6]12[H:11]>>[O-:1][C:2]1=[C:6]2[C@@:4]([H:9])([C:3]1([H:7])[H:8])[N+:5]2([H:10])[H:11]"
O        1.14344457      -0.46937764       2.04509835
C        0.69076263      -0.10042121       1.00896401
C        0.83430794      -0.58595816      -0.45037347
C       -0.19309993       0.48771898      -0.78458657
N       -1.43494791       0.17860981      -0.11293260
C       -0.16619883       1.11202052       0.59643093
H        1.83476593      -0.33945787      -0.80878132
H        0.60686030      -1.62185950      -0.70696867
H       -0.27492389       1.01080447      -1.72867213
H       -1.47436221      -0.73207258       0.33173993
H       -1.56660863       1.05999320       0.61008155
11
Frame=1 idx=003642 GeodesicLength=0.05202455750631781 rxn_smarts="[O:1]=[C:2]1[C:3]([H:7])([H:8])[C@@:4]2([H:9])[N:5]([H:10])[C@@:6]12[H:11]>>[O-:1][C:2]1=[C:6]2[C@@:4]([H:9])([C:3]1([H:7])[H:8])[N+:5]2([H:10])[H:11]"
O        1.15110182      -0.46617215       2.04373122
C        0.69187019      -0.10182826       1.00870864
C        0.83624430      -0.58737105      -0.45079581
C       -0.19150909       0.48548901      -0.78581216
N       -1.43101262       0.17939371      -0.10905158
C       -0.17416201       1.10289528       0.59854376
H        1.83695230      -0.34133395      -0.80885911
H        0.60837340      -1.62337839      -0.70688654
H       -0.27352859       1.01219717      -1.72776571
H       -1.47790850      -0.73536446       0.32604297
H       -1.57642119       1.07547309       0.61214430
11
Frame=2 idx=003642 GeodesicLength=0.10404822657972482 rxn_smarts="[O:1]=[C:2]1[C:3]([H:7])([H:8])[C@@:4]2([H:9])[N:5]([H:10])[C@@:6]12[H:11]>>[O-:1][C:2]1=[C:6]2[C@@:4]([H:9])([C:3]1([H:7])[H:8])[N+:5]2([H:10])[H:11]"
O        1.15879966      -0.46281406       2.04234797
C        0.69294713      -0.10323023       1.00848039
C        0.83815434      -0.58878478      -0.45118975
C       -0.18998017       0.48323788      -0.78696728
N       -1.42718438       0.18007834      -0.10517586
C       -0.18212027       1.09370790       0.60067861
H        1.83909775      -0.34318776      -0.80893160
H        0.60988182      -1.62490450      -0.70676667
H       -0.27217575       1.01360352      -1.72675442
H       -1.48153445      -0.73871282       0.32007434
H       -1.58588569       1.09100651       0.61420428
11
Frame=3 idx=003642 GeodesicLength=0.15606691486492164 rxn_smarts="[O:1]=[C:2]1[C:3]([H:7])([H:8])[C@@:4]2([H:9])[N:5]([H:10])[C@@:6]12[H:11]>>[O-:1][C:2]1=[C:6]2[C@@:4]([H:9])([C:3]1([H:7])[H:8])[N+:5]2([H:10])[H:11]"
O        1.16650869      -0.45931368       2.04094964
C        0.69399495      -0.10461975       1.00827571
C        0.84004030      -0.59019632      -0.45155750
C       -0.18851416       0.48096498      -0.78805741
N       -1.42346242       0.18065237      -0.10131570
C       -0.19007175       1.08446285       0.60282639
H        1.84120439      -0.34501400      -0.80900002
H        0.61139109      -1.62643574      -0.70661047
H       -0.27086834       1.01501706      -1.72564631
H       -1.48523307      -0.74210970       0.31385010
H       -1.59498966       1.10659194       0.61628556
11
Frame=4 idx=003642 GeodesicLength=0.20807891051286842 rxn_smarts="[O:1]=[C:2]1[C:3]([H:7])([H:8])[C@@:4]2([H:9])[N:5]([H:10])[C@@:6]12[H:11]>>[O-:1][C:2]1=[C:6]2[C@@:4]([H:9])([C:3]1([H:7])[H:8])[N+:5]2([H:10])[H:11]"
O        1.17419812      -0.45568294       2.03953802
C        0.69501565      -0.10598846       1.00809062
C        0.84190486      -0.59160255      -0.45190144
C       -0.18711184       0.47866951      -0.78908883
N       -1.41984557       0.18110497      -0.09748128
C       -0.19801514       1.07516466       0.60497735
H        1.84327478      -0.34680719      -0.80906558
H        0.61290721      -1.62797009      -0.70641919
H       -0.26960982       1.01643065      -1.72445053
H       -1.48899687      -0.74554765       0.30738713
H       -1.60372139       1.12222909       0.61841373
11
Frame=5 idx=003642 GeodesicLength=0.26007732703303593 rxn_smarts="[O:1]=[C:2]1[C:3]([H:7])([H:8])[C@@:4]2([H:9])[N:5]([H:10])[C@@:6]12[H:11]>>[O-:1][C:2]1=[C:6]2[C@@:4]([H:9])([C:3]1([H:7])[H:8])[N+:5]2([H:10])[H:11]"
O        1.18183689      -0.45193458       2.03811604
C        0.69601150      -0.10732724       1.00792095
C        0.84375092      -0.59300018      -0.45222406
C       -0.18577376       0.47635065      -0.79006846
N       -1.41633318       0.18142634      -0.09368256
C       -0.20595008       1.06581777       0.60712122
H        1.84531186      -0.34856174      -0.80912950
H        0.61443634      -1.62950548      -0.70619410
H       -0.26840377       1.01783692      -1.72317709
H       -1.49281844      -0.74901950       0.30070293
H       -1.61206828       1.13791704       0.62061463
11
Frame=6 idx=003642 GeodesicLength=0.3120439048324319 rxn_smarts="[O:1]=[C:2]1[C:3]([H:7])([H:8])[C@@:4]2([H:9])[N:5]([H:10])[C@@:6]12[H:11]>>[O-:1][C:2]1=[C:6]2[C@@:4]([H:9])([C:3]1([H:7])[H:8])[N+:5]2([H:10])[H:11]"
O        1.18939396      -0.44808368       2.03669043
C        0.69698626      -0.10862540       1.00776323
C        0.84558239      -0.59438612      -0.45252839
C       -0.18450110       0.47400790      -0.79100419
N       -1.41292709       0.18160914      -0.08993019
C       -0.21387780       1.05642783       0.60924747
H        1.84731998      -0.35027212      -0.80919306
H        0.61598606      -1.63104117      -0.70593776
H       -0.26725567       1.01922786      -1.72183796
H       -1.49669125      -0.75251734       0.29381606
H       -1.62001574       1.15365310       0.62291435
11
Frame=7 idx=003642 GeodesicLength=0.36401359523616267 rxn_smarts="[O:1]=[C:2]1[C:3]([H:7])([H:8])[C@@:4]2([H:9])[N:5]([H:10])[C@@:6]12[H:11]>>[O-:1][C:2]1=[C:6]2[C@@:4]([H:9])([C:3]1([H:7])[H:8])[N+:5]2([H:10])[H:11]"
O        1.19682284      -0.44416674       2.03525046
C        0.69794819      -0.10987220       1.00760716
C        0.84740173      -0.59575309      -0.45281682
C       -0.18329098       0.47164121      -0.79189830
N       -1.40960601       0.18163524      -0.08622700
C       -0.22178277       1.04700017       0.61134920
H        1.84929912      -0.35192991      -0.80926222
H        0.61755908      -1.63256628      -0.70564694
H       -0.26616882       1.02059459      -1.72043830
H       -1.50058968      -0.75604240       0.28677399
H       -1.62759271       1.16945939       0.62530876
11
Frame=8 idx=003642 GeodesicLength=0.4159584384734244 rxn_smarts="[O:1]=[C:2]1[C:3]([H:7])([H:8])[C@@:4]2([H:9])[N:5]([H:10])[C@@:6]12[H:11]>>[O-:1][C:2]1=[C:6]2[C@@:4]([H:9])([C:3]1([H:7])[H:8])[N+:5]2([H:10])[H:11]"
O        1.20414833      -0.44015365       2.03381002
C        0.69888175      -0.11107315       1.00746026
C        0.84920869      -0.59710493      -0.45308962
C       -0.18214688       0.46924933      -0.79275843
N       -1.40639164       0.18150215      -0.08259020
C       -0.22969021       1.03752828       0.61342332
H        1.85125281      -0.35353733      -0.80932748
H        0.61916284      -1.63409021      -0.70532843
H       -0.26514164       1.02194031      -1.71898656
H       -1.50453480      -0.75959329       0.27954747
H       -1.63474925       1.18533251       0.62783965
11
Frame=9 idx=003642 GeodesicLength=0.46784364276645046 rxn_smarts="[O:1]=[C:2]1[C:3]([H:7])([H:8])[C@@:4]2([H:9])[N:5]([H:10])[C@@:6]12[H:11]>>[O-:1][C:2]1=[C:6]2[C@@:4]([H:9])([C:3]1([H:7])[H:8])[N+:5]2([H:10])[H:11]"
O        1.21138426      -0.43602101       2.03236153
C        0.69977708      -0.11223426       1.00732052
C        0.85100108      -0.59844459      -0.45334564
C       -0.18106630       0.46683084      -0.79358661
N       -1.40328525       0.18121198      -0.07903390
C       -0.23760444       1.02800484       0.61546797
H        1.85318038      -0.35509985      -0.80938552
H        0.62079390      -1.63561356      -0.70497950
H       -0.26416033       1.02326995      -1.71747766
H       -1.50853263      -0.76316204       0.27213129
H       -1.64148775       1.20125772       0.63052752
11
Frame=10 idx=003642 GeodesicLength=0.5197474704401335 rxn_smarts="[O:1]=[C:2]1[C:3]([H:7])([H:8])[C@@:4]2([H:9])[N:5]([H:10])[C@@:6]12[H:11]>>[O-:1][C:2]1=[C:6]2[C@@:4]([H:9])([C:3]1([H:7])[H:8])[N+:5]2([H:10])[H:11]"
O        1.21848261      -0.43180886       2.03090564
C        0.70064205      -0.11334528       1.00718029
C        0.85278451      -0.59976639      -0.45358830
C       -0.18004834       0.46438338      -0.79438876
N       -1.40027432       0.18074320      -0.07556005
C       -0.24551709       1.01843298       0.61747417
H        1.85508381      -0.35659964      -0.80944107
H        0.62246469      -1.63713309      -0.70460164
H       -0.26323697       1.02457022      -1.71592410
H       -1.51256088      -0.76676036       0.26456374
H       -1.64782008       1.21728385       0.63338008
11
Frame=11 idx=003642 GeodesicLength=0.5716363742628956 rxn_smarts="[O:1]=[C:2]1[C:3]([H:7])([H:8])[C@@:4]2([H:9])[N:5]([H:10])[C@@:6]12[H:11]>>[O-:1][C:2]1=[C:6]2[C@@:4]([H:9])([C:3]1([H:7])[H:8])[N+:5]2([H:10])[H:11]"
O        1.22546159      -0.42749497       2.02944497
C        0.70146406      -0.11441394       1.00704340
C        0.85455849      -0.60107272      -0.45381796
C       -0.17909473       0.46190443      -0.79516673
N       -1.39736867       0.18009062      -0.07217775
C       -0.25344579       1.00880334       0.61944297
H        1.85696426      -0.35803952      -0.80949128
H        0.62418118      -1.63865127      -0.70419742
H       -0.26236713       1.02584718      -1.71432410
H       -1.51663246      -0.77038619       0.25683354
H       -1.65372079       1.23341304       0.63641036
11
Frame=12 idx=003642 GeodesicLength=0.623511815715484 rxn_smarts="[O:1]=[C:2]1[C:3]([H:7])([H:8])[C@@:4]2([H:9])[N:5]([H:10])[C@@:6]12[H:11]>>[O-:1][C:2]1=[C:6]2[C@@:4]([H:9])([C:3]1([H:7])[H:8])[N+:5]2([H:10])[H:11]"
O        1.23233507      -0.42305764       2.02797551
C        0.70223265      -0.11544638       1.00691063
C        0.85632083      -0.60236669      -0.45403377
C       -0.17820470       0.45939293      -0.79592616
N       -1.39457143       0.17925197      -0.06890353
C       -0.26139731       0.99910913       0.62137119
H        1.85882241      -0.35942370      -0.80952780
H        0.62594146      -1.64017265      -0.70376722
H       -0.26154219       1.02710832      -1.71267776
H       -1.52074961      -0.77404510       0.24893433
H       -1.65918720       1.24964981       0.63964457
11
Frame=13 idx=003642 GeodesicLength=0.67537947936011 rxn_smarts="[O:1]=[C:2]1[C:3]([H:7])([H:8])[C@@:4]2([H:9])[N:5]([H:10])[C@@:6]12[H:11]>>[O-:1][C:2]1=[C:6]2[C@@:4]([H:9])([C:3]1([H:7])[H:8])[N+:5]2([H:10])[H:11]"
O        1.23911454      -0.41848406       2.02649551
C        0.70294023      -0.11644843       1.00678404
C        0.85807031      -0.60364906      -0.45423505
C       -0.17737896       0.45684866      -0.79666864
N       -1.39188516       0.17821670      -0.06574411
C       -0.26938000       0.98934236       0.62325996
H        1.86065927      -0.36075185      -0.80954424
H        0.62774621      -1.64169865      -0.70331293
H       -0.26076066       1.02835698      -1.71098599
H       -1.52491567      -0.77774671       0.24085883
H       -1.66421012       1.26601406       0.64309262
11
Frame=14 idx=003642 GeodesicLength=0.7272566100991715 rxn_smarts="[O:1]=[C:2]1[C:3]([H:7])([H:8])[C@@:4]2([H:9])[N:5]([H:10])[C@@:6]12[H:11]>>[O-:1][C:2]1=[C:6]2[C@@:4]([H:9])([C:3]1([H:7])[H:8])[N+:5]2([H:10])[H:11]"
O        1.24581414      -0.41375364       2.02499740
C        0.70357183      -0.11743035       1.00666407
C        0.85980557      -0.60492117      -0.45442045
C       -0.17661733       0.45426790      -0.79739245
N       -1.38931305       0.17697470      -0.06270582
C       -0.27740787       0.97948900       0.62511008
H        1.86247337      -0.36202168      -0.80953576
H        0.62959934      -1.64322805      -0.70283627
H       -0.26001694       1.02959145      -1.70924219
H       -1.52913483      -0.78149708       0.23259464
H       -1.66877423       1.28252893       0.64676674
11
Frame=15 idx=003642 GeodesicLength=0.7791114470835296 rxn_smarts="[O:1]=[C:2]1[C:3]([H:7])([H:8])[C@@:4]2([H:9])[N:5]([H:10])[C@@:6]12[H:11]>>[O-:1][C:2]1=[C:6]2[C@@:4]([H:9])([C:3]1([H:7])[H:8])[N+:5]2([H:10])[H:11]"
O        1.25237858      -0.40889132       2.02348298
C        0.70413474      -0.11837195       1.00654103
C        0.86153041      -0.60617662      -0.45459469
C       -0.17591982       0.45164869      -0.79810726
N       -1.38685130       0.17552468      -0.05979561
C       -0.28547997       0.96955499       0.62690825
H        1.86426800      -0.36322900      -0.80950628
H        0.63151235      -1.64475577      -0.70233428
H       -0.25931952       1.03080037      -1.70745942
H       -1.53339016      -0.78529258       0.22417245
H       -1.67286330       1.29918852       0.65069283
11
Frame=16 idx=003642 GeodesicLength=0.8309654585244893 rxn_smarts="[O:1]=[C:2]1[C:3]([H:7])([H:8])[C@@:4]2([H:9])[N:5]([H:10])[C@@:6]12[H:11]>>[O-:1][C:2]1=[C:6]2[C@@:4]([H:9])([C:3]1([H:7])[H:8])[N+:5]2([H:10])[H:11]"
O        1.25883433      -0.40387988       2.02195885
C        0.70461992      -0.11928651       1.00642320
C        0.86324444      -0.60741869      -0.45475560
C       -0.17529127       0.44898933      -0.79881561
N       -1.38450783       0.17385146      -0.05702056
C       -0.29360855       0.95952970       0.62865717
H        1.86604437      -0.36436642      -0.80944813
H        0.63348738      -1.64629007      -0.70181087
H       -0.25867218       1.03199302      -1.70563832
H       -1.53769165      -0.78915346       0.21557462
H       -1.67645895       1.31603151       0.65487525
