15
Frame=0 idx=009044 GeodesicLength=0.0 rxn_smarts="[N:1]([C@@:2]([C:3]#[N:4])([C:5]1([H:11])[C:6]([H:12])([H:13])[C:7]1([H:14])[H:15])[H:10])([H:8])[H:9]>>[N:1]([C@@:2]1([H:10])[C:3][N:4]([H:15])[C@:7]2([H:14])[C@@:5]1([H:11])[C:6]2([H:12])[H:13])([H:8])[H:9]"
N        2.03205304       0.12096822      -0.61792964
C        1.02882841      -0.51073406       0.19841964
C        0.73930931       0.12566934       1.55204482
N       -0.38269193       0.32351751       1.92747351
C       -0.33583885      -0.60665154      -0.52186095
C       -1.10201039       0.65559455      -0.83809593
C       -1.54177585      -0.29033688       0.22060303
H        2.92660895       0.14843622      -0.14955938
H        1.76324933       1.06746670      -0.85066787
H        1.37234684      -1.52494178       0.43081094
H       -0.35351449      -1.41372208      -1.24512936
H       -0.67504295       1.60492057      -0.52208302
H       -1.63293517       0.71427192      -1.78267214
H       -2.45587821      -0.87130761       0.19575244
H       -1.38270809       0.45684889       2.00289385
15
Frame=1 idx=009044 GeodesicLength=0.1317442746821776 rxn_smarts="[N:1]([C@@:2]([C:3]#[N:4])([C:5]1([H:11])[C:6]([H:12])([H:13])[C:7]1([H:14])[H:15])[H:10])([H:8])[H:9]>>[N:1]([C@@:2]1([H:10])[C:3][N:4]([H:15])[C@:7]2([H:14])[C@@:5]1([H:11])[C:6]2([H:12])[H:13])([H:8])[H:9]"
N        2.04701609       0.09742139      -0.61768814
C        1.02715258      -0.50361301       0.20228732
C        0.75222805       0.15944147       1.54447986
N       -0.36844752       0.35266767       1.92976262
C       -0.33065037      -0.59133652      -0.52590199
C       -1.11560970       0.66088769      -0.83021192
C       -1.53798886      -0.29586735       0.22719700
H        2.93781990       0.12183464      -0.14191145
H        1.79195413       1.04239737      -0.87148016
H        1.35350178      -1.51878854       0.45487094
H       -0.34259873      -1.38242197      -1.26697099
H       -0.71164162       1.61833378      -0.51026543
H       -1.65501807       0.71713606      -1.76989729
H       -2.44146536      -0.89283360       0.19201705
H       -1.40625230       0.41474091       1.98371259
15
Frame=2 idx=009044 GeodesicLength=0.2634568171990822 rxn_smarts="[N:1]([C@@:2]([C:3]#[N:4])([C:5]1([H:11])[C:6]([H:12])([H:13])[C:7]1([H:14])[H:15])[H:10])([H:8])[H:9]>>[N:1]([C@@:2]1([H:10])[C:3][N:4]([H:15])[C@:7]2([H:14])[C@@:5]1([H:11])[C:6]2([H:12])[H:13])([H:8])[H:9]"
N        2.06188953       0.07328278      -0.61662319
C        1.02524739      -0.49606987       0.20600935
C        0.76470656       0.19350793       1.53607562
N       -0.35457897       0.38239751       1.93120836
C       -0.32545893      -0.57531675      -0.53047364
C       -1.12975987       0.66613793      -0.82246714
C       -1.53404953      -0.30172692       0.23327528
H        2.94864846       0.09460889      -0.13305967
H        1.82130880       1.01618427      -0.89169366
H        1.33386627      -1.51164704       0.47897558
H       -0.33156307      -1.35009862      -1.28886085
H       -0.75012062       1.63139101      -0.49797292
H       -1.67763803       0.71959562      -1.75718786
H       -2.42636897      -0.91468073       0.18773580
H       -1.42612903       0.37243399       1.96505894
15
Frame=3 idx=009044 GeodesicLength=0.39507946969840757 rxn_smarts="[N:1]([C@@:2]([C:3]#[N:4])([C:5]1([H:11])[C:6]([H:12])([H:13])[C:7]1([H:14])[H:15])[H:10])([H:8])[H:9]>>[N:1]([C@@:2]1([H:10])[C:3][N:4]([H:15])[C@:7]2([H:14])[C@@:5]1([H:11])[C:6]2([H:12])[H:13])([H:8])[H:9]"
N        2.07664195       0.04854565      -0.61476214
C        1.02316258      -0.48812726       0.20951512
C        0.77682999       0.22779326       1.52679819
N       -0.34095925       0.41246920       1.93191195
C       -0.32024070      -0.55856402      -0.53555423
C       -1.14444810       0.67131994      -0.81477281
C       -1.52988013      -0.30793653       0.23888261
H        2.95905826       0.06675493      -0.12306210
H        1.85129702       0.98879040      -0.91124462
H        1.31352076      -1.50350708       0.50296559
H       -0.32040300      -1.31668918      -1.31082478
H       -0.79047484       1.64394652      -0.48506016
H       -1.70077873       0.72162256      -1.74444623
H       -2.41049210      -0.93685069       0.18293392
H       -1.44283370       0.33043228       1.94671969
15
Frame=4 idx=009044 GeodesicLength=0.5266204062146849 rxn_smarts="[N:1]([C@@:2]([C:3]#[N:4])([C:5]1([H:11])[C:6]([H:12])([H:13])[C:7]1([H:14])[H:15])[H:10])([H:8])[H:9]>>[N:1]([C@@:2]1([H:10])[C:3][N:4]([H:15])[C@:7]2([H:14])[C@@:5]1([H:11])[C:6]2([H:12])[H:13])([H:8])[H:9]"
N        2.09125514       0.02318425      -0.61213290
C        1.02094375      -0.47979873       0.21276353
C        0.78870577       0.26225769       1.51662428
N       -0.32743334       0.44292401       1.93189112
C       -0.31499340      -0.54103207      -0.54110900
C       -1.15966588       0.67644016      -0.80708147
C       -1.52542352      -0.31447976       0.24405463
H        2.96903422       0.03825662      -0.11196151
H        1.88192876       0.96016582      -0.93012700
H        1.29251652      -1.49436480       0.52676843
H       -0.30915163      -1.28211447      -1.33286292
H       -0.83267404       1.65589952      -0.47147070
H       -1.72442757       0.72321153      -1.73163255
H       -2.39375819      -0.95933557       0.17762520
H       -1.45685658       0.28878580       1.92865086
15
Frame=5 idx=009044 GeodesicLength=0.6581455398549516 rxn_smarts="[N:1]([C@@:2]([C:3]#[N:4])([C:5]1([H:11])[C:6]([H:12])([H:13])[C:7]1([H:14])[H:15])[H:10])([H:8])[H:9]>>[N:1]([C@@:2]1([H:10])[C:3][N:4]([H:15])[C@:7]2([H:14])[C@@:5]1([H:11])[C:6]2([H:12])[H:13])([H:8])[H:9]"
N        2.10569253      -0.00281895      -0.60875969
C        1.01863352      -0.47110714       0.21571229
C        0.80043450       0.29682853       1.50553679
N       -0.31385417       0.47384201       1.93114116
C       -0.30971734      -0.52268380      -0.54709282
C       -1.17539601       0.68149306      -0.79933669
C       -1.52062274      -0.32133026       0.24882818
H        2.97854233       0.00912191      -0.09980422
H        1.91317037       0.93026097      -0.94831230
H        1.27092483      -1.48421992       0.55029175
H       -0.29783253      -1.24628989      -1.35496920
H       -0.87665873       1.66712628      -0.45714928
H       -1.74855223       0.72434354      -1.71869590
H       -2.37608910      -0.98210367       0.17182399
H       -1.46867522       0.24753733       1.91078592
15
Frame=6 idx=009044 GeodesicLength=0.7895575043284591 rxn_smarts="[N:1]([C@@:2]([C:3]#[N:4])([C:5]1([H:11])[C:6]([H:12])([H:13])[C:7]1([H:14])[H:15])[H:10])([H:8])[H:9]>>[N:1]([C@@:2]1([H:10])[C:3][N:4]([H:15])[C@:7]2([H:14])[C@@:5]1([H:11])[C:6]2([H:12])[H:13])([H:8])[H:9]"
N        2.11989065      -0.02948748      -0.60467034
C        1.01625619      -0.46206226       0.21832960
C        0.81209520       0.33146656       1.49352402
N       -0.30010034       0.50540048       1.92962612
C       -0.30440759      -0.50347008      -0.55346433
C       -1.19160704       0.68647328      -0.79149535
C       -1.51541940      -0.32845362       0.25322407
H        2.98751740      -0.02066832      -0.08664968
H        1.94498182       0.89902511      -0.96576126
H        1.24878557      -1.47305494       0.57346720
H       -0.28646365      -1.20913540      -1.37712147
H       -0.92237093       1.67749825      -0.44204242
H       -1.77309525       0.72499391      -1.70560211
H       -2.35740065      -1.00510621       0.16550445
H       -1.47866200       0.20658072       1.89313149
15
Frame=7 idx=009044 GeodesicLength=0.9208740228427739 rxn_smarts="[N:1]([C@@:2]([C:3]#[N:4])([C:5]1([H:11])[C:6]([H:12])([H:13])[C:7]1([H:14])[H:15])[H:10])([H:8])[H:9]>>[N:1]([C@@:2]1([H:10])[C:3][N:4]([H:15])[C@:7]2([H:14])[C@@:5]1([H:11])[C:6]2([H:12])[H:13])([H:8])[H:9]"
N        2.13378136      -0.05683872      -0.59988753
C        1.01383897      -0.45268296       0.22059545
C        0.82378033       0.36611979       1.48058488
N       -0.28605113       0.53778152       1.92729604
C       -0.29907228      -0.48335602      -0.56016708
C       -1.20826768       0.69137612      -0.78351358
C       -1.50977041      -0.33580846       0.25726458
H        2.99589911      -0.05109974      -0.07255169
H        1.97728823       0.86640610      -0.98244932
H        1.22616253      -1.46086261       0.59624470
H       -0.27506748      -1.17056625      -1.39929248
H       -0.96972141       1.68688817      -0.42611144
H       -1.79799313       0.72514608      -1.69232477
H       -2.33763156      -1.02828105       0.15864052
H       -1.48717545       0.16577803       1.87567172
15
Frame=8 idx=009044 GeodesicLength=1.052088136261919 rxn_smarts="[N:1]([C@@:2]([C:3]#[N:4])([C:5]1([H:11])[C:6]([H:12])([H:13])[C:7]1([H:14])[H:15])[H:10])([H:8])[H:9]>>[N:1]([C@@:2]1([H:10])[C:3][N:4]([H:15])[C@:7]2([H:14])[C@@:5]1([H:11])[C:6]2([H:12])[H:13])([H:8])[H:9]"
N        2.14727895      -0.08488908      -0.59443503
C        1.01140057      -0.44298404       0.22250196
C        0.83557709       0.40075303       1.46672300
N       -0.27160146       0.57120006       1.92408139
C       -0.29372206      -0.46230997      -0.56713809
C       -1.22533639       0.69619718      -0.77535143
C       -1.50364065      -0.34334734       0.26096602
H        3.00361409      -0.08215603      -0.05757372
H        2.00999178       0.83234924      -0.99835693
H        1.20311561      -1.44762662       0.61859987
H       -0.26366419      -1.13050175      -1.42144024
H       -1.01860244       1.69516760      -0.40932327
H       -1.82316173       0.72478966      -1.67884796
H       -2.31673201      -1.05154808       0.15118514
H       -1.49451714       0.12490614       1.85840927
15
Frame=9 idx=009044 GeodesicLength=1.1832081133301728 rxn_smarts="[N:1]([C@@:2]([C:3]#[N:4])([C:5]1([H:11])[C:6]([H:12])([H:13])[C:7]1([H:14])[H:15])[H:10])([H:8])[H:9]>>[N:1]([C@@:2]1([H:10])[C:3][N:4]([H:15])[C@:7]2([H:14])[C@@:5]1([H:11])[C:6]2([H:12])[H:13])([H:8])[H:9]"
N        2.16028247      -0.11365415      -0.58833645
C        1.00895380      -0.43297902       0.22405339
C        0.84757048       0.43534163       1.45194457
N       -0.25665561       0.60589279       1.91989666
C       -0.28837175      -0.44030978      -0.57430570
C       -1.24276120       0.70093295      -0.76696806
C       -1.49700502      -0.35101830       0.26434060
H        3.01057966      -0.11381206      -0.04178649
H        2.04296504       0.79679375      -1.01347435
H        1.17970907      -1.43332388       0.64053379
H       -0.25227127      -1.08886346      -1.44351278
H       -1.06888756       1.70221103      -0.39164694
H       -1.84849541       0.72392432      -1.66516187
H       -2.29466184      -1.07481599       0.14307482
H       -1.50095085       0.08368016       1.84134882
15
Frame=10 idx=009044 GeodesicLength=1.3142230710335832 rxn_smarts="[N:1]([C@@:2]([C:3]#[N:4])([C:5]1([H:11])[C:6]([H:12])([H:13])[C:7]1([H:14])[H:15])[H:10])([H:8])[H:9]>>[N:1]([C@@:2]1([H:10])[C:3][N:4]([H:15])[C@:7]2([H:14])[C@@:5]1([H:11])[C:6]2([H:12])[H:13])([H:8])[H:9]"
N        2.17267987      -0.14314086      -0.58161600
C        1.00650886      -0.42268390       0.22526451
C        0.85985003       0.46986263       1.43626248
N       -0.24112427       0.64208902       1.91464320
C       -0.28303789      -0.41734533      -0.58158768
C       -1.26048264       0.70557704      -0.75832267
C       -1.48984637      -0.35877178       0.26740304
H        3.01671135      -0.14602752      -0.02526989
H        2.07605445       0.75968466      -1.02779639
H        1.15601620      -1.41793058       0.66206580
H       -0.24090146      -1.04558081      -1.46544116
H       -1.12042996       1.70788988      -0.37305052
H       -1.87387811       0.72255716      -1.65126239
H       -2.27140342      -1.09797575       0.13423501
H       -1.50671664       0.04179614       1.82447266
15
Frame=11 idx=009044 GeodesicLength=1.4451282038835136 rxn_smarts="[N:1]([C@@:2]([C:3]#[N:4])([C:5]1([H:11])[C:6]([H:12])([H:13])[C:7]1([H:14])[H:15])[H:10])([H:8])[H:9]>>[N:1]([C@@:2]1([H:10])[C:3][N:4]([H:15])[C@:7]2([H:14])[C@@:5]1([H:11])[C:6]2([H:12])[H:13])([H:8])[H:9]"
N        2.18434716      -0.17335455      -0.57429771
C        1.00407153      -0.41211288       0.22616357
C        0.87250700       0.50430408       1.41969106
N       -0.22491982       0.68004429       1.90820047
C       -0.27774051      -0.39341938      -0.58889340
C       -1.27843104       0.71012527      -0.74937308
C       -1.48215920      -0.36655640       0.27016522
H        3.02192205      -0.17875580      -0.00811192
H        2.10907974       0.72096336      -1.04132724
H        1.13211581      -1.40141463       0.68324490
H       -0.22956660      -1.00059073      -1.48714371
H       -1.17306856       1.71208185      -0.35350202
H       -1.89917481       0.72071046      -1.63715141
H       -2.24695259      -1.12090939       0.12457340
H       -1.51203016      -0.00111554       1.80776186
15
Frame=12 idx=009044 GeodesicLength=1.5759253524702135 rxn_smarts="[N:1]([C@@:2]([C:3]#[N:4])([C:5]1([H:11])[C:6]([H:12])([H:13])[C:7]1([H:14])[H:15])[H:10])([H:8])[H:9]>>[N:1]([C@@:2]1([H:10])[C:3][N:4]([H:15])[C@:7]2([H:14])[C@@:5]1([H:11])[C:6]2([H:12])[H:13])([H:8])[H:9]"
N        2.19515091      -0.20429318      -0.56640583
C        1.00164453      -0.40128105       0.22679152
C        0.88563773       0.53865769       1.40224748
N       -0.20795255       0.72002862       1.90042704
C       -0.27250130      -0.36855086      -0.59612187
C       -1.29652814       0.71457311      -0.74007326
C       -1.47394705      -0.37432404       0.27264468
H        3.02612675      -0.21193941       0.00958912
H        2.14183427       0.68057516      -1.05407787
H        1.10809477      -1.38373825       0.70414603
H       -0.21827484      -0.95383922      -1.50852340
H       -1.22661830       1.71466958      -0.33297200
H       -1.92423960       0.71842065      -1.62283219
H       -2.22132442      -1.14348680       0.11398994
H       -1.51710276      -0.04547200       1.79117062
15
Frame=13 idx=009044 GeodesicLength=1.7066275365233756 rxn_smarts="[N:1]([C@@:2]([C:3]#[N:4])([C:5]1([H:11])[C:6]([H:12])([H:13])[C:7]1([H:14])[H:15])[H:10])([H:8])[H:9]>>[N:1]([C@@:2]1([H:10])[C:3][N:4]([H:15])[C@:7]2([H:14])[C@@:5]1([H:11])[C:6]2([H:12])[H:13])([H:8])[H:9]"
N        2.20495050      -0.23595319      -0.55796294
C        0.99922681      -0.39020162       0.22720329
C        0.89934080       0.57292470       1.38394763
N       -0.19012667       0.76233920       1.89115730
C       -0.26734262      -0.34277499      -0.60316216
C       -1.31468627       0.71891789      -0.73036896
C       -1.46522290      -0.38202912       0.27486535
H        3.02924367      -0.24551021       0.02772739
H        2.17408470       0.63845589      -1.06607514
H        1.08404587      -1.36485113       0.72487536
H       -0.20702901      -0.90527789      -1.52947043
H       -1.28087651       1.71554580      -0.31142785
H       -1.94891311       0.71574198      -1.60830474
H       -2.19454591      -1.16557056       0.10237493
H       -1.52214936      -0.09175673       1.77462097
15
Frame=14 idx=009044 GeodesicLength=1.8372258393904075 rxn_smarts="[N:1]([C@@:2]([C:3]#[N:4])([C:5]1([H:11])[C:6]([H:12])([H:13])[C:7]1([H:14])[H:15])[H:10])([H:8])[H:9]>>[N:1]([C@@:2]1([H:10])[C:3][N:4]([H:15])[C@:7]2([H:14])[C@@:5]1([H:11])[C:6]2([H:12])[H:13])([H:8])[H:9]"
N        2.21360247      -0.26833286      -0.54898389
C        0.99681509      -0.37888250       0.22746871
C        0.91372872       0.60712461       1.36480149
N       -0.17133043       0.80731346       1.88017400
C       -0.26228746      -0.31613402      -0.60989667
C       -1.33282066       0.72315995      -0.72020065
C       -1.45600604      -0.38963491       0.27685774
H        3.03120040      -0.27941106       0.04619931
H        2.20559141       0.59453998      -1.07734496
H        1.06006142      -1.34468767       0.74557542
H       -0.19583135      -0.85486089      -1.54985740
H       -1.33564473       1.71460901      -0.28882823
H       -1.97304563       0.71274625      -1.59356558
H       -2.16666154      -1.18701578       0.08959991
H       -1.52737166      -0.14053357       1.75800080
15
Frame=15 idx=009044 GeodesicLength=1.9677248572254287 rxn_smarts="[N:1]([C@@:2]([C:3]#[N:4])([C:5]1([H:11])[C:6]([H:12])([H:13])[C:7]1([H:14])[H:15])[H:10])([H:8])[H:9]>>[N:1]([C@@:2]1([H:10])[C:3][N:4]([H:15])[C@:7]2([H:14])[C@@:5]1([H:11])[C:6]2([H:12])[H:13])([H:8])[H:9]"
N        2.22095908      -0.30143745      -0.53947359
C        0.99440218      -0.36732428       0.22767369
C        0.92892115       0.64129677       1.34480738
N       -0.15143088       0.85534367       1.86720882
C       -0.25735885      -0.28868083      -0.61619826
C       -1.35084577       0.72730320      -0.70949191
C       -1.44632167      -0.39711203       0.27866582
H        3.03193033      -0.31358782       0.06490402
H        2.23609816       0.54874051      -1.08792435
H        1.03623376      -1.32315612       0.76642829
H       -0.18467924      -0.80253801      -1.56954363
H       -1.39071972       1.71176889      -0.26511833
H       -1.99648867       0.70952566      -1.57859548
H       -2.13772041      -1.20767330       0.07552313
H       -1.53297944      -0.19246888       1.74113440
15
Frame=16 idx=009044 GeodesicLength=2.09812788075014 rxn_smarts="[N:1]([C@@:2]([C:3]#[N:4])([C:5]1([H:11])[C:6]([H:12])([H:13])[C:7]1([H:14])[H:15])[H:10])([H:8])[H:9]>>[N:1]([C@@:2]1([H:10])[C:3][N:4]([H:15])[C@:7]2([H:14])[C@@:5]1([H:11])[C:6]2([H:12])[H:13])([H:8])[H:9]"
N        2.22686850      -0.33528228      -0.52942099
C        0.99197748      -0.35551617       0.22792247
C        0.94505225       0.67550763       1.32394737
N       -0.13026127       0.90689432       1.85191662
C       -0.25258097      -0.26047427      -0.62193035
C       -1.36868213       0.73135538      -0.69814557
C       -1.43619975      -0.40444233       0.28035066
H        3.03137396      -0.34800076       0.08375071
H        2.26534108       0.50094831      -1.09785122
H        1.01265125      -1.30013002       0.78766155
H       -0.17357056      -0.74825405      -1.58837023
H       -1.44590182       1.70694353      -0.24022051
H       -2.01910731       0.70619394      -1.56335400
H       -2.10777734      -1.22738762       0.05998118
H       -1.53918337      -0.24835561       1.72376229
