15
Frame=0 idx=010864 GeodesicLength=0.0 rxn_smarts="[C:1]([C@@:2]12[C:3]([H:11])([H:12])[C@:4]1([O:5][H:13])[C:6]([H:14])([H:15])[O:7]2)([H:8])([H:9])[H:10]>>[C:1]([C@@:2]1([C:3]([O:5][H:13])([H:11])[H:12])[C:4][C:6]([H:14])([H:15])[O:7]1)([H:8])([H:9])[H:10]"
C        1.89255051      -0.04737359       0.61528942
C        0.55183485       0.06201982      -0.04342761
C       -0.03753932      -1.01451713      -0.75466614
C       -0.78404798       0.08198575       0.84711206
O       -1.60644584      -1.17358284       0.33522016
C       -1.10734300       1.30275333      -0.02313926
O        0.22947945       1.34728785      -0.56318061
H        2.69676309       0.12286789      -0.10396832
H        2.01136654      -1.03771190       1.05627429
H        1.95870375       0.69403769       1.41065871
H       -0.53849721      -0.83966521      -1.69833733
H        0.25317999      -2.03470027      -0.54640745
H       -2.31513100      -0.84946516      -0.22958864
H       -1.86015991       1.16481059      -0.82050754
H       -1.34471396       2.22125322       0.51866828
15
Frame=1 idx=010864 GeodesicLength=0.07862329289216105 rxn_smarts="[C:1]([C@@:2]12[C:3]([H:11])([H:12])[C@:4]1([O:5][H:13])[C:6]([H:14])([H:15])[O:7]2)([H:8])([H:9])[H:10]>>[C:1]([C@@:2]1([C:3]([O:5][H:13])([H:11])[H:12])[C:4][C:6]([H:14])([H:15])[O:7]1)([H:8])([H:9])[H:10]"
C        1.88513718      -0.04944667       0.62182919
C        0.54933213       0.06881549      -0.04472388
C       -0.04859331      -1.00957343      -0.75696976
C       -0.78695338       0.09069168       0.82895894
O       -1.59174353      -1.20457146       0.34905203
C       -1.10155657       1.31546255      -0.03270696
O        0.23488876       1.35297859      -0.57386347
H        2.69265625       0.10442077      -0.09737523
H        1.99028688      -1.03654666       1.07334855
H        1.95903131       0.69966770       1.40935413
H       -0.54581159      -0.83096685      -1.70240737
H        0.27017825      -2.02576086      -0.57123069
H       -2.31633191      -0.89193129      -0.20168882
H       -1.86139373       1.18802505      -0.82414151
H       -1.32912674       2.22873540       0.52256484
15
Frame=2 idx=010864 GeodesicLength=0.157329570402579 rxn_smarts="[C:1]([C@@:2]12[C:3]([H:11])([H:12])[C@:4]1([O:5][H:13])[C:6]([H:14])([H:15])[O:7]2)([H:8])([H:9])[H:10]>>[C:1]([C@@:2]1([C:3]([O:5][H:13])([H:11])[H:12])[C:4][C:6]([H:14])([H:15])[O:7]1)([H:8])([H:9])[H:10]"
C        1.87708906      -0.05165991       0.62867398
C        0.54654417       0.07559114      -0.04623680
C       -0.05996493      -1.00461120      -0.75962998
C       -0.79066655       0.09953317       0.80986554
O       -1.57498951      -1.23632019       0.36417819
C       -1.09547948       1.32877621      -0.04279927
O        0.24063547       1.35861137      -0.58490573
H        2.68802835       0.08604014      -0.08994057
H        1.96846428      -1.03545275       1.09024162
H        1.95849108       0.70464059       1.40865896
H       -0.55439853      -0.82215133      -1.70630156
H        0.28701409      -2.01570522      -0.59756707
H       -2.31596003      -0.93669631      -0.17160783
H       -1.86191266       1.21286849      -0.82868639
H       -1.31289481       2.23653581       0.52605692
15
Frame=3 idx=010864 GeodesicLength=0.23606308630075992 rxn_smarts="[C:1]([C@@:2]12[C:3]([H:11])([H:12])[C@:4]1([O:5][H:13])[C:6]([H:14])([H:15])[O:7]2)([H:8])([H:9])[H:10]>>[C:1]([C@@:2]1([C:3]([O:5][H:13])([H:11])[H:12])[C:4][C:6]([H:14])([H:15])[O:7]1)([H:8])([H:9])[H:10]"
C        1.86831910      -0.05402234       0.63582182
C        0.54341181       0.08231531      -0.04794672
C       -0.07167659      -0.99967023      -0.76265996
C       -0.79530174       0.10845292       0.78971511
O       -1.55592839      -1.26876559       0.38062532
C       -1.08909305       1.34271083      -0.05342824
O        0.24672687       1.36414344      -0.59631172
H        2.68278356       0.06776198      -0.08166105
H        1.94583509      -1.03446271       1.10689318
H        1.95695809       0.70893060       1.40861662
H       -0.56428443      -0.81324648      -1.71003401
H        0.30356658      -2.00446166      -0.62539550
H       -2.31371940      -0.98380434      -0.13921681
H       -1.86161881       1.23950065      -0.83419504
H       -1.29597868       2.24461763       0.52917701
15
Frame=4 idx=010864 GeodesicLength=0.31477328735764976 rxn_smarts="[C:1]([C@@:2]12[C:3]([H:11])([H:12])[C@:4]1([O:5][H:13])[C:6]([H:14])([H:15])[O:7]2)([H:8])([H:9])[H:10]>>[C:1]([C@@:2]1([C:3]([O:5][H:13])([H:11])[H:12])[C:4][C:6]([H:14])([H:15])[O:7]1)([H:8])([H:9])[H:10]"
C        1.85874084      -0.05653348       0.64326324
C        0.53986828       0.08894878      -0.04983464
C       -0.08375248      -0.99480404      -0.76607250
C       -0.80097829       0.11737716       0.76838871
O       -1.53433288      -1.30180666       0.39836935
C       -1.08238140       1.35727241      -0.06458589
O        0.25315580       1.36951868      -0.60808379
H        2.67682985       0.04963274      -0.07255004
H        1.92236416      -1.03360186       1.12324765
H        1.95430251       0.71252763       1.40926097
H       -0.57548617      -0.80429933      -1.71361904
H        0.31969821      -1.99198485      -0.65463837
H       -2.30929015      -1.03324430      -0.10443011
H       -1.86040735       1.26808235      -0.84069911
H       -1.27833092       2.25291477       0.53198358
15
Frame=5 idx=010864 GeodesicLength=0.3933654125573621 rxn_smarts="[C:1]([C@@:2]12[C:3]([H:11])([H:12])[C@:4]1([O:5][H:13])[C:6]([H:14])([H:15])[O:7]2)([H:8])([H:9])[H:10]>>[C:1]([C@@:2]1([C:3]([O:5][H:13])([H:11])[H:12])[C:4][C:6]([H:14])([H:15])[O:7]1)([H:8])([H:9])[H:10]"
C        1.84826814      -0.05918174       0.65098280
C        0.53584343       0.09543742      -0.05189016
C       -0.09622336      -0.99009271      -0.76987931
C       -0.80781004       0.12619782       0.74575680
O       -1.50999036      -1.33526500       0.41735848
C       -1.07532954       1.37244660      -0.07624667
O        0.25990302       1.37465835      -0.62024277
H        2.67007804       0.03171796      -0.06262546
H        1.89805201      -1.03288672       1.13925784
H        1.95035696       0.71544427       1.41061574
H       -0.58798745      -0.79538052      -1.71709392
H        0.33526505      -1.97828839      -0.68517852
H       -2.30234034      -1.08490266      -0.06720522
H       -1.85818640       1.29877206      -0.84818676
H       -1.25989916       2.26132326       0.53457714
15
Frame=6 idx=010864 GeodesicLength=0.47182751381210114 rxn_smarts="[C:1]([C@@:2]12[C:3]([H:11])([H:12])[C@:4]1([O:5][H:13])[C:6]([H:14])([H:15])[O:7]2)([H:8])([H:9])[H:10]>>[C:1]([C@@:2]1([C:3]([O:5][H:13])([H:11])[H:12])[C:4][C:6]([H:14])([H:15])[O:7]1)([H:8])([H:9])[H:10]"
C        1.83684268      -0.06194175       0.65895449
C        0.53126372       0.10172422      -0.05409171
C       -0.10911409      -0.98563031      -0.77406846
C       -0.81589645       0.13480959       0.72172693
O       -1.48279104      -1.36895515       0.43744722
C       -1.06793052       1.38819054      -0.08834571
O        0.26691770       1.37947369      -0.63279213
H        2.66245059       0.01407095      -0.05194913
H        1.87291920      -1.03230031       1.15489937
H        1.94501957       0.71773066       1.41266424
H       -0.60173678      -0.78658426      -1.72048088
H        0.35011054      -1.96340406      -0.71682726
H       -2.29256014      -1.13856800      -0.02760945
H       -1.85484929       1.33168856      -0.85661124
H       -1.24064569       2.26969564       0.53708373
15
Frame=7 idx=010864 GeodesicLength=0.5501672708627199 rxn_smarts="[C:1]([C@@:2]12[C:3]([H:11])([H:12])[C@:4]1([O:5][H:13])[C:6]([H:14])([H:15])[O:7]2)([H:8])([H:9])[H:10]>>[C:1]([C@@:2]1([C:3]([O:5][H:13])([H:11])[H:12])[C:4][C:6]([H:14])([H:15])[O:7]1)([H:8])([H:9])[H:10]"
C        1.82442791      -0.06477720       0.66714236
C        0.52606088       0.10774469      -0.05642401
C       -0.12244042      -0.98152979      -0.77862772
C       -0.82530295       0.14309471       0.69622064
O       -1.45271735      -1.40264135       0.45845109
C       -1.06018167       1.40443191      -0.10079349
O        0.27413340       1.38386191      -0.64574541
H        2.65389204      -0.00324476      -0.04059178
H        1.84703178      -1.03181677       1.17016568
H        1.93818821       0.71946420       1.41536917
H       -0.61662689      -0.77801731      -1.72383413
H        0.36410229      -1.94743269      -0.74935412
H       -2.27969228      -1.19389525       0.01423431
H       -1.85032224       1.36690432      -0.86587430
H       -1.22055270       2.27785338       0.53966171
15
Frame=8 idx=010864 GeodesicLength=0.628376951712769 rxn_smarts="[C:1]([C@@:2]12[C:3]([H:11])([H:12])[C@:4]1([O:5][H:13])[C:6]([H:14])([H:15])[O:7]2)([H:8])([H:9])[H:10]>>[C:1]([C@@:2]1([C:3]([O:5][H:13])([H:11])[H:12])[C:4][C:6]([H:14])([H:15])[O:7]1)([H:8])([H:9])[H:10]"
C        1.81103003      -0.06762535       0.67549924
C        0.52016577       0.11342512      -0.05886372
C       -0.13623176      -0.97794002      -0.78350718
C       -0.83607301       0.15091087       0.66920779
O       -1.41984984      -1.43603400       0.48006249
C       -1.05209906       1.42104774      -0.11345971
O        0.28143101       1.38769955      -0.65910505
H        2.64438578      -0.02015250      -0.02866859
H        1.82051625      -1.03136767       1.18506763
H        1.92982611       0.72077111       1.41867163
H       -0.63250030      -0.76983133      -1.72719836
H        0.37707211      -1.93051759      -0.78244373
H       -2.26352976      -1.25036162       0.05805259
H       -1.84452490       1.40442489      -0.87580429
H       -1.19961845       2.28555081       0.54248925
15
Frame=9 idx=010864 GeodesicLength=0.7066538221553533 rxn_smarts="[C:1]([C@@:2]12[C:3]([H:11])([H:12])[C@:4]1([O:5][H:13])[C:6]([H:14])([H:15])[O:7]2)([H:8])([H:9])[H:10]>>[C:1]([C@@:2]1([C:3]([O:5][H:13])([H:11])[H:12])[C:4][C:6]([H:14])([H:15])[O:7]1)([H:8])([H:9])[H:10]"
C        1.79674513      -0.07038392       0.68391003
C        0.51366125       0.11875921      -0.06150072
C       -0.15043807      -0.97497727      -0.78853020
C       -0.84798816       0.15822462       0.64075588
O       -1.38480077      -1.46876144       0.50197735
C       -1.04361775       1.43793324      -0.12602988
O        0.28875197       1.39091731      -0.67296016
H        2.63396916      -0.03660711      -0.01635358
H        1.79354014      -1.03079497       1.19966877
H        1.91996768       0.72187084       1.42230866
H       -0.64915885      -0.76224669      -1.73050267
H        0.38906479      -1.91298925      -0.81558188
H       -2.24432664      -1.30771121       0.10303216
H       -1.83752514       1.44416418      -0.88621785
H       -1.17784472       2.29260245       0.54602409
15
Frame=10 idx=010864 GeodesicLength=0.7848063044269263 rxn_smarts="[C:1]([C@@:2]12[C:3]([H:11])([H:12])[C@:4]1([O:5][H:13])[C:6]([H:14])([H:15])[O:7]2)([H:8])([H:9])[H:10]>>[C:1]([C@@:2]1([C:3]([O:5][H:13])([H:11])[H:12])[C:4][C:6]([H:14])([H:15])[O:7]1)([H:8])([H:9])[H:10]"
C        1.78157548      -0.07303344       0.69234826
C        0.50641360       0.12362874      -0.06417503
C       -0.16504722      -0.97278905      -0.79373178
C       -0.86115241       0.16485240       0.61088795
O       -1.34749652      -1.50054950       0.52385041
C       -1.03488977       1.45485159      -0.13851078
O        0.29592242       1.39338473      -0.68716603
H        2.62260137      -0.05254565      -0.00377304
H        1.76623680      -1.03008958       1.21393549
H        1.90868050       0.72281328       1.42628680
H       -0.66619136      -0.75531391      -1.73396153
H        0.39984727      -1.89491505      -0.84855626
H       -2.22185933      -1.36485298       0.14922024
H       -1.82924056       1.48590705      -0.89680373
H       -1.15540026       2.29865136       0.55014902
15
Frame=11 idx=010864 GeodesicLength=0.8628935391859831 rxn_smarts="[C:1]([C@@:2]12[C:3]([H:11])([H:12])[C@:4]1([O:5][H:13])[C:6]([H:14])([H:15])[O:7]2)([H:8])([H:9])[H:10]>>[C:1]([C@@:2]1([C:3]([O:5][H:13])([H:11])[H:12])[C:4][C:6]([H:14])([H:15])[O:7]1)([H:8])([H:9])[H:10]"
C        1.76561920      -0.07551088       0.70073409
C        0.49845046       0.12799658      -0.06686143
C       -0.17996966      -0.97148030      -0.79903616
C       -0.87539480       0.17072137       0.57972022
O       -1.30840181      -1.53111659       0.54534999
C       -1.02598551       1.47158607      -0.15075523
O        0.30283723       1.39503435      -0.70166864
H        2.61032563      -0.06792824       0.00891417
H        1.73877761      -1.02916074       1.22789188
H        1.89609366       0.72373716       1.43043463
H       -0.68322494      -0.74914640      -1.73765677
H        0.40945476      -1.87650874      -0.88102520
H       -2.19641299      -1.42095988       0.19619942
H       -1.81971522       1.52932810      -0.90723196
H       -1.13245363       2.30340814       0.55499099
15
Frame=12 idx=010864 GeodesicLength=0.9409658622898048 rxn_smarts="[C:1]([C@@:2]12[C:3]([H:11])([H:12])[C@:4]1([O:5][H:13])[C:6]([H:14])([H:15])[O:7]2)([H:8])([H:9])[H:10]>>[C:1]([C@@:2]1([C:3]([O:5][H:13])([H:11])[H:12])[C:4][C:6]([H:14])([H:15])[O:7]1)([H:8])([H:9])[H:10]"
C        1.74901614      -0.07775974       0.70899233
C        0.48981631       0.13184143      -0.06953030
C       -0.19512460      -0.97113009      -0.80436638
C       -0.89051073       0.17579369       0.54741725
O       -1.26801994      -1.56024162       0.56613592
C       -1.01698825       1.48791585      -0.16262656
O        0.30938353       1.39582806      -0.71638983
H        2.59722987      -0.08273531       0.02154745
H        1.71135629      -1.02791977       1.24157310
H        1.88241107       0.72478158       1.43459417
H       -0.69989089      -0.74382579      -1.74167232
H        0.41792030      -1.85798466      -0.91266054
H       -2.16835877      -1.47520813       0.24353137
H       -1.80901594       1.57403234      -0.91716017
H       -1.10922438       2.30661216       0.56061450
15
Frame=13 idx=010864 GeodesicLength=1.0190298532048538 rxn_smarts="[C:1]([C@@:2]12[C:3]([H:11])([H:12])[C@:4]1([O:5][H:13])[C:6]([H:14])([H:15])[O:7]2)([H:8])([H:9])[H:10]>>[C:1]([C@@:2]1([C:3]([O:5][H:13])([H:11])[H:12])[C:4][C:6]([H:14])([H:15])[O:7]1)([H:8])([H:9])[H:10]"
C        1.73191771      -0.07973853       0.71705879
C        0.48059314       0.13516392      -0.07217684
C       -0.21042551      -0.97178584      -0.80964660
C       -0.90625297       0.18006354       0.51416268
O       -1.22686403      -1.58775014       0.58592771
C       -1.00796684       1.50364176      -0.17400904
O        0.31548156       1.39576699      -0.73126079
H        2.58342558      -0.09697175       0.03399382
H        1.68414886      -1.02629458       1.25502094
H        1.86784898       0.72606157       1.43861392
H       -0.71585760      -0.73940014      -1.74607130
H        0.42531308      -1.83951670      -0.94319925
H       -2.13813965      -1.52686349       0.29081470
H       -1.79727295       1.61959052      -0.92630182
H       -1.08594935       2.30803289       0.56707307
15
Frame=14 idx=010864 GeodesicLength=1.0971805295608823 rxn_smarts="[C:1]([C@@:2]12[C:3]([H:11])([H:12])[C@:4]1([O:5][H:13])[C:6]([H:14])([H:15])[O:7]2)([H:8])([H:9])[H:10]>>[C:1]([C@@:2]1([C:3]([O:5][H:13])([H:11])[H:12])[C:4][C:6]([H:14])([H:15])[O:7]1)([H:8])([H:9])[H:10]"
C        1.71447941      -0.08142851       0.72488953
C        0.47085793       0.13799016      -0.07477059
C       -0.22580021      -0.97343542      -0.81481637
C       -0.92238077       0.18358785       0.48016072
O       -1.18538692      -1.61364555       0.60450171
C       -0.99900548       1.51861636      -0.18483218
O        0.32107587       1.39489791      -0.74617480
H        2.56903279      -0.11068253       0.04614122
H        1.65728222      -1.02423676       1.26827311
H        1.85268342       0.72765337       1.44237745
H       -0.73088245      -0.73585754      -1.75089112
H        0.43170171      -1.82123033      -0.97247301
H       -2.10618638      -1.57539394       0.33774239
H       -1.78457014       1.66558859      -0.93443205
H       -1.06290099       2.30757633       0.57430398
15
Frame=15 idx=010864 GeodesicLength=1.175440037628373 rxn_smarts="[C:1]([C@@:2]12[C:3]([H:11])([H:12])[C@:4]1([O:5][H:13])[C:6]([H:14])([H:15])[O:7]2)([H:8])([H:9])[H:10]>>[C:1]([C@@:2]1([C:3]([O:5][H:13])([H:11])[H:12])[C:4][C:6]([H:14])([H:15])[O:7]1)([H:8])([H:9])[H:10]"
C        1.69683751      -0.08282654       0.73245325
C        0.46070354       0.14035718      -0.07730775
C       -0.24118537      -0.97604441      -0.81983013
C       -0.93866111       0.18643737       0.44558574
O       -1.14395901      -1.63796282       0.62170793
C       -0.99016212       1.53273607      -0.19504586
O        0.32614536       1.39329132      -0.76104897
H        2.55416645      -0.12391952       0.05791805
H        1.63085295      -1.02172129       1.28136575
H        1.83714133       0.72960257       1.44579487
H       -0.74478509      -0.73316591      -1.75615119
H        0.43716599      -1.80320745      -1.00038467
H       -2.07291748      -1.62042070       0.38410453
H       -1.77102824       1.71167007      -0.94141737
H       -1.04031472       2.30517406       0.58225581
15
Frame=16 idx=010864 GeodesicLength=1.2538220539245624 rxn_smarts="[C:1]([C@@:2]12[C:3]([H:11])([H:12])[C@:4]1([O:5][H:13])[C:6]([H:14])([H:15])[O:7]2)([H:8])([H:9])[H:10]>>[C:1]([C@@:2]1([C:3]([O:5][H:13])([H:11])[H:12])[C:4][C:6]([H:14])([H:15])[O:7]1)([H:8])([H:9])[H:10]"
C        1.67911343      -0.08394289       0.73973502
C        0.45021984       0.14230757      -0.07978636
C       -0.25653697      -0.97955599      -0.82465109
C       -0.95488400       0.18869798       0.41059598
O       -1.10285393      -1.66081726       0.63746150
C       -0.98148562       1.54594111      -0.20462634
O        0.33069415       1.39103882      -0.77580641
H        2.53893248      -0.13674154       0.06927820
H        1.60492635      -1.01874463       1.29432542
H        1.82143417       0.73192678       1.44880891
H       -0.75746915      -0.73127592      -1.76184122
H        0.44177222      -1.78549771      -1.02689613
H       -2.03869747      -1.66172696       0.42975607
H       -1.75674456       1.75756267      -0.94720678
H       -1.01842094       2.30082797       0.59085322
