10
Frame=0 idx=004306 GeodesicLength=0.0 rxn_smarts="[O:1]([c:2]1[n:3][c:4]([H:8])[c:5]([H:9])[n:6]1[H:10])[H:7]>>[O:1]([c+:2]1[n:3]([H:8])[c-:4][c:5]([H:9])[n:6]1[H:10])[H:7]"
O        2.05503973      -0.28497366      -0.09543963
C        0.73052469      -0.19677573       0.01579021
N       -0.11296302      -1.17941329       0.27469223
C       -1.48882602      -0.59182714       0.27026548
C       -1.26314916       0.73240554       0.04035397
N        0.10790071       0.97029611      -0.05191674
H        2.30280174      -1.19966051       0.07290511
H       -0.94716358      -1.65912966      -0.37200954
H       -1.95950758       1.54867390      -0.06126504
H        0.57534249       1.86040444      -0.09337606
10
Frame=1 idx=004306 GeodesicLength=0.04173779260653584 rxn_smarts="[O:1]([c:2]1[n:3][c:4]([H:8])[c:5]([H:9])[n:6]1[H:10])[H:7]>>[O:1]([c+:2]1[n:3]([H:8])[c-:4][c:5]([H:9])[n:6]1[H:10])[H:7]"
O        2.05572521      -0.28433529      -0.09354458
C        0.73107966      -0.19495892       0.01856940
N       -0.11397264      -1.17582468       0.27579130
C       -1.48401909      -0.59120424       0.27037464
C       -1.26241936       0.73326494       0.03951790
N        0.10908434       0.97313105      -0.04667206
H        2.30272515      -1.20064106       0.06643545
H       -0.95423862      -1.67001398      -0.37215631
H       -1.96027002       1.54760003      -0.06644478
H        0.57630537       1.86298215      -0.09187096
10
Frame=2 idx=004306 GeodesicLength=0.08347667183131584 rxn_smarts="[O:1]([c:2]1[n:3][c:4]([H:8])[c:5]([H:9])[n:6]1[H:10])[H:7]>>[O:1]([c+:2]1[n:3]([H:8])[c-:4][c:5]([H:9])[n:6]1[H:10])[H:7]"
O        2.05639367      -0.28367021      -0.09176542
C        0.73167115      -0.19305539       0.02177835
N       -0.11493801      -1.17214896       0.27731840
C       -1.47924226      -0.59054034       0.27033688
C       -1.26166744       0.73413498       0.03847918
N        0.11029271       0.97604617      -0.04094915
H        2.30254048      -1.20171099       0.05879318
H       -0.96135845      -1.68110307      -0.37171520
H       -1.96098510       1.54640090      -0.07276103
H        0.57729325       1.86564690      -0.08951521
10
Frame=3 idx=004306 GeodesicLength=0.12521880394521917 rxn_smarts="[O:1]([c:2]1[n:3][c:4]([H:8])[c:5]([H:9])[n:6]1[H:10])[H:7]>>[O:1]([c+:2]1[n:3]([H:8])[c-:4][c:5]([H:9])[n:6]1[H:10])[H:7]"
O        2.05709948      -0.28282588      -0.08916696
C        0.73234027      -0.19093274       0.02620009
N       -0.11585458      -1.16823456       0.28001303
C       -1.47452343      -0.58977265       0.27016533
C       -1.26090849       0.73501500       0.03689335
N        0.11152323       0.97912746      -0.03442218
H        2.30193253      -1.20330062       0.04753606
H       -0.96823748      -1.69251361      -0.37010214
H       -1.96165834       1.54491213      -0.08160679
H        0.57828682       1.86852546      -0.08550979
10
Frame=4 idx=004306 GeodesicLength=0.16696344812256475 rxn_smarts="[O:1]([c:2]1[n:3][c:4]([H:8])[c:5]([H:9])[n:6]1[H:10])[H:7]>>[O:1]([c+:2]1[n:3]([H:8])[c-:4][c:5]([H:9])[n:6]1[H:10])[H:7]"
O        2.05776764      -0.28194604      -0.08660075
C        0.73306417      -0.18864620       0.03144896
N       -0.11671222      -1.16407261       0.28383831
C       -1.46982908      -0.58885406       0.27001442
C       -1.26011484       0.73589670       0.03459861
N        0.11277170       0.98233295      -0.02749363
H        2.30094264      -1.20510899       0.03328919
H       -0.97502636      -1.70433667      -0.36704464
H       -1.96221355       1.54310368      -0.09319534
H        0.57934989       1.87163125      -0.07885513
10
Frame=5 idx=004306 GeodesicLength=0.20870907064503338 rxn_smarts="[O:1]([c:2]1[n:3][c:4]([H:8])[c:5]([H:9])[n:6]1[H:10])[H:7]>>[O:1]([c+:2]1[n:3]([H:8])[c-:4][c:5]([H:9])[n:6]1[H:10])[H:7]"
O        2.05845358      -0.28113946      -0.08406998
C        0.73378609      -0.18645265       0.03639535
N       -0.11758935      -1.16009397       0.28691614
C       -1.46517932      -0.58808952       0.26913372
C       -1.25927656       0.73672705       0.03231586
N        0.11400260       0.98544232      -0.02070327
H        2.30013104      -1.20639241       0.02119238
H       -0.98209115      -1.71621179      -0.36469561
H       -1.96260198       1.54167359      -0.10215410
H        0.58036506       1.87453683      -0.07433049
10
Frame=6 idx=004306 GeodesicLength=0.25046243235958277 rxn_smarts="[O:1]([c:2]1[n:3][c:4]([H:8])[c:5]([H:9])[n:6]1[H:10])[H:7]>>[O:1]([c+:2]1[n:3]([H:8])[c-:4][c:5]([H:9])[n:6]1[H:10])[H:7]"
O        2.05906590      -0.28050129      -0.08280611
C        0.73448601      -0.18440175       0.04055591
N       -0.11846175      -1.15633125       0.28898382
C       -1.46054059      -0.58747204       0.26763897
C       -1.25838870       0.73751155       0.03010640
N        0.11522583       0.98844397      -0.01410822
H        2.29974097      -1.20700166       0.01262299
H       -0.98962294      -1.72813744      -0.36309222
H       -1.96287709       1.54065483      -0.10836733
H        0.58137236       1.87723509      -0.07153421
10
Frame=7 idx=004306 GeodesicLength=0.2922194401991238 rxn_smarts="[O:1]([c:2]1[n:3][c:4]([H:8])[c:5]([H:9])[n:6]1[H:10])[H:7]>>[O:1]([c+:2]1[n:3]([H:8])[c-:4][c:5]([H:9])[n:6]1[H:10])[H:7]"
O        2.05978864      -0.27970255      -0.08001778
C        0.73524978      -0.18222569       0.04570791
N       -0.11933736      -1.15249268       0.29157857
C       -1.45597122      -0.58688798       0.26552839
C       -1.25746264       0.73825823       0.02740686
N        0.11644164       0.99150999      -0.00698645
H        2.29900679      -1.20779654       0.00192152
H       -0.99698494      -1.74030015      -0.36115856
H       -1.96305162       1.53970503      -0.11463398
H        0.58232093       1.87993235      -0.06934649
10
Frame=8 idx=004306 GeodesicLength=0.33398655859066156 rxn_smarts="[O:1]([c:2]1[n:3][c:4]([H:8])[c:5]([H:9])[n:6]1[H:10])[H:7]>>[O:1]([c+:2]1[n:3]([H:8])[c-:4][c:5]([H:9])[n:6]1[H:10])[H:7]"
O        2.06036628      -0.27904916      -0.07888039
C        0.73602216      -0.18008837       0.05064415
N       -0.12017894      -1.14875804       0.29374085
C       -1.45138943      -0.58637167       0.26309947
C       -1.25646366       0.73901029       0.02490045
N        0.11767077       0.99456930       0.00053121
H        2.29851521      -1.20815888      -0.00684454
H       -1.00472047      -1.75253991      -0.35939402
H       -1.96311165       1.53884044      -0.12035767
H        0.58328973       1.88254601      -0.06743949
10
Frame=9 idx=004306 GeodesicLength=0.37576295500971646 rxn_smarts="[O:1]([c:2]1[n:3][c:4]([H:8])[c:5]([H:9])[n:6]1[H:10])[H:7]>>[O:1]([c+:2]1[n:3]([H:8])[c-:4][c:5]([H:9])[n:6]1[H:10])[H:7]"
O        2.06089931      -0.27836646      -0.07766756
C        0.73685823      -0.17782668       0.05653605
N       -0.12100460      -1.14493502       0.29649096
C       -1.44683597      -0.58585168       0.26026762
C       -1.25538835       0.73975261       0.02205103
N        0.11890234       0.99771050       0.00872824
H        2.29772974      -1.20854288      -0.01721778
H       -1.01240139      -1.76502919      -0.35706163
H       -1.96301655       1.53788853      -0.12712193
H        0.58425724       1.88520028      -0.06500499
10
Frame=10 idx=004306 GeodesicLength=0.41755164935191935 rxn_smarts="[O:1]([c:2]1[n:3][c:4]([H:8])[c:5]([H:9])[n:6]1[H:10])[H:7]>>[O:1]([c+:2]1[n:3]([H:8])[c-:4][c:5]([H:9])[n:6]1[H:10])[H:7]"
O        2.06135727      -0.27765341      -0.07645170
C        0.73777352      -0.17540152       0.06364133
N       -0.12180420      -1.14095356       0.30018085
C       -1.44229171      -0.58528186       0.25717122
C       -1.25421161       0.74049422       0.01879077
N        0.12013389       1.00095572       0.01761770
H        2.29646188      -1.20898660      -0.03016278
H       -1.01997897      -1.77784352      -0.35373060
H       -1.96269712       1.53668638      -0.13603046
H        0.58525705       1.88798414      -0.06102633
10
Frame=11 idx=004306 GeodesicLength=0.4593573390155921 rxn_smarts="[O:1]([c:2]1[n:3][c:4]([H:8])[c:5]([H:9])[n:6]1[H:10])[H:7]>>[O:1]([c+:2]1[n:3]([H:8])[c-:4][c:5]([H:9])[n:6]1[H:10])[H:7]"
O        2.06169051      -0.27692033      -0.07536362
C        0.73878661      -0.17277586       0.07228042
N       -0.12256940      -1.13675897       0.30516337
C       -1.43773179      -0.58462554       0.25399243
C       -1.25289603       0.74124284       0.01513772
N        0.12136719       1.00433135       0.02739153
H        2.29446485      -1.20946983      -0.04673055
H       -1.02741892      -1.79103682      -0.34897598
H       -1.96201760       1.53501701      -0.14840368
H        0.58632458       1.89099615      -0.05449163
10
Frame=12 idx=004306 GeodesicLength=0.501187939071631 rxn_smarts="[O:1]([c:2]1[n:3][c:4]([H:8])[c:5]([H:9])[n:6]1[H:10])[H:7]>>[O:1]([c+:2]1[n:3]([H:8])[c-:4][c:5]([H:9])[n:6]1[H:10])[H:7]"
O        2.06187803      -0.27617747      -0.07395130
C        0.73992192      -0.16990513       0.08303221
N       -0.12331748      -1.13228612       0.31194579
C       -1.43314479      -0.58385527       0.25080184
C       -1.25138403       0.74197717       0.01091401
N        0.12260340       1.00786478       0.03835518
H        2.29130031      -1.20989757      -0.06864467
H       -1.03459718      -1.80469982      -0.34232082
H       -1.96074693       1.53266772      -0.16550933
H        0.58748675       1.89431171      -0.04462290
10
Frame=13 idx=004306 GeodesicLength=0.543043514293373 rxn_smarts="[O:1]([c:2]1[n:3][c:4]([H:8])[c:5]([H:9])[n:6]1[H:10])[H:7]>>[O:1]([c+:2]1[n:3]([H:8])[c-:4][c:5]([H:9])[n:6]1[H:10])[H:7]"
O        2.06187454      -0.27548127      -0.07310003
C        0.74113743      -0.16693616       0.09478530
N       -0.12402882      -1.12768534       0.31962516
C       -1.42847812      -0.58305652       0.24747853
C       -1.24966489       0.74267790       0.00634345
N        0.12383116       1.01144703       0.04998615
H        2.28732298      -1.20989642      -0.09293226
H       -1.04185534      -1.81874147      -0.33439859
H       -1.95884291       1.52988010      -0.18530140
H        0.58870397       1.89779216      -0.03248630
10
Frame=14 idx=004306 GeodesicLength=0.5849149107363124 rxn_smarts="[O:1]([c:2]1[n:3][c:4]([H:8])[c:5]([H:9])[n:6]1[H:10])[H:7]>>[O:1]([c+:2]1[n:3]([H:8])[c-:4][c:5]([H:9])[n:6]1[H:10])[H:7]"
O        2.06175614      -0.27479480      -0.07292259
C        0.74237983      -0.16402099       0.10626476
N       -0.12467811      -1.12311383       0.32719134
C       -1.42369650      -0.58231568       0.24389012
C       -1.24777718       0.74334588       0.00174685
N        0.12503801       1.01496591       0.06156626
H        2.28307209      -1.20929787      -0.11678208
H       -1.04955999      -1.83301437      -0.32598891
H       -1.95645240       1.52698291      -0.20530645
H        0.58991811       1.90126283      -0.01965929
10
Frame=15 idx=004306 GeodesicLength=0.6268070186546492 rxn_smarts="[O:1]([c:2]1[n:3][c:4]([H:8])[c:5]([H:9])[n:6]1[H:10])[H:7]>>[O:1]([c+:2]1[n:3]([H:8])[c-:4][c:5]([H:9])[n:6]1[H:10])[H:7]"
O        2.06160853      -0.27409691      -0.07282433
C        0.74366062      -0.16115563       0.11759643
N       -0.12527935      -1.11858399       0.33469277
C       -1.41881823      -0.58166058       0.23992096
C       -1.24573608       0.74397842      -0.00294123
N        0.12622083       1.01842735       0.07306554
H        2.27851599      -1.20813484      -0.14058253
H       -1.05767655      -1.84753384      -0.31713816
H       -1.95361570       1.52404659      -0.22526548
H        0.59111994       1.90471344      -0.00652398
10
Frame=16 idx=004306 GeodesicLength=0.6687077512103109 rxn_smarts="[O:1]([c:2]1[n:3][c:4]([H:8])[c:5]([H:9])[n:6]1[H:10])[H:7]>>[O:1]([c+:2]1[n:3]([H:8])[c-:4][c:5]([H:9])[n:6]1[H:10])[H:7]"
O        2.06138009      -0.27337161      -0.07305618
C        0.74496811      -0.15834205       0.12864318
N       -0.12581149      -1.11408103       0.34205332
C       -1.41379828      -0.58108825       0.23559965
C       -1.24352995       0.74456896      -0.00763120
N        0.12737570       1.02180851       0.08446552
H        2.27369030      -1.20640907      -0.16402264
H       -1.06625420      -1.86223470      -0.30785811
H       -1.95030442       1.52103146      -0.24518969
H        0.59228414       1.90811777       0.00699613
