12
Frame=0 idx=000724 GeodesicLength=0.0 rxn_smarts="[C:1]([C:2](=[O:3])[C:4]([C:5]#[C:6][H:12])([H:10])[H:11])([H:7])([H:8])[H:9]>>[C:1](=[C:2]=[O:3])([H:8])[H:9].[C:4](=[C:5]=[C:6]([H:7])[H:12])([H:10])[H:11]"
C       -1.11906729       0.94468595       0.04217322
C       -1.19341079      -0.24760618      -0.64605171
O       -1.81929121      -1.07122629      -1.18793924
C        0.81738543      -1.08393712      -0.71722746
C        1.33450638      -0.47220627       0.37031937
C        1.23645845       0.34981122       1.31171243
H        0.00607508       0.74390193       0.95243736
H       -2.01405481       1.18612277       0.60323918
H       -0.66547517       1.76033917      -0.51048554
H        1.14016663      -0.76744143      -1.70504112
H        0.48797209      -2.11387995      -0.64271882
H        1.78873517       0.77143624       2.12958232
12
Frame=1 idx=000724 GeodesicLength=0.08614193486545751 rxn_smarts="[C:1]([C:2](=[O:3])[C:4]([C:5]#[C:6][H:12])([H:10])[H:11])([H:7])([H:8])[H:9]>>[C:1](=[C:2]=[O:3])([H:8])[H:9].[C:4](=[C:5]=[C:6]([H:7])[H:12])([H:10])[H:11]"
C       -1.12741176       0.94501092       0.03934970
C       -1.19558589      -0.24847253      -0.65070954
O       -1.83302774      -1.09002991      -1.15169540
C        0.81817672      -1.07755492      -0.72401201
C        1.33871281      -0.47400405       0.36901794
C        1.24257542       0.34054401       1.31746405
H       -0.02753064       0.73170099       0.99212301
H       -2.04496270       1.21697498       0.54789799
H       -0.64144890       1.75732508      -0.49040148
H        1.14806520      -0.75708784      -1.70840784
H        0.50316557      -2.11261409      -0.65604295
H        1.81927193       0.76820737       2.11541651
12
Frame=2 idx=000724 GeodesicLength=0.172068927216998 rxn_smarts="[C:1]([C:2](=[O:3])[C:4]([C:5]#[C:6][H:12])([H:10])[H:11])([H:7])([H:8])[H:9]>>[C:1](=[C:2]=[O:3])([H:8])[H:9].[C:4](=[C:5]=[C:6]([H:7])[H:12])([H:10])[H:11]"
C       -1.13567172       0.94530678       0.03670893
C       -1.19818401      -0.24987433      -0.65442577
O       -1.84604364      -1.10915629      -1.11204930
C        0.81901982      -1.07087191      -0.73114837
C        1.34314624      -0.47599106       0.36749033
C        1.24804957       0.33037941       1.32345925
H       -0.06033414       0.72109781       1.02955728
H       -2.07223426       1.24838964       0.49060002
H       -0.61882011       1.75347794      -0.46988393
H        1.15533949      -0.74552480      -1.71201629
H        0.51883860      -2.11096373      -0.67041264
H        1.84689415       0.76373056       2.10212050
12
Frame=3 idx=000724 GeodesicLength=0.25776203270166176 rxn_smarts="[C:1]([C:2](=[O:3])[C:4]([C:5]#[C:6][H:12])([H:10])[H:11])([H:7])([H:8])[H:9]>>[C:1](=[C:2]=[O:3])([H:8])[H:9].[C:4](=[C:5]=[C:6]([H:7])[H:12])([H:10])[H:11]"
C       -1.14408744       0.94555291       0.03417379
C       -1.20129985      -0.25209872      -0.65689043
O       -1.85813229      -1.12828428      -1.06976111
C        0.81982967      -1.06385827      -0.73854597
C        1.34798081      -0.47766977       0.36542440
C        1.25345612       0.32008550       1.32914000
H       -0.09249057       0.71232749       1.06510127
H       -2.09587794       1.28000603       0.43137261
H       -0.59785506       1.74874717      -0.44930316
H        1.16159887      -0.73308769      -1.71596659
H        0.53489143      -2.10882203      -0.68529753
H        1.87198626       0.75710166       2.09055270
12
Frame=4 idx=000724 GeodesicLength=0.3431945462145769 rxn_smarts="[C:1]([C:2](=[O:3])[C:4]([C:5]#[C:6][H:12])([H:10])[H:11])([H:7])([H:8])[H:9]>>[C:1](=[C:2]=[O:3])([H:8])[H:9].[C:4](=[C:5]=[C:6]([H:7])[H:12])([H:10])[H:11]"
C       -1.15274258       0.94571268       0.03178924
C       -1.20492143      -0.25505322      -0.65823295
O       -1.86917631      -1.14725227      -1.02517764
C        0.82053178      -1.05657136      -0.74616046
C        1.35309223      -0.47919152       0.36293816
C        1.25879440       0.30945362       1.33462956
H       -0.12434436       0.70523807       1.09918189
H       -2.11591209       1.31154004       0.37016459
H       -0.57843718       1.74320867      -0.42843053
H        1.16693739      -0.71983352      -1.72016889
H        0.55113370      -2.10620372      -0.70076234
H        1.89504444       0.74895253       2.08022935
12
Frame=5 idx=000724 GeodesicLength=0.4286095395467389 rxn_smarts="[C:1]([C:2](=[O:3])[C:4]([C:5]#[C:6][H:12])([H:10])[H:11])([H:7])([H:8])[H:9]>>[C:1](=[C:2]=[O:3])([H:8])[H:9].[C:4](=[C:5]=[C:6]([H:7])[H:12])([H:10])[H:11]"
C       -1.16171285       0.94581759       0.02954149
C       -1.20901712      -0.25871034      -0.65843397
O       -1.87910259      -1.16565607      -0.97902884
C        0.82105581      -1.04906322      -0.75389629
C        1.35849144      -0.48046846       0.36001093
C        1.26426493       0.29865609       1.33985862
H       -0.15625574       0.69965026       1.13231451
H       -2.13259286       1.34244785       0.30699599
H       -0.56046198       1.73693860      -0.40718683
H        1.17130032      -0.70601185      -1.72459634
H        0.56734132      -2.10310837      -0.71653742
H        1.91668934       0.73950792       2.07095815
12
Frame=6 idx=000724 GeodesicLength=0.5138161881499589 rxn_smarts="[C:1]([C:2](=[O:3])[C:4]([C:5]#[C:6][H:12])([H:10])[H:11])([H:7])([H:8])[H:9]>>[C:1](=[C:2]=[O:3])([H:8])[H:9].[C:4](=[C:5]=[C:6]([H:7])[H:12])([H:10])[H:11]"
C       -1.17107895       0.94580489       0.02747049
C       -1.21357017      -0.26304845      -0.65755142
O       -1.88786278      -1.18332918      -0.93171151
C        0.82135611      -1.04137461      -0.76171294
C        1.36415695      -0.48147555       0.35663434
C        1.26987044       0.28769614       1.34479620
H       -0.18839592       0.69564220       1.16460694
H       -2.14559086       1.37242891       0.24206855
H       -0.54404481       1.72999804      -0.38544431
H        1.17469984      -0.69177157      -1.72921957
H        0.58339688      -2.09954461      -0.73253521
H        1.93706327       0.72897379       2.06259843
12
Frame=7 idx=000724 GeodesicLength=0.5988970390946223 rxn_smarts="[C:1]([C:2](=[O:3])[C:4]([C:5]#[C:6][H:12])([H:10])[H:11])([H:7])([H:8])[H:9]>>[C:1](=[C:2]=[O:3])([H:8])[H:9].[C:4](=[C:5]=[C:6]([H:7])[H:12])([H:10])[H:11]"
C       -1.18087437       0.94567834       0.02555774
C       -1.21852913      -0.26800152      -0.65566892
O       -1.89544575      -1.20007374      -0.88362403
C        0.82139208      -1.03354501      -0.76957104
C        1.37007370      -0.48219609       0.35280560
C        1.27564547       0.27657178       1.34946252
H       -0.22106598       0.69310273       1.19631844
H       -2.15483914       1.40114534       0.17554234
H       -0.52915021       1.72248753      -0.36305670
H        1.17716600      -0.67728811      -1.73401747
H        0.59917218      -2.09551856      -0.74864793
H        1.95645515       0.71763733       2.05489944
12
Frame=8 idx=000724 GeodesicLength=0.6838171698521568 rxn_smarts="[C:1]([C:2](=[O:3])[C:4]([C:5]#[C:6][H:12])([H:10])[H:11])([H:7])([H:8])[H:9]>>[C:1](=[C:2]=[O:3])([H:8])[H:9].[C:4](=[C:5]=[C:6]([H:7])[H:12])([H:10])[H:11]"
C       -1.19114023       0.94547135       0.02385295
C       -1.22381214      -0.27351801      -0.65285280
O       -1.90204897      -1.21583299      -0.83562652
C        0.82112064      -1.02562704      -0.77737821
C        1.37625648      -0.48254954       0.34852625
C        1.28166155       0.26532483       1.35383895
H       -0.25446857       0.69169845       1.22780751
H       -2.16019543       1.42844171       0.10773866
H       -0.51574988       1.71446579      -0.33984517
H        1.17871762      -0.66278026      -1.73893073
H        0.61453158      -2.09107741      -0.76464724
H        1.97512734       0.70598312       2.04751635
12
Frame=9 idx=000724 GeodesicLength=0.7689486810865066 rxn_smarts="[C:1]([C:2](=[O:3])[C:4]([C:5]#[C:6][H:12])([H:10])[H:11])([H:7])([H:8])[H:9]>>[C:1](=[C:2]=[O:3])([H:8])[H:9].[C:4](=[C:5]=[C:6]([H:7])[H:12])([H:10])[H:11]"
C       -1.20178281       0.94521534       0.02224738
C       -1.22935889      -0.27946706      -0.64915524
O       -1.90769818      -1.23038079      -0.78763711
C        0.82055448      -1.01763472      -0.78515519
C        1.38272116      -0.48259100       0.34377862
C        1.28795359       0.25385288       1.35796756
H       -0.28903470       0.69156886       1.25917819
H       -2.16175855       1.45382990       0.03876049
H       -0.50367574       1.70602486      -0.31572891
H        1.17942920      -0.64828538      -1.74400349
H        0.62941521      -2.08623925      -0.78054185
H        1.99323523       0.69410636       2.04028956
12
Frame=10 idx=000724 GeodesicLength=0.8540958859092732 rxn_smarts="[C:1]([C:2](=[O:3])[C:4]([C:5]#[C:6][H:12])([H:10])[H:11])([H:7])([H:8])[H:9]>>[C:1](=[C:2]=[O:3])([H:8])[H:9].[C:4](=[C:5]=[C:6]([H:7])[H:12])([H:10])[H:11]"
C       -1.21285039       0.94488547       0.02074331
C       -1.23513642      -0.28584145      -0.64467444
O       -1.91251483      -1.24389115      -0.73992232
C        0.81967779      -1.00957617      -0.79289532
C        1.38946252      -0.48224413       0.33853051
C        1.29452161       0.24217392       1.36181530
H       -0.32491748       0.69260562       1.29048862
H       -2.15914277       1.47741304      -0.03107766
H       -0.49303317       1.69720383      -0.29061357
H        1.17931877      -0.63390179      -1.74923952
H        0.64382799      -2.08101513      -0.79628049
H        2.01078637       0.68218794       2.03312558
12
Frame=11 idx=000724 GeodesicLength=0.939117632883927 rxn_smarts="[C:1]([C:2](=[O:3])[C:4]([C:5]#[C:6][H:12])([H:10])[H:11])([H:7])([H:8])[H:9]>>[C:1](=[C:2]=[O:3])([H:8])[H:9].[C:4](=[C:5]=[C:6]([H:7])[H:12])([H:10])[H:11]"
C       -1.22431903       0.94454448       0.01926794
C       -1.24107659      -0.29257867      -0.63952784
O       -1.91668329      -1.25632886      -0.69300120
C        0.81846872      -1.00148846      -0.80054497
C        1.39647240      -0.48141934       0.33276989
C        1.30140136       0.23034376       1.36533856
H       -0.36230923       0.69454213       1.32191591
H       -2.15217433       1.49903275      -0.10126649
H       -0.48375745       1.68803030      -0.26445846
H        1.17841863      -0.61980378      -1.75461017
H        0.65769336      -2.07545340      -0.81170226
H        2.02786544       0.67057911       2.02581909
12
Frame=12 idx=000724 GeodesicLength=1.024080580221738 rxn_smarts="[C:1]([C:2](=[O:3])[C:4]([C:5]#[C:6][H:12])([H:10])[H:11])([H:7])([H:8])[H:9]>>[C:1](=[C:2]=[O:3])([H:8])[H:9].[C:4](=[C:5]=[C:6]([H:7])[H:12])([H:10])[H:11]"
C       -1.23614591       0.94420091       0.01774458
C       -1.24713771      -0.29962801      -0.63379061
O       -1.92028461      -1.26769863      -0.64691548
C        0.81693312      -0.99338397      -0.80812341
C        1.40374988      -0.48010194       0.32646612
C        1.30861820       0.21833242       1.36853251
H       -0.40153528       0.69735428       1.35349864
H       -2.14066447       1.51859415      -0.17151531
H       -0.47581644       1.67852375      -0.23718519
H        1.17677166      -0.60605303      -1.76015258
H        0.67101684      -2.06957662      -0.82680444
H        2.04449473       0.65943670       2.01824517
12
Frame=13 idx=000724 GeodesicLength=1.1092642748288926 rxn_smarts="[C:1]([C:2](=[O:3])[C:4]([C:5]#[C:6][H:12])([H:10])[H:11])([H:7])([H:8])[H:9]>>[C:1](=[C:2]=[O:3])([H:8])[H:9].[C:4](=[C:5]=[C:6]([H:7])[H:12])([H:10])[H:11]"
C       -1.24823555       0.94385030       0.01616301
C       -1.25328773      -0.30692887      -0.62746165
O       -1.92343768      -1.27803022      -0.60155891
C        0.81509679      -0.98525787      -0.81565536
C        1.41133260      -0.47837476       0.31962012
C        1.31625161       0.20599074       1.37144098
H       -0.44301654       0.70108223       1.38535683
H       -2.12467959       1.53605202      -0.24191811
H       -0.46908257       1.66866187      -0.20862995
H        1.17441323      -0.59254636      -1.76590622
H        0.68381829      -2.06341323      -0.84166486
H        2.06082713       0.64891415       2.01021411
12
Frame=14 idx=000724 GeodesicLength=1.1943677774276544 rxn_smarts="[C:1]([C:2](=[O:3])[C:4]([C:5]#[C:6][H:12])([H:10])[H:11])([H:7])([H:8])[H:9]>>[C:1](=[C:2]=[O:3])([H:8])[H:9].[C:4](=[C:5]=[C:6]([H:7])[H:12])([H:10])[H:11]"
C       -1.26060160       0.94350020       0.01441076
C       -1.25951026      -0.31448418      -0.62066072
O       -1.92621280      -1.28741888      -0.55706854
C        0.81294313      -0.97712244      -0.82314715
C        1.41917063      -0.47615030       0.31219740
C        1.32428087       0.19337659       1.37399543
H       -0.48695282       0.70563113       1.41743731
H       -2.10371622       1.55141295      -0.31187351
H       -0.46362440       1.65841952      -0.17881721
H        1.17135299      -0.57939257      -1.77187478
H        0.69610283      -2.05697846      -0.85625252
H        2.07676765       0.63920644       2.00165355
12
Frame=15 idx=000724 GeodesicLength=1.2794195998840463 rxn_smarts="[C:1]([C:2](=[O:3])[C:4]([C:5]#[C:6][H:12])([H:10])[H:11])([H:7])([H:8])[H:9]>>[C:1](=[C:2]=[O:3])([H:8])[H:9].[C:4](=[C:5]=[C:6]([H:7])[H:12])([H:10])[H:11]"
C       -1.27316891       0.94316579       0.01242060
C       -1.26577233      -0.32225385      -0.61344480
O       -1.92868173      -1.29590136      -0.51344532
C        0.81047733      -0.96899393      -0.83061677
C        1.42726493      -0.47343979       0.30417950
C        1.33276568       0.18043257       1.37618318
H       -0.53372371       0.71097204       1.44975149
H       -2.07759563       1.56465366      -0.38110653
H       -0.45939253       1.64775542      -0.14763742
H        1.16761333      -0.56661380      -1.77809286
H        0.70787444      -2.05029932      -0.87059193
H        2.09233912       0.63052257       1.99240089
12
Frame=16 idx=000724 GeodesicLength=1.364429155894645 rxn_smarts="[C:1]([C:2](=[O:3])[C:4]([C:5]#[C:6][H:12])([H:10])[H:11])([H:7])([H:8])[H:9]>>[C:1](=[C:2]=[O:3])([H:8])[H:9].[C:4](=[C:5]=[C:6]([H:7])[H:12])([H:10])[H:11]"
C       -1.28588173       0.94284388       0.01016446
C       -1.27205575      -0.33021394      -0.60584549
O       -1.93096364      -1.30350705      -0.47075648
C        0.80769980      -0.96088629      -0.83807506
C        1.43561971      -0.47025840       0.29555446
C        1.34177516       0.16709068       1.37799715
H       -0.58372918       0.71704468       1.48232390
H       -2.04603121       1.57576904      -0.44938807
H       -0.45636130       1.63658111      -0.11492801
H        1.16319823      -0.55421120      -1.78459513
H        0.71912928      -2.04340986      -0.88469312
H        2.10760062       0.62315736       1.98224139
