16
Frame=0 idx=003017 GeodesicLength=0.0 rxn_smarts="[C:1]([C@@:2]1([H:10])[C:3]([H:11])([H:12])[C:4]([H:13])([H:14])[C@:5]1([O:6][H:16])[H:15])([H:7])([H:8])[H:9]>>[C:1]([C@@:2]1([H:10])[C:3]([H:11])([H:12])[C:4]([H:13])=[C:5]1[H:15])([H:7])([H:8])[H:9].[O:6]([H:14])[H:16]"
C        1.43889260      -0.98821644       0.07552748
C        0.43680150      -0.04655751       0.70985211
C        0.30495649       1.41153481       0.17602059
C       -1.17755937       1.10552832      -0.05296039
C       -1.04772242      -0.21108860       0.46115636
O       -1.35545737      -0.99423797      -1.25471608
H        1.25954495      -2.02171832       0.37911334
H        1.38837926      -0.93746353      -1.01383962
H        2.45541552      -0.71914409       0.36866113
H        0.57502321      -0.03954930       1.79652563
H        0.52314745       2.16636864       0.93328562
H        0.89588659       1.63496572      -0.71553610
H       -2.03069985       1.76730303       0.02785648
H       -1.25898067       0.26103715      -1.15249112
H       -1.73647833      -0.88027634       0.96040524
H       -0.67114952      -1.50848552      -1.69886063
16
Frame=1 idx=003017 GeodesicLength=0.05932884169073778 rxn_smarts="[C:1]([C@@:2]1([H:10])[C:3]([H:11])([H:12])[C:4]([H:13])([H:14])[C@:5]1([O:6][H:16])[H:15])([H:7])([H:8])[H:9]>>[C:1]([C@@:2]1([H:10])[C:3]([H:11])([H:12])[C:4]([H:13])=[C:5]1[H:15])([H:7])([H:8])[H:9].[O:6]([H:14])[H:16]"
C        1.44286426      -0.98118188       0.07141722
C        0.43788784      -0.04820247       0.71412848
C        0.30792776       1.41257721       0.18790212
C       -1.17060190       1.10588549      -0.06074828
C       -1.04505711      -0.21264690       0.45218230
O       -1.36612870      -0.99335008      -1.27142353
H        1.27365470      -2.01627838       0.37550401
H        1.38237232      -0.92897922      -1.01746063
H        2.45966476      -0.70624341       0.35818829
H        0.57620605      -0.05040472       1.80072546
H        0.51303458       2.16374904       0.95245348
H        0.90783684       1.64453870      -0.69535235
H       -2.02306722       1.76892522       0.02064449
H       -1.25310402       0.26981850      -1.17722725
H       -1.74011197      -0.86460343       0.96571921
H       -0.70337820      -1.56360367      -1.67665301
16
Frame=2 idx=003017 GeodesicLength=0.11806770619647275 rxn_smarts="[C:1]([C@@:2]1([H:10])[C:3]([H:11])([H:12])[C:4]([H:13])([H:14])[C@:5]1([O:6][H:16])[H:15])([H:7])([H:8])[H:9]>>[C:1]([C@@:2]1([H:10])[C:3]([H:11])([H:12])[C:4]([H:13])=[C:5]1[H:15])([H:7])([H:8])[H:9].[O:6]([H:14])[H:16]"
C        1.44675442      -0.97408155       0.06710660
C        0.43906429      -0.04989842       0.71841412
C        0.31074327       1.41351844       0.19985849
C       -1.16344383       1.10599516      -0.06879840
C       -1.04225168      -0.21432817       0.44327711
O       -1.37457325      -0.99272757      -1.28868240
H        1.28740899      -2.01081771       0.37104366
H        1.37674236      -0.92006012      -1.02118429
H        2.46372339      -0.69356307       0.34792810
H        0.57759619      -0.06141301       1.80481814
H        0.50242347       2.16093495       0.97154946
H        0.91962499       1.65406322      -0.67482196
H       -2.01537532       1.77015315       0.01276025
H       -1.24705206       0.27844903      -1.20219724
H       -1.74345145      -0.84879536       0.97063833
H       -0.73793379      -1.61742898      -1.65170999
16
Frame=3 idx=003017 GeodesicLength=0.17639314186848778 rxn_smarts="[C:1]([C@@:2]1([H:10])[C:3]([H:11])([H:12])[C:4]([H:13])([H:14])[C@:5]1([O:6][H:16])[H:15])([H:7])([H:8])[H:9]>>[C:1]([C@@:2]1([H:10])[C:3]([H:11])([H:12])[C:4]([H:13])=[C:5]1[H:15])([H:7])([H:8])[H:9].[O:6]([H:14])[H:16]"
C        1.45057868      -0.96696619       0.06264410
C        0.44036393      -0.05163081       0.72276435
C        0.31336570       1.41435330       0.21184483
C       -1.15611322       1.10583490      -0.07711795
C       -1.03929524      -0.21611941       0.43456358
O       -1.38062300      -0.99262356      -1.30636136
H        1.30073252      -2.00540820       0.36570163
H        1.37161447      -0.91066619      -1.02501051
H        2.46762285      -0.68123838       0.33802185
H        0.57927942      -0.07249440       1.80888725
H        0.49125885       2.15796519       0.99050226
H        0.93118832       1.66349053      -0.65403232
H       -2.00767697       1.77097842       0.00414538
H       -1.24092607       0.28681293      -1.22737276
H       -1.74644386      -0.83284365       0.97534519
H       -0.77492636      -1.66944447      -1.62452554
16
Frame=4 idx=003017 GeodesicLength=0.234169473641509 rxn_smarts="[C:1]([C@@:2]1([H:10])[C:3]([H:11])([H:12])[C:4]([H:13])([H:14])[C@:5]1([O:6][H:16])[H:15])([H:7])([H:8])[H:9]>>[C:1]([C@@:2]1([H:10])[C:3]([H:11])([H:12])[C:4]([H:13])=[C:5]1[H:15])([H:7])([H:8])[H:9].[O:6]([H:14])[H:16]"
C        1.45432158      -0.95982130       0.05809684
C        0.44177827      -0.05340485       0.72715877
C        0.31580263       1.41502398       0.22377872
C       -1.14859880       1.10531103      -0.08568822
C       -1.03619470      -0.21807475       0.42608633
O       -1.38426636      -0.99324954      -1.32429843
H        1.31349597      -2.00004018       0.35945990
H        1.36708496      -0.90071133      -1.02884017
H        2.47134486      -0.66927503       0.32860705
H        0.58126285      -0.08358645       1.81286574
H        0.47960971       2.15481706       1.00913269
H        0.94249896       1.67271981      -0.63306759
H       -1.99993081       1.77129134      -0.00515275
H       -1.23482845       0.29478239      -1.25266178
H       -1.74908911      -0.81679890       0.97990534
H       -0.81429156      -1.71898327      -1.59538244
16
Frame=5 idx=003017 GeodesicLength=0.291556141631255 rxn_smarts="[C:1]([C@@:2]1([H:10])[C:3]([H:11])([H:12])[C:4]([H:13])([H:14])[C@:5]1([O:6][H:16])[H:15])([H:7])([H:8])[H:9]>>[C:1]([C@@:2]1([H:10])[C:3]([H:11])([H:12])[C:4]([H:13])=[C:5]1[H:15])([H:7])([H:8])[H:9].[O:6]([H:14])[H:16]"
C        1.45801910      -0.95269244       0.05352169
C        0.44332721      -0.05522055       0.73164165
C        0.31802099       1.41552475       0.23561063
C       -1.14092772       1.10439817      -0.09451107
C       -1.03294671      -0.22020223       0.41794925
O       -1.38552784      -0.99479574      -1.34235013
H        1.32567769      -1.99478156       0.35234160
H        1.36324931      -0.89017678      -1.03266139
H        2.47493752      -0.65776020       0.31979140
H        0.58360170      -0.09462965       1.81682853
H        0.46743633       2.15152809       1.02736522
H        0.95350079       1.68171240      -0.61202790
H       -1.99217538       1.77108991      -0.01514820
H       -1.22883820       0.30225055      -1.27805270
H       -1.75134630      -0.80064823       0.98450828
H       -0.85600847      -1.76559649      -1.56480686
16
Frame=6 idx=003017 GeodesicLength=0.3486628497977146 rxn_smarts="[C:1]([C@@:2]1([H:10])[C:3]([H:11])([H:12])[C:4]([H:13])([H:14])[C@:5]1([O:6][H:16])[H:15])([H:7])([H:8])[H:9]>>[C:1]([C@@:2]1([H:10])[C:3]([H:11])([H:12])[C:4]([H:13])=[C:5]1[H:15])([H:7])([H:8])[H:9].[O:6]([H:14])[H:16]"
C        1.46169759      -0.94559500       0.04898250
C        0.44503416      -0.05706817       0.73624334
C        0.32001198       1.41585070       0.24730461
C       -1.13310807       1.10304966      -0.10357899
C       -1.02954536      -0.22252554       0.41022775
O       -1.38450687      -0.99744471      -1.36036022
H        1.33724790      -1.98965711       0.34438186
H        1.36016437      -0.87904118      -1.03642251
H        2.47844362      -0.64672530       0.31167286
H        0.58635485      -0.10554851       1.82080960
H        0.45474408       2.14813490       1.04512594
H        0.96415953       1.69043728      -0.59097058
H       -1.98441834       1.77033464      -0.02584400
H       -1.22302035       0.30909916      -1.30351062
H       -1.75318287      -0.78439155       0.98928169
H       -0.90007621      -1.80890926      -1.53334323
16
Frame=7 idx=003017 GeodesicLength=0.4054772127396569 rxn_smarts="[C:1]([C@@:2]1([H:10])[C:3]([H:11])([H:12])[C:4]([H:13])([H:14])[C@:5]1([O:6][H:16])[H:15])([H:7])([H:8])[H:9]>>[C:1]([C@@:2]1([H:10])[C:3]([H:11])([H:12])[C:4]([H:13])=[C:5]1[H:15])([H:7])([H:8])[H:9].[O:6]([H:14])[H:16]"
C        1.46537673      -0.93851317       0.04453346
C        0.44691048      -0.05894305       0.74097417
C        0.32177990       1.41597945       0.25882974
C       -1.12512686       1.10119898      -0.11288606
C       -1.02598920      -0.22507464       0.40297362
O       -1.38134111      -1.00131819      -1.37815851
H        1.34818768      -1.98464025       0.33562843
H        1.35785832      -0.86726969      -1.04005479
H        2.48189447      -0.63615025       0.30430364
H        0.58954986      -0.11629139       1.82480296
H        0.44154009       2.14462972       1.06234031
H        0.97446952       1.69886496      -0.56992691
H       -1.97663479       1.76895069      -0.03724082
H       -1.21739510       0.31522005      -1.32898594
H       -1.75458447      -0.76802646       0.99431217
H       -0.94649553      -1.84861677      -1.50144548
16
Frame=8 idx=003017 GeodesicLength=0.4620749870704365 rxn_smarts="[C:1]([C@@:2]1([H:10])[C:3]([H:11])([H:12])[C:4]([H:13])([H:14])[C@:5]1([O:6][H:16])[H:15])([H:7])([H:8])[H:9]>>[C:1]([C@@:2]1([H:10])[C:3]([H:11])([H:12])[C:4]([H:13])=[C:5]1[H:15])([H:7])([H:8])[H:9].[O:6]([H:14])[H:16]"
C        1.46908815      -0.93145991       0.04021198
C        0.44895071      -0.06086365       0.74584908
C        0.32330192       1.41589223       0.27014870
C       -1.11698873       1.09881542      -0.12243198
C       -1.02227720      -0.22787687       0.39623877
O       -1.37620078      -1.00648827      -1.39564641
H        1.35854247      -1.97975045       0.32615239
H        1.35633964      -0.85487353      -1.04354364
H        2.48531398      -0.62602383       0.29770359
H        0.59318590      -0.12684720       1.82884788
H        0.42781156       2.14101157       1.07895649
H        0.98439540       1.70696663      -0.54896948
H       -1.96881559       1.76692945      -0.04930846
H       -1.21199340       0.32053395      -1.35449929
H       -1.75552201      -0.75155582       0.99970939
H       -0.99513201      -1.88440972      -1.46941901
16
Frame=9 idx=003017 GeodesicLength=0.5184982432976915 rxn_smarts="[C:1]([C@@:2]1([H:10])[C:3]([H:11])([H:12])[C:4]([H:13])([H:14])[C@:5]1([O:6][H:16])[H:15])([H:7])([H:8])[H:9]>>[C:1]([C@@:2]1([H:10])[C:3]([H:11])([H:12])[C:4]([H:13])=[C:5]1[H:15])([H:7])([H:8])[H:9].[O:6]([H:14])[H:16]"
C        1.47285917      -0.92442677       0.03608179
C        0.45118312      -0.06281505       0.75089302
C        0.32458279       1.41558101       0.28124807
C       -1.10868889       1.09584153      -0.13220026
C       -1.01839498      -0.23095868       0.39006229
O       -1.36929727      -1.01303409      -1.41269820
H        1.36835214      -1.97495333       0.31606416
H        1.35556948      -0.84189257      -1.04681557
H        2.48874570      -0.61630636       0.29190003
H        0.59732522      -0.13714035       1.83296793
H        0.41358249       2.13729765       1.09493332
H        0.99390794       1.71472001      -0.52812124
H       -1.96094614       1.76420796      -0.06203239
H       -1.20685123       0.32493459      -1.38001830
H       -1.75594949      -0.73497558       1.00552566
H       -1.04598007      -1.91607997      -1.43779031
16
Frame=10 idx=003017 GeodesicLength=0.5748292284693335 rxn_smarts="[C:1]([C@@:2]1([H:10])[C:3]([H:11])([H:12])[C:4]([H:13])([H:14])[C@:5]1([O:6][H:16])[H:15])([H:7])([H:8])[H:9]>>[C:1]([C@@:2]1([H:10])[C:3]([H:11])([H:12])[C:4]([H:13])=[C:5]1[H:15])([H:7])([H:8])[H:9].[O:6]([H:14])[H:16]"
C        1.47674140      -0.91741890       0.03218317
C        0.45362650      -0.06479885       0.75612593
C        0.32562317       1.41506036       0.29211642
C       -1.10023620       1.09225315      -0.14217665
C       -1.01434829      -0.23435139       0.38448066
O       -1.36080629      -1.02101304      -1.42920921
H        1.37770149      -1.97024842       0.30546692
H        1.35553764      -0.82837639      -1.04982523
H        2.49225752      -0.60695980       0.28687697
H        0.60199647      -0.14714569       1.83719029
H        0.39885252       2.13351738       1.11024395
H        1.00300345       1.72214985      -0.50741056
H       -1.95304155       1.76076909      -0.07539508
H       -1.20198316       0.32836534      -1.40553368
H       -1.75587095      -0.71830458       1.01180693
H       -1.09905374      -1.94349810      -1.40694083
16
Frame=11 idx=003017 GeodesicLength=0.6310506935968831 rxn_smarts="[C:1]([C@@:2]1([H:10])[C:3]([H:11])([H:12])[C:4]([H:13])([H:14])[C@:5]1([O:6][H:16])[H:15])([H:7])([H:8])[H:9]>>[C:1]([C@@:2]1([H:10])[C:3]([H:11])([H:12])[C:4]([H:13])=[C:5]1[H:15])([H:7])([H:8])[H:9].[O:6]([H:14])[H:16]"
C        1.48074612      -0.91041410       0.02852507
C        0.45626707      -0.06682807       0.76154665
C        0.32641145       1.41429937       0.30273973
C       -1.09160524       1.08800201      -0.15236074
C       -1.01013183      -0.23807769       0.37952083
O       -1.35085770      -1.03044326      -1.44510605
H        1.38665386      -1.96559622       0.29443582
H        1.35619206      -0.81434630      -1.05256327
H        2.49584620      -0.59790714       0.28257861
H        0.60717042      -0.15686744       1.84152042
H        0.38360066       2.12962824       1.12486568
H        1.01167748       1.72923645      -0.48685586
H       -1.94505811       1.75656241      -0.08937731
H       -1.19735576       0.33074447      -1.43105570
H       -1.75526910      -0.70156040       1.01858577
H       -1.15428757      -1.96643231      -1.37699965
16
Frame=12 idx=003017 GeodesicLength=0.6875560350708114 rxn_smarts="[C:1]([C@@:2]1([H:10])[C:3]([H:11])([H:12])[C:4]([H:13])([H:14])[C@:5]1([O:6][H:16])[H:15])([H:7])([H:8])[H:9]>>[C:1]([C@@:2]1([H:10])[C:3]([H:11])([H:12])[C:4]([H:13])=[C:5]1[H:15])([H:7])([H:8])[H:9].[O:6]([H:14])[H:16]"
C        1.48497762      -0.90347221       0.02521631
C        0.45920219      -0.06888697       0.76723680
C        0.32697673       1.41341481       0.31312150
C       -1.08286764       1.08311345      -0.16271920
C       -1.00574315      -0.24220870       0.37521975
O       -1.33974017      -1.04143782      -1.46033542
H        1.39538362      -1.96108912       0.28320150
H        1.35748403      -0.79996944      -1.05494294
H        2.49967849      -0.58912323       0.27904961
H        0.61303385      -0.16623470       1.84608741
H        0.36792077       2.12582399       1.13880062
H        1.01988907       1.73611261      -0.46652054
H       -1.93710913       1.75163383      -0.10395668
H       -1.19312711       0.33205713      -1.45661074
H       -1.75412360      -0.68483232       1.02589354
H       -1.21183558      -1.98490130      -1.34874151
16
Frame=13 idx=003017 GeodesicLength=0.7433598804970195 rxn_smarts="[C:1]([C@@:2]1([H:10])[C:3]([H:11])([H:12])[C:4]([H:13])([H:14])[C@:5]1([O:6][H:16])[H:15])([H:7])([H:8])[H:9]>>[C:1]([C@@:2]1([H:10])[C:3]([H:11])([H:12])[C:4]([H:13])=[C:5]1[H:15])([H:7])([H:8])[H:9].[O:6]([H:14])[H:16]"
C        1.48929095      -0.89644720       0.02212649
C        0.46224123      -0.07099203       0.77305655
C        0.32722945       1.41207946       0.32319211
C       -1.07385781       1.07736616      -0.17321417
C       -1.00116283      -0.24664926       0.37162189
O       -1.32740189      -1.05382436      -1.47460965
H        1.40379976      -1.95635885       0.27168962
H        1.35931877      -0.78519689      -1.05698227
H        2.50346502      -0.58048223       0.27599271
H        0.61920837      -0.17523861       1.85063631
H        0.35158208       2.12162966       1.15190156
H        1.02763824       1.74237429      -0.44640373
H       -1.92892110       1.74568908      -0.11903761
H       -1.18892741       0.33209038      -1.48200498
H       -1.75242665      -0.66789130       1.03376301
H       -1.27107616      -1.99814829      -1.32172784
16
Frame=14 idx=003017 GeodesicLength=0.7993583073117526 rxn_smarts="[C:1]([C@@:2]1([H:10])[C:3]([H:11])([H:12])[C:4]([H:13])([H:14])[C@:5]1([O:6][H:16])[H:15])([H:7])([H:8])[H:9]>>[C:1]([C@@:2]1([H:10])[C:3]([H:11])([H:12])[C:4]([H:13])=[C:5]1[H:15])([H:7])([H:8])[H:9].[O:6]([H:14])[H:16]"
C        1.49386876      -0.88948880       0.01949713
C        0.46558999      -0.07312647       0.77916939
C        0.32727173       1.41057933       0.33294656
C       -1.06477835       1.07089251      -0.18378086
C       -0.99641042      -0.25156480       0.36873327
O       -1.31447596      -1.06774812      -1.48803442
H        1.41222375      -1.95170024       0.26041371
H        1.36154699      -0.77038861      -1.05853592
H        2.50754194      -0.57192450       0.27358756
H        0.62611952      -0.18377460       1.85545366
H        0.33495376       2.11751946       1.16417705
H        1.03485589       1.74834461      -0.42666756
H       -1.92078023       1.73891993      -0.13452624
H       -1.18521358       0.33095762      -1.50736455
H       -1.75014068      -0.65108318       1.04215599
H       -1.33217311      -2.00641414      -1.29722476
16
Frame=15 idx=003017 GeodesicLength=0.8554940864485296 rxn_smarts="[C:1]([C@@:2]1([H:10])[C:3]([H:11])([H:12])[C:4]([H:13])([H:14])[C@:5]1([O:6][H:16])[H:15])([H:7])([H:8])[H:9]>>[C:1]([C@@:2]1([H:10])[C:3]([H:11])([H:12])[C:4]([H:13])=[C:5]1[H:15])([H:7])([H:8])[H:9].[O:6]([H:14])[H:16]"
C        1.49866707      -0.88255690       0.01725462
C        0.46919818      -0.07529519       0.78556762
C        0.32705727       1.40885563       0.34240081
C       -1.05554818       1.06362316      -0.19442616
C       -0.99145223      -0.25693792       0.36660879
O       -1.30093930      -1.08324988      -1.50053311
H        1.42068465      -1.94702993       0.24934634
H        1.36408607      -0.75555575      -1.05968704
H        2.51180107      -0.56337214       0.27166445
H        0.63365952      -0.19185740       1.86054399
H        0.31789217       2.11338885       1.17567225
H        1.04153323       1.75398881      -0.40729010
H       -1.91257560       1.73123826      -0.15044199
H       -1.18179544       0.32852129      -1.53270317
H       -1.74723196      -0.63436083       1.05113624
H       -1.39503651      -2.00940005      -1.27511355
16
Frame=16 idx=003017 GeodesicLength=0.9113597302987335 rxn_smarts="[C:1]([C@@:2]1([H:10])[C:3]([H:11])([H:12])[C:4]([H:13])([H:14])[C@:5]1([O:6][H:16])[H:15])([H:7])([H:8])[H:9]>>[C:1]([C@@:2]1([H:10])[C:3]([H:11])([H:12])[C:4]([H:13])=[C:5]1[H:15])([H:7])([H:8])[H:9].[O:6]([H:14])[H:16]"
C        1.50373670      -0.87562976       0.01545890
C        0.47307469      -0.07748471       0.79221617
C        0.32657679       1.40680199       0.35148297
C       -1.04621850       1.05545415      -0.20505149
C       -0.98629494      -0.26278305       0.36526576
O       -1.28690701      -1.10023692      -1.51184620
H        1.42932792      -1.94221956       0.23870498
H        1.36689868      -0.74084837      -1.06028444
H        2.51630101      -0.55474455       0.27013332
H        0.64182877      -0.19939723       1.86578729
H        0.30041371       2.10911621       1.18620699
H        1.04762935       1.75913776      -0.38836678
H       -1.90438883       1.72247956      -0.16666182
H       -1.17867003       0.32474746      -1.55783465
H       -1.74373070      -0.61770512       1.06064197
H       -1.45957762      -2.00668786      -1.25585298
