16
Frame=0 idx=006481 GeodesicLength=0.0 rxn_smarts="[C:1]([C@@:2]([C:3]([O:4][H:14])([H:12])[H:13])([N:5]([C:6](=[O:7])[H:16])[H:15])[H:11])([H:8])([H:9])[H:10]>>[C:1]1([H:8])([H:9])[C@@:2]([N:5]([C:6](=[O:7])[H:16])[H:15])([H:11])[C@:3]1([O:4][H:14])[H:12].[H:10][H:13]"
C       -1.11749228       1.44743854       0.02485272
C       -0.17506704       0.41028267       0.35456373
C       -0.85721777      -0.97418428       0.36329368
O       -0.39934838      -1.93909335       1.10306234
N        1.08936198       0.44163614      -0.38139116
C        2.12209113      -0.35508328      -0.11071417
O        2.09535187      -1.29161687       0.68218593
H       -1.04450963       2.00207956      -0.90082290
H       -1.69615671       1.88511988       0.82329941
H       -1.65148458       0.14456363      -1.48933119
H        0.04491052       0.49321708       1.43055550
H       -1.93727496      -0.97781978       0.24974950
H       -1.33069340      -0.55788046      -1.61556945
H        0.59495568      -1.84058401       1.13210383
H        1.22351970       1.22302095      -1.00103979
H        3.03905390      -0.11109649      -0.66479794
16
Frame=1 idx=006481 GeodesicLength=0.11209144536637719 rxn_smarts="[C:1]([C@@:2]([C:3]([O:4][H:14])([H:12])[H:13])([N:5]([C:6](=[O:7])[H:16])[H:15])[H:11])([H:8])([H:9])[H:10]>>[C:1]1([H:8])([H:9])[C@@:2]([N:5]([C:6](=[O:7])[H:16])[H:15])([H:11])[C@:3]1([O:4][H:14])[H:12].[H:10][H:13]"
C       -1.13459754       1.42496970       0.02273178
C       -0.16138206       0.41836561       0.36970346
C       -0.86024892      -0.95416891       0.36682157
O       -0.42024860      -1.91703642       1.13057282
N        1.09483137       0.45089052      -0.37609960
C        2.12551370      -0.35544284      -0.12138692
O        2.09970148      -1.29886358       0.66192191
H       -1.04090394       2.00696288      -0.88420199
H       -1.72655859       1.85212875       0.81773895
H       -1.62859331       0.15404879      -1.50884061
H        0.05915464       0.51010241       1.44371562
H       -1.93778383      -0.97776553       0.23399464
H       -1.30244998      -0.57105238      -1.60360124
H        0.57496924      -1.85158850       1.14082218
H        1.22764653       1.23430778      -0.99326541
H        3.03094981      -0.12585827      -0.70062716
16
Frame=2 idx=006481 GeodesicLength=0.2241730437054105 rxn_smarts="[C:1]([C@@:2]([C:3]([O:4][H:14])([H:12])[H:13])([N:5]([C:6](=[O:7])[H:16])[H:15])[H:11])([H:8])([H:9])[H:10]>>[C:1]1([H:8])([H:9])[C@@:2]([N:5]([C:6](=[O:7])[H:16])[H:15])([H:11])[C@:3]1([O:4][H:14])[H:12].[H:10][H:13]"
C       -1.15014817       1.40249119       0.02022973
C       -0.14808045       0.42616729       0.38416473
C       -0.86287651      -0.93471664       0.36955906
O       -0.44076032      -1.89493064       1.15707048
N        1.10029140       0.45981500      -0.37092770
C        2.12909625      -0.35529823      -0.13140567
O        2.10400141      -1.30529195       0.64252617
H       -1.03805413       2.01165957      -0.86669947
H       -1.75471502       1.81904445       0.81201157
H       -1.60640930       0.16399413      -1.52767946
H        0.07286325       0.52680257       1.45617916
H       -1.93726774      -0.97881866       0.21809857
H       -1.27552369      -0.58335356      -1.59159916
H        0.55394691      -1.86230840       1.15055422
H        1.23163711       1.24461045      -0.98646635
H        3.02199901      -0.13986657      -0.73561588
16
Frame=3 idx=006481 GeodesicLength=0.33624991549547756 rxn_smarts="[C:1]([C@@:2]([C:3]([O:4][H:14])([H:12])[H:13])([N:5]([C:6](=[O:7])[H:16])[H:15])[H:11])([H:8])([H:9])[H:10]>>[C:1]1([H:8])([H:9])[C@@:2]([N:5]([C:6](=[O:7])[H:16])[H:15])([H:11])[C@:3]1([O:4][H:14])[H:12].[H:10][H:13]"
C       -1.16420609       1.38008137       0.01738702
C       -0.13514907       0.43363516       0.39794878
C       -0.86512146      -0.91587017       0.37152316
O       -0.46100170      -1.87282190       1.18262459
N        1.10572028       0.46838553      -0.36594036
C        2.13282173      -0.35477316      -0.14096572
O        2.10834085      -1.31096254       0.62390129
H       -1.03592084       2.01610179      -0.84844036
H       -1.78070843       1.78596105       0.80616424
H       -1.58506101       0.17444464      -1.54581993
H        0.08610347       0.54327345       1.46793319
H       -1.93576691      -0.98086166       0.20214972
H       -1.24979452      -0.59489948      -1.57965393
H        0.53188878      -1.87275016       1.16133898
H        1.23549792       1.25404530      -0.98053347
H        3.01235701      -0.15298921      -0.76961720
16
Frame=4 idx=006481 GeodesicLength=0.44832530139779425 rxn_smarts="[C:1]([C@@:2]([C:3]([O:4][H:14])([H:12])[H:13])([N:5]([C:6](=[O:7])[H:16])[H:15])[H:11])([H:8])([H:9])[H:10]>>[C:1]1([H:8])([H:9])[C@@:2]([N:5]([C:6](=[O:7])[H:16])[H:15])([H:11])[C@:3]1([O:4][H:14])[H:12].[H:10][H:13]"
C       -1.17683101       1.35780721       0.01423876
C       -0.12256352       0.44071050       0.41103764
C       -0.86702159      -0.89766216       0.37274935
O       -0.48110173      -1.85072820       1.20732556
N        1.11108420       0.47653936      -0.36125602
C        2.13664414      -0.35403102      -0.15031538
O        2.11278225      -1.31599195       0.60587921
H       -1.03445930       2.02022403      -0.82954823
H       -1.80458075       1.75298593       0.80025476
H       -1.56472228       0.18543632      -1.56322860
H        0.09898102       0.55947348       1.47893808
H       -1.93335527      -0.98375753       0.18626940
H       -1.22520176      -0.60583373      -1.56781892
H        0.50876687      -1.88295530       1.17316689
H        1.23922135       1.26267028      -0.97543095
H        3.00235738      -0.16488724      -0.80226156
16
Frame=5 idx=006481 GeodesicLength=0.5604049114925256 rxn_smarts="[C:1]([C@@:2]([C:3]([O:4][H:14])([H:12])[H:13])([N:5]([C:6](=[O:7])[H:16])[H:15])[H:11])([H:8])([H:9])[H:10]>>[C:1]1([H:8])([H:9])[C@@:2]([N:5]([C:6](=[O:7])[H:16])[H:15])([H:11])[C@:3]1([O:4][H:14])[H:12].[H:10][H:13]"
C       -1.18812332       1.33571373       0.01082464
C       -0.11031387       0.44736854       0.42346917
C       -0.86857209      -0.88011932       0.37325575
O       -0.50115643      -1.82865155       1.23124658
N        1.11637949       0.48431401      -0.35685654
C        2.14056234      -0.35309194      -0.15952212
O        2.11741825      -1.32037827       0.58844402
H       -1.03362701       2.02398756      -0.81010044
H       -1.82648060       1.72016039       0.79431518
H       -1.54544042       0.19701347      -1.57993002
H        0.11151136       0.57538259       1.48922599
H       -1.93005783      -0.98741857       0.17047346
H       -1.20152687      -0.61628784      -1.55617027
H        0.48456781      -1.89292765       1.18606926
H        1.24283479       1.27064689      -0.97097671
H        2.99202438      -0.17571204      -0.83376796
16
Frame=6 idx=006481 GeodesicLength=0.6724933384487838 rxn_smarts="[C:1]([C@@:2]([C:3]([O:4][H:14])([H:12])[H:13])([N:5]([C:6](=[O:7])[H:16])[H:15])[H:11])([H:8])([H:9])[H:10]>>[C:1]1([H:8])([H:9])[C@@:2]([N:5]([C:6](=[O:7])[H:16])[H:15])([H:11])[C@:3]1([O:4][H:14])[H:12].[H:10][H:13]"
C       -1.19817577       1.31383382       0.00717851
C       -0.09838277       0.45358536       0.43527596
C       -0.86977167      -0.86326117       0.37306893
O       -0.52126347      -1.80658098       1.25445914
N        1.12160143       0.49173241      -0.35274168
C        2.14456998      -0.35198514      -0.16866868
O        2.12233206      -1.32413697       0.57155448
H       -1.03337800       2.02735938      -0.79016217
H       -1.84653418       1.68752015       0.78837640
H       -1.52727096       0.20922354      -1.59594898
H        0.12372540       0.59098414       1.49882144
H       -1.92590830      -0.99175638       0.15478399
H       -1.17857523      -0.62640388      -1.54475738
H        0.45925852      -1.90268178       1.20005985
H        1.24635638       1.27809927      -0.96703592
H        2.98141659      -0.18553179      -0.86426388
16
Frame=7 idx=006481 GeodesicLength=0.7845947194231316 rxn_smarts="[C:1]([C@@:2]([C:3]([O:4][H:14])([H:12])[H:13])([N:5]([C:6](=[O:7])[H:16])[H:15])[H:11])([H:8])([H:9])[H:10]>>[C:1]1([H:8])([H:9])[C@@:2]([N:5]([C:6](=[O:7])[H:16])[H:15])([H:11])[C@:3]1([O:4][H:14])[H:12].[H:10][H:13]"
C       -1.20707430       1.29219053       0.00332980
C       -0.08674650       0.45933877       0.44648554
C       -0.87062215      -0.84710154       0.37222252
O       -0.54152078      -1.78449578       1.27703203
N        1.12674424       0.49880611      -0.34892680
C        2.14865923      -0.35074175      -0.17784160
O        2.12759694      -1.32730119       0.55514441
H       -1.03366500       2.03031377      -0.76978660
H       -1.86484941       1.65509508       0.78246994
H       -1.51027825       0.22211888      -1.61131231
H        0.13566740       0.60626495       1.50774273
H       -1.92094815      -0.99668702       0.13922741
H       -1.15617646      -0.63633160      -1.53360707
H        0.43278588      -1.91223869       1.21514268
H        1.24979343       1.28511688      -0.96352062
H        2.97063387      -0.19434740      -0.89380206
16
Frame=8 idx=006481 GeodesicLength=0.8967250042766717 rxn_smarts="[C:1]([C@@:2]([C:3]([O:4][H:14])([H:12])[H:13])([N:5]([C:6](=[O:7])[H:16])[H:15])[H:11])([H:8])([H:9])[H:10]>>[C:1]1([H:8])([H:9])[C@@:2]([N:5]([C:6](=[O:7])[H:16])[H:15])([H:11])[C@:3]1([O:4][H:14])[H:12].[H:10][H:13]"
C       -1.21491125       1.27079887      -0.00070000
C       -0.07537815       0.46462592       0.45715567
C       -0.87111355      -0.83166497       0.37074626
O       -0.56202152      -1.76240518       1.29903038
N        1.13183331       0.50560862      -0.34536559
C        2.15286141      -0.34932672      -0.18705881
O        2.13332196      -1.32984378       0.53923448
H       -1.03443994       2.03285956      -0.74901261
H       -1.88156531       1.62287899       0.77661092
H       -1.49448701       0.23577251      -1.62609097
H        0.14736206       0.62121904       1.51605871
H       -1.91521140      -1.00217737       0.12377405
H       -1.13411336      -0.64620725      -1.52277005
H        0.40510038      -1.92161493       1.23137490
H        1.25317567       1.29184683      -0.96030814
H        2.95958669      -0.20237014      -0.92267919
16
Frame=9 idx=006481 GeodesicLength=1.0088659660901624 rxn_smarts="[C:1]([C@@:2]([C:3]([O:4][H:14])([H:12])[H:13])([N:5]([C:6](=[O:7])[H:16])[H:15])[H:11])([H:8])([H:9])[H:10]>>[C:1]1([H:8])([H:9])[C@@:2]([N:5]([C:6](=[O:7])[H:16])[H:15])([H:11])[C@:3]1([O:4][H:14])[H:12].[H:10][H:13]"
C       -1.22173583       1.24965535      -0.00488101
C       -0.06424163       0.46939027       0.46723867
C       -0.87126694      -0.81691809       0.36869553
O       -0.58286096      -1.74012734       1.32054408
N        1.13679693       0.51197849      -0.34222799
C        2.15710194      -0.34788674      -0.19650839
O        2.13946361      -1.33198532       0.52350414
H       -1.03569830       2.03488064      -0.72788649
H       -1.89667685       1.59094786       0.77085167
H       -1.48001912       0.25021114      -1.64022615
H        0.15891500       0.63583719       1.52365218
H       -1.90875286      -1.00806100       0.10856108
H       -1.11237078      -0.65625045      -1.51212655
H        0.37604972      -1.93086186       1.24858924
H        1.25646981       1.29821930      -0.95743515
H        2.94882628      -0.20902946      -0.95034487
16
Frame=10 idx=006481 GeodesicLength=1.1210430248043075 rxn_smarts="[C:1]([C@@:2]([C:3]([O:4][H:14])([H:12])[H:13])([N:5]([C:6](=[O:7])[H:16])[H:15])[H:11])([H:8])([H:9])[H:10]>>[C:1]1([H:8])([H:9])[C@@:2]([N:5]([C:6](=[O:7])[H:16])[H:15])([H:11])[C@:3]1([O:4][H:14])[H:12].[H:10][H:13]"
C       -1.22766863       1.22871236      -0.00919026
C       -0.05335508       0.47370005       0.47693760
C       -0.87095653      -0.80287228       0.36605631
O       -0.60410335      -1.71771637       1.34150603
N        1.14176027       0.51826521      -0.33911098
C        2.16146467      -0.34617709      -0.20602845
O        2.14626526      -1.33325829       0.50842115
H       -1.03732814       2.03644356      -0.70627696
H       -1.91056885       1.55904517       0.76510172
H       -1.46652515       0.26557802      -1.65386696
H        0.17011683       0.65013478       1.53078640
H       -1.90140510      -1.01441953       0.09330243
H       -1.09024859      -0.66648554      -1.50179645
H        0.34563658      -1.93979193       1.26702009
H        1.25976579       1.30454653      -0.95447872
H        2.93715005      -0.21570466      -0.97838296
16
Frame=11 idx=006481 GeodesicLength=1.2332913844678055 rxn_smarts="[C:1]([C@@:2]([C:3]([O:4][H:14])([H:12])[H:13])([N:5]([C:6](=[O:7])[H:16])[H:15])[H:11])([H:8])([H:9])[H:10]>>[C:1]1([H:8])([H:9])[C@@:2]([N:5]([C:6](=[O:7])[H:16])[H:15])([H:11])[C@:3]1([O:4][H:14])[H:12].[H:10][H:13]"
C       -1.23274376       1.20799752      -0.01362969
C       -0.04264292       0.47751760       0.48620604
C       -0.87023834      -0.78955811       0.36289901
O       -0.62586608      -1.69512177       1.36205568
N        1.14669285       0.52435520      -0.33621667
C        2.16594054      -0.34431660      -0.21578760
O        2.15374221      -1.33393945       0.49368285
H       -1.03934670       2.03755163      -0.68427888
H       -1.92317933       1.52726733       0.75941776
H       -1.45426074       0.28195404      -1.66704701
H        0.18117508       0.66410836       1.53739362
H       -1.89331431      -1.02119783       0.07812243
H       -1.06787578      -0.67714574      -1.49171389
H        0.31369663      -1.94854421       1.28662860
H        1.26304281       1.31082295      -0.95159433
H        2.92517783      -0.22175093      -1.00613792
16
Frame=12 idx=006481 GeodesicLength=1.3456095635896748 rxn_smarts="[C:1]([C@@:2]([C:3]([O:4][H:14])([H:12])[H:13])([N:5]([C:6](=[O:7])[H:16])[H:15])[H:11])([H:8])([H:9])[H:10]>>[C:1]1([H:8])([H:9])[C@@:2]([N:5]([C:6](=[O:7])[H:16])[H:15])([H:11])[C@:3]1([O:4][H:14])[H:12].[H:10][H:13]"
C       -1.23701594       1.18746988      -0.01818343
C       -0.03208438       0.48083917       0.49510393
C       -0.86906221      -0.77696896       0.35924122
O       -0.64824131      -1.67227575       1.38217594
N        1.15161760       0.53030743      -0.33346896
C        2.17054269      -0.34225762      -0.22580275
O        2.16198943      -1.33393868       0.47931648
H       -1.04171251       2.03816794      -0.66183681
H       -1.93461516       1.49553976       0.75379183
H       -1.44316196       0.29945990      -1.67979733
H        0.19206147       0.67774856       1.54352844
H       -1.88442412      -1.02837347       0.06294887
H       -1.04495095      -0.68836838      -1.48184620
H        0.28011482      -1.95703136       1.30746273
H        1.26629920       1.31710714      -0.94868341
H        2.91264333      -0.22742556      -1.03395054
16
Frame=13 idx=006481 GeodesicLength=1.4580104513676546 rxn_smarts="[C:1]([C@@:2]([C:3]([O:4][H:14])([H:12])[H:13])([N:5]([C:6](=[O:7])[H:16])[H:15])[H:11])([H:8])([H:9])[H:10]>>[C:1]1([H:8])([H:9])[C@@:2]([N:5]([C:6](=[O:7])[H:16])[H:15])([H:11])[C@:3]1([O:4][H:14])[H:12].[H:10][H:13]"
C       -1.24052285       1.16710089      -0.02284545
C       -0.02164043       0.48365005       0.50365441
C       -0.86741059      -0.76510781       0.35512345
O       -0.67133480      -1.64911005       1.40188305
N        1.15654525       0.53613057      -0.33088026
C        2.17528394      -0.33998980      -0.23613146
O        2.17108288      -1.33325201       0.46525737
H       -1.04439157       2.03826381      -0.63892775
H       -1.94492628       1.46382428       0.74822958
H       -1.43328542       0.31822119      -1.69213663
H        0.20281836       0.69104486       1.54920488
H       -1.87473637      -1.03592263       0.04778129
H       -1.02129423      -0.70032815      -1.47212949
H        0.24472530      -1.96523082       1.32951783
H        1.26952579       1.32341356      -0.94575107
H        2.89956100      -0.23270794      -1.06184975
16
Frame=14 idx=006481 GeodesicLength=1.5705114336835164 rxn_smarts="[C:1]([C@@:2]([C:3]([O:4][H:14])([H:12])[H:13])([N:5]([C:6](=[O:7])[H:16])[H:15])[H:11])([H:8])([H:9])[H:10]>>[C:1]1([H:8])([H:9])[C@@:2]([N:5]([C:6](=[O:7])[H:16])[H:15])([H:11])[C@:3]1([O:4][H:14])[H:12].[H:10][H:13]"
C       -1.24329516       1.14685631      -0.02761434
C       -0.01126988       0.48593456       0.51188064
C       -0.86526242      -0.75398092       0.35058564
O       -0.69525579      -1.62555229       1.42118301
N        1.16148836       0.54183478      -0.32846052
C        2.18018004      -0.33749881      -0.24682839
O        2.18110184      -1.33187390       0.45143523
H       -1.04735440       2.03780869      -0.61552013
H       -1.95415668       1.43207256       0.74273046
H       -1.42469389       0.33838794      -1.70408212
H        0.21348839       0.70398326       1.55443860
H       -1.86424708      -1.04383217       0.03261208
H       -0.99671416      -0.71321457      -1.46248834
H        0.20734717      -1.97309865       1.35280506
H        1.27271076       1.32975806      -0.94280186
H        2.88593289      -0.23758485      -1.08987503
16
Frame=15 idx=006481 GeodesicLength=1.6831356809440632 rxn_smarts="[C:1]([C@@:2]([C:3]([O:4][H:14])([H:12])[H:13])([N:5]([C:6](=[O:7])[H:16])[H:15])[H:11])([H:8])([H:9])[H:10]>>[C:1]1([H:8])([H:9])[C@@:2]([N:5]([C:6](=[O:7])[H:16])[H:15])([H:11])[C@:3]1([O:4][H:14])[H:12].[H:10][H:13]"
C       -1.24535704       1.12669451      -0.03249357
C       -0.00093258       0.48768271       0.51981935
C       -0.86258403      -0.74359896       0.34566478
O       -0.72011843      -1.60152983       1.44006643
N        1.16647223       0.54745621      -0.32618792
C        2.18525452      -0.33475065      -0.25793932
O        2.19214913      -1.32975295       0.43782349
H       -1.05057328       2.03676947      -0.59156928
H       -1.96235993       1.40021511       0.73727983
H       -1.41743153       0.36013850      -1.71565429
H        0.22409474       0.71655070       1.55926545
H       -1.85292680      -1.05210985       0.01740771
H       -0.97096032      -0.72723035      -1.45283890
H        0.16778365      -1.98057023       1.37734449
H        1.27585571       1.33618666      -0.93980612
H        2.87163395      -0.24215105      -1.11818213
16
Frame=16 idx=006481 GeodesicLength=1.7959100872366578 rxn_smarts="[C:1]([C@@:2]([C:3]([O:4][H:14])([H:12])[H:13])([N:5]([C:6](=[O:7])[H:16])[H:15])[H:11])([H:8])([H:9])[H:10]>>[C:1]1([H:8])([H:9])[C@@:2]([N:5]([C:6](=[O:7])[H:16])[H:15])([H:11])[C@:3]1([O:4][H:14])[H:12].[H:10][H:13]"
C       -1.24672318       1.10657179      -0.03748939
C        0.00941765       0.48887555       0.52748398
C       -0.85934182      -0.73396600       0.34040219
O       -0.74602712      -1.57693995       1.45851612
N        1.17150676       0.55299962      -0.32407722
C        2.19052476      -0.33172336      -0.26951288
O        2.20431891      -1.32685637       0.42436894
H       -1.05402740       2.03509579      -0.56703370
H       -1.96956074       1.36819040       0.73186397
H       -1.41161298       0.38367863      -1.72683848
H        0.23468264       0.72872692       1.56368673
H       -1.84074609      -1.06075351       0.00216256
H       -0.94379771      -0.74260092      -1.44305693
H        0.12580071      -1.98759337       1.40309876
H        1.27893733       1.34270078      -0.93678033
H        2.85664827      -0.24640598      -1.14679432
