10
Frame=0 idx=007270 GeodesicLength=0.0 rxn_smarts="[N:1]#[C:2][c:3]1[n:4][c:5]([H:8])[c:6]([H:9])[n:7]1[H:10]>>[N:1]#[C:2][C:3]1=[N:7][C:6]([H:9])([H:10])[C:5]([H:8])=[N:4]1"
N        3.36420059      -0.67252796       0.15175900
C        2.23337600      -0.48189510       0.15069276
C        0.82037595      -0.23922585       0.14984149
N       -0.08222025      -1.22632431       0.19045022
C       -1.26129725      -0.62247468       0.08767418
C       -1.08433349       0.76122068      -0.00459410
N        0.33117741       1.00667150       0.07657137
H       -2.19006238      -1.17372779       0.07917521
H       -1.77986381       1.57775536       0.11645854
H       -0.35135277       1.07052816      -0.99802865
10
Frame=1 idx=007270 GeodesicLength=0.04033765714311767 rxn_smarts="[N:1]#[C:2][c:3]1[n:4][c:5]([H:8])[c:6]([H:9])[n:7]1[H:10]>>[N:1]#[C:2][C:3]1=[N:7][C:6]([H:9])([H:10])[C:5]([H:8])=[N:4]1"
N        3.36355770      -0.67220684       0.14383830
C        2.23267112      -0.48219892       0.15531713
C        0.81957864      -0.24011705       0.15852996
N       -0.08404058      -1.22817072       0.20283119
C       -1.26132653      -0.62487355       0.08411240
C       -1.08414884       0.75996241      -0.01412201
N        0.32864827       1.00273173       0.07467257
H       -2.19048311      -1.17563024       0.07855840
H       -1.77965378       1.57365039       0.12591691
H       -0.34480291       1.08685279      -1.00965487
10
Frame=2 idx=007270 GeodesicLength=0.08067292161142726 rxn_smarts="[N:1]#[C:2][c:3]1[n:4][c:5]([H:8])[c:6]([H:9])[n:7]1[H:10]>>[N:1]#[C:2][C:3]1=[N:7][C:6]([H:9])([H:10])[C:5]([H:8])=[N:4]1"
N        3.36276576      -0.67204365       0.13676610
C        2.23193194      -0.48257008       0.15894326
C        0.81877966      -0.24093197       0.16698736
N       -0.08590979      -1.22986007       0.21566292
C       -1.26127537      -0.62732587       0.08080538
C       -1.08394264       0.75864442      -0.02362825
N        0.32614067       0.99876957       0.07234426
H       -2.19080762      -1.17760084       0.07776499
H       -1.77931278       1.56915749       0.13544231
H       -0.33836983       1.10376100      -1.02108833
10
Frame=3 idx=007270 GeodesicLength=0.12100948313934617 rxn_smarts="[N:1]#[C:2][c:3]1[n:4][c:5]([H:8])[c:6]([H:9])[n:7]1[H:10]>>[N:1]#[C:2][C:3]1=[N:7][C:6]([H:9])([H:10])[C:5]([H:8])=[N:4]1"
N        3.36187288      -0.67203045       0.13070867
C        2.23114986      -0.48304366       0.16148147
C        0.81798832      -0.24168150       0.17514060
N       -0.08782119      -1.23139215       0.22882879
C       -1.26114709      -0.62983033       0.07778646
C       -1.08372030       0.75726599      -0.03307275
N        0.32366399       0.99477223       0.06955076
H       -2.19103794      -1.17964730       0.07687975
H       -1.77882989       1.56429197       0.14500175
H       -0.33211864       1.12129520      -1.03230549
10
Frame=4 idx=007270 GeodesicLength=0.16135633474149652 rxn_smarts="[N:1]#[C:2][c:3]1[n:4][c:5]([H:8])[c:6]([H:9])[n:7]1[H:10]>>[N:1]#[C:2][C:3]1=[N:7][C:6]([H:9])([H:10])[C:5]([H:8])=[N:4]1"
N        3.36087534      -0.67219070       0.12505344
C        2.23031030      -0.48359647       0.16342626
C        0.81719143      -0.24234897       0.18321738
N       -0.08978334      -1.23275713       0.24236364
C       -1.26094489      -0.63239607       0.07503284
C       -1.08348756       0.75581374      -0.04248369
N        0.32120227       0.99074219       0.06642778
H       -2.19117273      -1.18179277       0.07583971
H       -1.77824906       1.55906082       0.15435223
H       -0.32594174       1.13946537      -1.04322958
10
Frame=5 idx=007270 GeodesicLength=0.20173424730811407 rxn_smarts="[N:1]#[C:2][c:3]1[n:4][c:5]([H:8])[c:6]([H:9])[n:7]1[H:10]>>[N:1]#[C:2][C:3]1=[N:7][C:6]([H:9])([H:10])[C:5]([H:8])=[N:4]1"
N        3.35977915      -0.67253893       0.11965325
C        2.22940896      -0.48422291       0.16492993
C        0.81639044      -0.24293071       0.19126808
N       -0.09178899      -1.23395811       0.25621028
C       -1.26067428      -0.63502753       0.07257036
C       -1.08325305       0.75427845      -0.05184058
N        0.31876008       0.98667545       0.06299917
H       -2.19120365      -1.18405256       0.07464967
H       -1.77756661       1.55348868       0.16338470
H       -0.31985205       1.15828817      -1.05382487
10
Frame=6 idx=007270 GeodesicLength=0.24215618495622632 rxn_smarts="[N:1]#[C:2][c:3]1[n:4][c:5]([H:8])[c:6]([H:9])[n:7]1[H:10]>>[N:1]#[C:2][C:3]1=[N:7][C:6]([H:9])([H:10])[C:5]([H:8])=[N:4]1"
N        3.35866172      -0.67301495       0.11502290
C        2.22846948      -0.48496586       0.16572050
C        0.81560357      -0.24346883       0.19907826
N       -0.09383175      -1.23505464       0.27005271
C       -1.26035808      -0.63773701       0.07040719
C       -1.08301738       0.75265256      -0.06109120
N        0.31636987       0.98254656       0.05914672
H       -2.19117807      -1.18639904       0.07359021
H       -1.77675352       1.54762331       0.17216473
H       -0.31396583       1.17781790      -1.06409202
10
Frame=7 idx=007270 GeodesicLength=0.2822318569034869 rxn_smarts="[N:1]#[C:2][c:3]1[n:4][c:5]([H:8])[c:6]([H:9])[n:7]1[H:10]>>[N:1]#[C:2][C:3]1=[N:7][C:6]([H:9])([H:10])[C:5]([H:8])=[N:4]1"
N        3.35758897      -0.67356495       0.11191961
C        2.22743708      -0.48593615       0.16527714
C        0.81483323      -0.24399393       0.20633037
N       -0.09587536      -1.23600913       0.28381841
C       -1.25997860      -0.64044303       0.06865450
C       -1.08275628       0.75097972      -0.07035936
N        0.31399723       0.97827848       0.05454972
H       -2.19106039      -1.18879618       0.07275132
H       -1.77577393       1.54139658       0.18106760
H       -0.30841194       1.19808860      -1.07400934
10
Frame=8 idx=007270 GeodesicLength=0.32231259707109433 rxn_smarts="[N:1]#[C:2][c:3]1[n:4][c:5]([H:8])[c:6]([H:9])[n:7]1[H:10]>>[N:1]#[C:2][C:3]1=[N:7][C:6]([H:9])([H:10])[C:5]([H:8])=[N:4]1"
N        3.35663219      -0.67415542       0.11030199
C        2.22636368      -0.48712176       0.16369648
C        0.81410357      -0.24453107       0.21305427
N       -0.09792662      -1.23690411       0.29730565
C       -1.25958798      -0.64322094       0.06723136
C       -1.08251642       0.74920912      -0.07949507
N        0.31170880       0.97388893       0.04932199
H       -2.19092589      -1.19126011       0.07230220
H       -1.77457106       1.53495182       0.18987031
H       -0.30328026       1.21914355      -1.08358919
10
Frame=9 idx=007270 GeodesicLength=0.36246125923282024 rxn_smarts="[N:1]#[C:2][c:3]1[n:4][c:5]([H:8])[c:6]([H:9])[n:7]1[H:10]>>[N:1]#[C:2][C:3]1=[N:7][C:6]([H:9])([H:10])[C:5]([H:8])=[N:4]1"
N        3.35577486      -0.67475935       0.11034935
C        2.22522485      -0.48858819       0.16074867
C        0.81342454      -0.24508971       0.21920629
N       -0.09996768      -1.23771085       0.31064106
C       -1.25917442      -0.64604997       0.06617780
C       -1.08229336       0.74734934      -0.08850273
N        0.30949104       0.96934689       0.04339735
H       -2.19075611      -1.19380478       0.07217899
H       -1.77314170       1.52827113       0.19862708
H       -0.29858201       1.24103550      -1.09282385
10
Frame=10 idx=007270 GeodesicLength=0.4026121503487861 rxn_smarts="[N:1]#[C:2][c:3]1[n:4][c:5]([H:8])[c:6]([H:9])[n:7]1[H:10]>>[N:1]#[C:2][C:3]1=[N:7][C:6]([H:9])([H:10])[C:5]([H:8])=[N:4]1"
N        3.35518653      -0.67521693       0.11312989
C        2.22400163      -0.49052127       0.15564656
C        0.81282611      -0.24574480       0.22438649
N       -0.10198723      -1.23845712       0.32363373
C       -1.25877147      -0.64893103       0.06551605
C       -1.08210230       0.74540957      -0.09733375
N        0.30737765       0.96460407       0.03649633
H       -2.19060010      -1.19640193       0.07262576
H       -1.77137227       1.52142468       0.20763080
H       -0.29455855       1.26383475      -1.10173188
10
Frame=11 idx=007270 GeodesicLength=0.44285693599193043 rxn_smarts="[N:1]#[C:2][c:3]1[n:4][c:5]([H:8])[c:6]([H:9])[n:7]1[H:10]>>[N:1]#[C:2][C:3]1=[N:7][C:6]([H:9])([H:10])[C:5]([H:8])=[N:4]1"
N        3.35337353      -0.67681781       0.10657920
C        2.22266827      -0.49155240       0.15706608
C        0.81198060      -0.24573596       0.23316729
N       -0.10421787      -1.23864941       0.33938816
C       -1.25808997      -0.65204393       0.06454299
C       -1.08183203       0.74316719      -0.10699058
N        0.30501685       0.96006385       0.03122698
H       -2.18994531      -1.19962325       0.07082960
H       -1.77031809       1.51400274       0.21362496
H       -0.28863598       1.28718898      -1.10943467
10
Frame=12 idx=007270 GeodesicLength=0.48288341585214023 rxn_smarts="[N:1]#[C:2][c:3]1[n:4][c:5]([H:8])[c:6]([H:9])[n:7]1[H:10]>>[N:1]#[C:2][C:3]1=[N:7][C:6]([H:9])([H:10])[C:5]([H:8])=[N:4]1"
N        3.35228324      -0.67787196       0.10681722
C        2.22124805      -0.49353540       0.15346916
C        0.81133820      -0.24606148       0.23941256
N       -0.10632178      -1.23887740       0.35376259
C       -1.25750485      -0.65513570       0.06425179
C       -1.08162790       0.74088006      -0.11619184
N        0.30289234       0.95513474       0.02398354
H       -2.18943244      -1.20271595       0.07051787
H       -1.76854231       1.50658077       0.22094365
H       -0.28433255       1.31160231      -1.11696653
10
Frame=13 idx=007270 GeodesicLength=0.5229961485774787 rxn_smarts="[N:1]#[C:2][c:3]1[n:4][c:5]([H:8])[c:6]([H:9])[n:7]1[H:10]>>[N:1]#[C:2][C:3]1=[N:7][C:6]([H:9])([H:10])[C:5]([H:8])=[N:4]1"
N        3.35089573      -0.67932547       0.10523668
C        2.21973706      -0.49546098       0.15105874
C        0.81065318      -0.24617618       0.24638687
N       -0.10849384      -1.23883847       0.36894514
C       -1.25680599      -0.65837886       0.06401163
C       -1.08141087       0.73838974      -0.12568933
N        0.30074263       0.95011589       0.01665348
H       -2.18872655      -1.20611053       0.06988028
H       -1.76684629       1.49884169       0.22722117
H       -0.27974506       1.33694318      -1.12370465
10
Frame=14 idx=007270 GeodesicLength=0.5631054496240703 rxn_smarts="[N:1]#[C:2][c:3]1[n:4][c:5]([H:8])[c:6]([H:9])[n:7]1[H:10]>>[N:1]#[C:2][C:3]1=[N:7][C:6]([H:9])([H:10])[C:5]([H:8])=[N:4]1"
N        3.34940159      -0.68104421       0.10362929
C        2.21812756      -0.49755690       0.14851657
C        0.80998610      -0.24616570       0.25339794
N       -0.11068703      -1.23852469       0.38461049
C       -1.25601328      -0.66175751       0.06388745
C       -1.08120075       0.73570173      -0.13538162
N        0.29862145       0.94493034       0.00878589
H       -2.18786619      -1.20974380       0.06930339
H       -1.76507063       1.49083168       0.23292404
H       -0.27529881       1.36332907      -1.12967343
10
Frame=15 idx=007270 GeodesicLength=0.6032154010881606 rxn_smarts="[N:1]#[C:2][c:3]1[n:4][c:5]([H:8])[c:6]([H:9])[n:7]1[H:10]>>[N:1]#[C:2][C:3]1=[N:7][C:6]([H:9])([H:10])[C:5]([H:8])=[N:4]1"
N        3.34774698      -0.68311703       0.10162232
C        2.21640961      -0.49979870       0.14605779
C        0.80932886      -0.24597901       0.26059386
N       -0.11292067      -1.23785827       0.40099829
C       -1.25510105      -0.66528072       0.06388062
C       -1.08099292       0.73279584      -0.14533233
N        0.29652270       0.93957730       0.00038869
H       -2.18679185      -1.21367910       0.06861682
H       -1.76324928       1.48253745       0.23794056
H       -0.27095237       1.39080223      -1.13476662
10
Frame=16 idx=007270 GeodesicLength=0.6433198012531164 rxn_smarts="[N:1]#[C:2][c:3]1[n:4][c:5]([H:8])[c:6]([H:9])[n:7]1[H:10]>>[N:1]#[C:2][C:3]1=[N:7][C:6]([H:9])([H:10])[C:5]([H:8])=[N:4]1"
N        3.34599568      -0.68547087       0.09977942
C        2.21458747      -0.50226373       0.14336986
C        0.80870175      -0.24565178       0.26772752
N       -0.11517359      -1.23685267       0.41788640
C       -1.25408903      -0.66894025       0.06403654
C       -1.08079591       0.72966715      -0.15552272
N        0.29447187       0.93399837      -0.00874998
H       -2.18553519      -1.21788900       0.06801255
H       -1.76130416       1.47399531       0.24240695
H       -0.26685888       1.41940747      -1.13894653
