13
Frame=0 idx=003693 GeodesicLength=0.0 rxn_smarts="[C:1]1([H:7])([H:8])[C@@:2]2([H:9])[C@@:3]3([H:10])[C:4]([H:11])([H:12])[N:5]1[C@@:6]23[H:13]>>[C:1]1([H:7])([H:8])[C:2]2([H:9])[C:3][C:4]([H:11])([H:12])[N:5]1[C:6]2([H:10])[H:13]"
C       -0.78690637       0.98633013      -0.32651478
C       -0.88553555      -0.53889393      -0.42041343
C        0.49881393      -1.12699525      -0.55013105
C        1.33699848       0.14890853      -0.27501173
N        0.35496945       0.81293460       0.62750287
C       -0.24151795      -0.53705204       0.94111449
H       -1.63743095       1.42719826       0.19211956
H       -0.55444150       1.56801022      -1.22143483
H       -1.75522678      -1.11765948      -0.70334889
H        0.57887067      -1.46893472       0.78154499
H        2.26179194      -0.06730198       0.25854351
H        1.56410773       0.73191949      -1.16987231
H       -0.73449308      -0.81846384       1.86590162
13
Frame=1 idx=003693 GeodesicLength=0.04815339030628726 rxn_smarts="[C:1]1([H:7])([H:8])[C@@:2]2([H:9])[C@@:3]3([H:10])[C:4]([H:11])([H:12])[N:5]1[C@@:6]23[H:13]>>[C:1]1([H:7])([H:8])[C:2]2([H:9])[C:3][C:4]([H:11])([H:12])[N:5]1[C:6]2([H:10])[H:13]"
C       -0.78714290       0.98552480      -0.32511436
C       -0.88564844      -0.53976891      -0.41970854
C        0.50024710      -1.12088262      -0.55340111
C        1.33774833       0.15147230      -0.27717020
N        0.35558664       0.81253248       0.62774253
C       -0.24039872      -0.53757600       0.94295081
H       -1.63766521       1.42518767       0.19462822
H       -0.55617081       1.56588056      -1.22128132
H       -1.75399785      -1.12013016      -0.70366946
H        0.57870025      -1.48702057       0.78100306
H        2.26201780      -0.06712142       0.25669672
H        1.56826080       0.73617257      -1.17014632
H       -0.74153701      -0.80427070       1.86746996
13
Frame=2 idx=003693 GeodesicLength=0.09630072708122134 rxn_smarts="[C:1]1([H:7])([H:8])[C@@:2]2([H:9])[C@@:3]3([H:10])[C:4]([H:11])([H:12])[N:5]1[C@@:6]23[H:13]>>[C:1]1([H:7])([H:8])[C:2]2([H:9])[C:3][C:4]([H:11])([H:12])[N:5]1[C:6]2([H:10])[H:13]"
C       -0.78738651       0.98472224      -0.32372083
C       -0.88572977      -0.54064695      -0.41896297
C        0.50168890      -1.11476117      -0.55654589
C        1.33849596       0.15409276      -0.27930140
N        0.35619073       0.81218138       0.62798864
C       -0.23927501      -0.53805576       0.94485705
H       -1.63791825       1.42317966       0.19710570
H       -0.55791124       1.56373334      -1.22114304
H       -1.75272229      -1.12261864      -0.70394829
H        0.57833773      -1.50537112       0.78026266
H        2.26222394      -0.06689137       0.25489597
H        1.57241369       0.74041926      -1.17041235
H       -0.74840787      -0.78998364       1.86892474
13
Frame=3 idx=003693 GeodesicLength=0.14444313635846706 rxn_smarts="[C:1]1([H:7])([H:8])[C@@:2]2([H:9])[C@@:3]3([H:10])[C:4]([H:11])([H:12])[N:5]1[C@@:6]23[H:13]>>[C:1]1([H:7])([H:8])[C:2]2([H:9])[C:3][C:4]([H:11])([H:12])[N:5]1[C:6]2([H:10])[H:13]"
C       -0.78763710       0.98392306      -0.32233552
C       -0.88577874      -0.54152774      -0.41817492
C        0.50314027      -1.10863115      -0.55956229
C        1.33924137       0.15677097      -0.28140460
N        0.35678155       0.81188430       0.62824066
C       -0.23814704      -0.53848727       0.94683525
H       -1.63819030       1.42117568       0.19954956
H       -0.55966261       1.56156711      -1.22102242
H       -1.75139916      -1.12512487      -0.70418299
H        0.57777707      -1.52398958       0.77931864
H        2.26241093      -0.06660814       0.25314204
H        1.57656636       0.74465875      -1.17067141
H       -0.75510260      -0.77561111       1.87026802
13
Frame=4 idx=003693 GeodesicLength=0.19258238605384603 rxn_smarts="[C:1]1([H:7])([H:8])[C@@:2]2([H:9])[C@@:3]3([H:10])[C:4]([H:11])([H:12])[N:5]1[C@@:6]23[H:13]>>[C:1]1([H:7])([H:8])[C:2]2([H:9])[C:3][C:4]([H:11])([H:12])[N:5]1[C:6]2([H:10])[H:13]"
C       -0.78789450       0.98312779      -0.32095972
C       -0.88579437      -0.54241109      -0.41734240
C        0.50460227      -1.10249279      -0.56244727
C        1.33998466       0.15950799      -0.28347905
N        0.35735910       0.81164437       0.62849799
C       -0.23701482      -0.53886622       0.94888759
H       -1.63848153       1.41917722       0.20195734
H       -0.56142475       1.55938024      -1.22092198
H       -1.75002756      -1.12764871      -0.70437077
H        0.57701214      -1.54287935       0.77816563
H        2.26257939      -0.06626762       0.25143550
H        1.58071887       0.74889009      -1.17092454
H       -0.76161889      -0.76116190       1.87150168
13
Frame=5 idx=003693 GeodesicLength=0.24072391740406907 rxn_smarts="[C:1]1([H:7])([H:8])[C@@:2]2([H:9])[C@@:3]3([H:10])[C:4]([H:11])([H:12])[N:5]1[C@@:6]23[H:13]>>[C:1]1([H:7])([H:8])[C:2]2([H:9])[C:3][C:4]([H:11])([H:12])[N:5]1[C:6]2([H:10])[H:13]"
C       -0.78815864       0.98233693      -0.31959475
C       -0.88577559      -0.54329685      -0.41646354
C        0.50607608      -1.09634603      -0.56519831
C        1.34072597       0.16230501      -0.28552400
N        0.35792328       0.81146473       0.62876008
C       -0.23587822      -0.53918843       0.95101603
H       -1.63879227       1.41718550       0.20432662
H       -0.56319758       1.55717120      -1.22084416
H       -1.74860629      -1.13019037      -0.70450903
H        0.57603729      -1.56204547       0.77679720
H        2.26273007      -0.06586599       0.24977726
H        1.58487122       0.75311268      -1.17117283
H       -0.76795530      -0.74664291       1.87262942
13
Frame=6 idx=003693 GeodesicLength=0.28886593566668445 rxn_smarts="[C:1]1([H:7])([H:8])[C@@:2]2([H:9])[C@@:3]3([H:10])[C:4]([H:11])([H:12])[N:5]1[C@@:6]23[H:13]>>[C:1]1([H:7])([H:8])[C:2]2([H:9])[C:3][C:4]([H:11])([H:12])[N:5]1[C:6]2([H:10])[H:13]"
C       -0.78842930       0.98155109      -0.31824210
C       -0.88572157      -0.54418468      -0.41553647
C        0.50756281      -1.09019175      -0.56781169
C        1.34146545       0.16516306      -0.28753861
N        0.35847400       0.81134865       0.62902626
C       -0.23473740      -0.53944927       0.95322253
H       -1.63912263       1.41520208       0.20665475
H       -0.56498071       1.55493824      -1.22079165
H       -1.74713446      -1.13274963      -0.70459522
H        0.57484591      -1.58149065       0.77520690
H        2.26286361      -0.06539848       0.24816794
H        1.58902347       0.75732526      -1.17141740
H       -0.77410919      -0.73206391       1.87365476
13
Frame=7 idx=003693 GeodesicLength=0.33700761845295957 rxn_smarts="[C:1]1([H:7])([H:8])[C@@:2]2([H:9])[C@@:3]3([H:10])[C:4]([H:11])([H:12])[N:5]1[C@@:6]23[H:13]>>[C:1]1([H:7])([H:8])[C:2]2([H:9])[C:3][C:4]([H:11])([H:12])[N:5]1[C:6]2([H:10])[H:13]"
C       -0.78870638       0.98077079      -0.31690305
C       -0.88563109      -0.54507439      -0.41455910
C        0.50906423      -1.08403060      -0.57028354
C        1.34220327       0.16808349      -0.28952226
N        0.35901132       0.81129964       0.62929590
C       -0.23359218      -0.53964406       0.95550926
H       -1.63947291       1.41322823       0.20893938
H       -0.56677415       1.55267963      -1.22076703
H       -1.74561060      -1.13532673      -0.70462674
H        0.57343014      -1.60121891       0.77338719
H        2.26298111      -0.06486062       0.24660895
H        1.59317544       0.76152664      -1.17165994
H       -0.78007819      -0.71743310       1.87458098
13
Frame=8 idx=003693 GeodesicLength=0.38515537174213005 rxn_smarts="[C:1]1([H:7])([H:8])[C@@:2]2([H:9])[C@@:3]3([H:10])[C:4]([H:11])([H:12])[N:5]1[C@@:6]23[H:13]>>[C:1]1([H:7])([H:8])[C:2]2([H:9])[C:3][C:4]([H:11])([H:12])[N:5]1[C:6]2([H:10])[H:13]"
C       -0.78898975       0.97999641      -0.31557907
C       -0.88550320      -0.54596594      -0.41352947
C        0.51058111      -1.07786261      -0.57261182
C        1.34293965       0.17106716      -0.29147407
N        0.35953506       0.81132067       0.62956835
C       -0.23244252      -0.53976838       0.95787813
H       -1.63984335       1.41126520       0.21117790
H       -0.56857756       1.55039348      -1.22077279
H       -1.74403386      -1.13792180      -0.70460071
H        0.57178559      -1.62123476       0.77133155
H        2.26308313      -0.06424822       0.24510065
H        1.59732745       0.76571627      -1.17190102
H       -0.78586176      -0.70275747       1.87541236
13
Frame=9 idx=003693 GeodesicLength=0.4333051099572098 rxn_smarts="[C:1]1([H:7])([H:8])[C@@:2]2([H:9])[C@@:3]3([H:10])[C:4]([H:11])([H:12])[N:5]1[C@@:6]23[H:13]>>[C:1]1([H:7])([H:8])[C:2]2([H:9])[C:3][C:4]([H:11])([H:12])[N:5]1[C:6]2([H:10])[H:13]"
C       -0.78927922       0.97922800      -0.31427102
C       -0.88533617      -0.54685960      -0.41244520
C        0.51211609      -1.07168898      -0.57479194
C        1.34367505       0.17411571      -0.29339322
N        0.36004542       0.81141517       0.62984333
C       -0.23128751      -0.53981801       0.96033140
H       -1.64023428       1.40931346       0.21336846
H       -0.57039117       1.54807771      -1.22081109
H       -1.74240220      -1.14053552      -0.70451422
H        0.56990419      -1.64154341       0.76902699
H        2.26317142      -0.06355603       0.24364504
H        1.60147898       0.76989248      -1.17214285
H       -0.79146060      -0.68804097       1.87615431
13
Frame=10 idx=003693 GeodesicLength=0.4814586723943936 rxn_smarts="[C:1]1([H:7])([H:8])[C@@:2]2([H:9])[C@@:3]3([H:10])[C:4]([H:11])([H:12])[N:5]1[C@@:6]23[H:13]>>[C:1]1([H:7])([H:8])[C:2]2([H:9])[C:3][C:4]([H:11])([H:12])[N:5]1[C:6]2([H:10])[H:13]"
C       -0.78957474       0.97846582      -0.31298022
C       -0.88512860      -0.54775549      -0.41130442
C        0.51367042      -1.06550974      -0.57682130
C        1.34440970       0.17722994      -0.29527926
N        0.36054242       0.81158625       0.63012000
C       -0.23012698      -0.53978823       0.96287108
H       -1.64064610       1.40737386       0.21550880
H       -0.57221491       1.54573053      -1.22088424
H       -1.74071394      -1.14316839      -0.70436496
H        0.56777759      -1.66214872       0.76646822
H        2.26324673      -0.06277962       0.24224257
H        1.60563028       0.77405485      -1.17238638
H       -0.79687186      -0.67329104       1.87681012
13
Frame=11 idx=003693 GeodesicLength=0.5296195823874112 rxn_smarts="[C:1]1([H:7])([H:8])[C@@:2]2([H:9])[C@@:3]3([H:10])[C:4]([H:11])([H:12])[N:5]1[C@@:6]23[H:13]>>[C:1]1([H:7])([H:8])[C:2]2([H:9])[C:3][C:4]([H:11])([H:12])[N:5]1[C:6]2([H:10])[H:13]"
C       -0.78987613       0.97771026      -0.31170818
C       -0.88487964      -0.54865344      -0.41010498
C        0.51524531      -1.05932553      -0.57869715
C        1.34514386       0.18041078      -0.29713132
N        0.36102598       0.81183723       0.63039763
C       -0.22896075      -0.53967431       0.96549901
H       -1.64107894       1.40544768       0.21759634
H       -0.57404845       1.54334975      -1.22099495
H       -1.73896814      -1.14582066      -0.70415006
H        0.56540208      -1.68305497       0.76364584
H        2.26331001      -0.06191431       0.24089457
H        1.60978139       0.77820200      -1.17263288
H       -0.80209658      -0.65851447       1.87738612
13
Frame=12 idx=003693 GeodesicLength=0.5777801196367801 rxn_smarts="[C:1]1([H:7])([H:8])[C@@:2]2([H:9])[C@@:3]3([H:10])[C:4]([H:11])([H:12])[N:5]1[C@@:6]23[H:13]>>[C:1]1([H:7])([H:8])[C:2]2([H:9])[C:3][C:4]([H:11])([H:12])[N:5]1[C:6]2([H:10])[H:13]"
C       -0.79018322       0.97696115      -0.31045576
C       -0.88458735      -0.54955392      -0.40884429
C        0.51684367      -1.05313798      -0.58041430
C        1.34587806       0.18365988      -0.29894857
N        0.36149624       0.81217158       0.63067589
C       -0.22778792      -0.53947167       0.96821774
H       -1.64153322       1.40353514       0.21962919
H       -0.57589200       1.54093278      -1.22114542
H       -1.73716240      -1.14849316      -0.70386650
H        0.56276693      -1.70426667       0.76054685
H        2.26336300      -0.06095428       0.23960278
H        1.61393196       0.78233253      -1.17288440
H       -0.80713375      -0.64371540       1.87788680
13
Frame=13 idx=003693 GeodesicLength=0.6259405949128849 rxn_smarts="[C:1]1([H:7])([H:8])[C@@:2]2([H:9])[C@@:3]3([H:10])[C:4]([H:11])([H:12])[N:5]1[C@@:6]23[H:13]>>[C:1]1([H:7])([H:8])[C:2]2([H:9])[C:3][C:4]([H:11])([H:12])[N:5]1[C:6]2([H:10])[H:13]"
C       -0.79049581       0.97621847      -0.30922419
C       -0.88425057      -0.55045722      -0.40751972
C        0.51846703      -1.04694805      -0.58196938
C        1.34661262       0.18697796      -0.30073006
N        0.36195317       0.81259242       0.63095427
C       -0.22660818      -0.53917560       0.97102964
H       -1.64200911       1.40163713       0.22160496
H       -0.57774523       1.53847697      -1.22133811
H       -1.73529547      -1.15118659      -0.70351109
H        0.55986738      -1.72578794       0.75715933
H        2.26340678      -0.05989437       0.23836854
H        1.61808203       0.78644510      -1.17314194
H       -0.81198465      -0.62889829       1.87831776
13
Frame=14 idx=003693 GeodesicLength=0.6741014983478969 rxn_smarts="[C:1]1([H:7])([H:8])[C@@:2]2([H:9])[C@@:3]3([H:10])[C:4]([H:11])([H:12])[N:5]1[C@@:6]23[H:13]>>[C:1]1([H:7])([H:8])[C:2]2([H:9])[C:3][C:4]([H:11])([H:12])[N:5]1[C:6]2([H:10])[H:13]"
C       -0.79081384       0.97548191      -0.30801445
C       -0.88386727      -0.55136396      -0.40612848
C        0.52011785      -1.04075639      -0.58335852
C        1.34734811       0.19036656      -0.30247493
N        0.36239687       0.81310332       0.63123224
C       -0.22542046      -0.53878131       0.97393725
H       -1.64250718       1.39975366       0.22352163
H       -0.57960847       1.53597960      -1.22157523
H       -1.73336493      -1.15390213      -0.70308037
H        0.55669523      -1.74762517       0.75346979
H        2.26344295      -0.05872951       0.23719377
H        1.62223145       0.79053861      -1.17340725
H       -0.81665030      -0.61406519       1.87868456
13
Frame=15 idx=003693 GeodesicLength=0.7222567954985435 rxn_smarts="[C:1]1([H:7])([H:8])[C@@:2]2([H:9])[C@@:3]3([H:10])[C:4]([H:11])([H:12])[N:5]1[C@@:6]23[H:13]>>[C:1]1([H:7])([H:8])[C:2]2([H:9])[C:3][C:4]([H:11])([H:12])[N:5]1[C:6]2([H:10])[H:13]"
C       -0.79113702       0.97475112      -0.30682752
C       -0.88343590      -0.55227471      -0.40466769
C        0.52179851      -1.03456465      -0.58457725
C        1.34808506       0.19382671      -0.30418220
N        0.36282739       0.81370741       0.63150948
C       -0.22422387      -0.53828429       0.97694312
H       -1.64302761       1.39788507       0.22537713
H       -0.58148150       1.53343756      -1.22185904
H       -1.73136895      -1.15664073      -0.70257095
H        0.55324319      -1.76978207       0.74946366
H        2.26347312      -0.05745362       0.23608017
H        1.62637998       0.79461127      -1.17368198
H       -0.82113240      -0.59921906       1.87899306
13
Frame=16 idx=003693 GeodesicLength=0.7704048104526232 rxn_smarts="[C:1]1([H:7])([H:8])[C@@:2]2([H:9])[C@@:3]3([H:10])[C:4]([H:11])([H:12])[N:5]1[C@@:6]23[H:13]>>[C:1]1([H:7])([H:8])[C:2]2([H:9])[C:3][C:4]([H:11])([H:12])[N:5]1[C:6]2([H:10])[H:13]"
C       -0.79146520       0.97402555      -0.30566434
C       -0.88295466      -0.55319023      -0.40313432
C        0.52351131      -1.02837379      -0.58562179
C        1.34882402       0.19735949      -0.30585090
N        0.36324478       0.81440788       0.63178556
C       -0.22301740      -0.53767996       0.98004988
H       -1.64357079       1.39603135       0.22716943
H       -0.58336437       1.53084763      -1.22219169
H       -1.72930549      -1.15940365      -0.70197913
H        0.54950434      -1.79226380       0.74512612
H        2.26349884      -0.05606122       0.23502971
H        1.63052751       0.79866174      -1.17396755
H       -0.82543290      -0.58436097       1.87924903
