21
Frame=0 idx=007782 GeodesicLength=0.0 rxn_smarts="[C:1]([C:2]([C:3]([H:11])([H:12])[H:13])([C:4]([H:14])([H:15])[H:16])[C:5]1([H:17])[C:6]([H:18])([H:19])[C:7]1([H:20])[H:21])([H:8])([H:9])[H:10]>>[C:1]([C:2][C:5]1([H:17])[C:6]([H:18])([H:19])[C:7]1([H:20])[H:21])([H:8])([H:9])[H:10].[C:3]([C:4]([H:14])([H:15])[H:16])([H:11])([H:12])[H:13]"
C       -0.43757166       1.82404864       0.54288734
C       -0.09721518       0.58441339      -0.21203998
C       -1.60778336      -0.40150046      -0.93733140
C       -1.46231187      -0.61348948       0.87487515
C        1.06699606      -0.16156006       0.27456774
C        2.34976910       0.09238111      -0.49104838
C        1.69110087      -1.24149025      -0.56574139
H       -0.39931225       1.75027118       1.64525774
H        0.31782712       2.55812365       0.24440644
H       -1.40941038       2.23529762       0.26098612
H       -2.48869396      -1.05452078      -0.80687594
H       -1.98941347       0.51209064      -1.38083505
H       -0.96467101      -0.92701795      -1.63361920
H       -0.80471795      -0.24895122       1.65893701
H       -2.47052371      -0.28428206       1.11410788
H       -1.39282185      -1.69819756       0.86200049
H        1.21376534      -0.27866655       1.35591720
H        2.28380224       0.73552830      -1.35755083
H        3.25670041       0.19002543       0.09125202
H        2.15298885      -2.07310263      -0.05024768
H        1.19149672      -1.49940099      -1.48990525
21
Frame=1 idx=007782 GeodesicLength=0.07602838791873313 rxn_smarts="[C:1]([C:2]([C:3]([H:11])([H:12])[H:13])([C:4]([H:14])([H:15])[H:16])[C:5]1([H:17])[C:6]([H:18])([H:19])[C:7]1([H:20])[H:21])([H:8])([H:9])[H:10]>>[C:1]([C:2][C:5]1([H:17])[C:6]([H:18])([H:19])[C:7]1([H:20])[H:21])([H:8])([H:9])[H:10].[C:3]([C:4]([H:14])([H:15])[H:16])([H:11])([H:12])[H:13]"
C       -0.43292167       1.82817662       0.55108288
C       -0.09711919       0.58390951      -0.19827117
C       -1.61096765      -0.39805960      -0.94241976
C       -1.46849960      -0.62403706       0.87286587
C        1.07591198      -0.15263683       0.27984711
C        2.35074610       0.09372869      -0.50181063
C        1.69277624      -1.24070712      -0.55704343
H       -0.38302150       1.75609831       1.65251899
H        0.31701666       2.56298664       0.24036681
H       -1.40799114       2.23738613       0.27770192
H       -2.52187687      -1.01046728      -0.82724319
H       -1.95264299       0.51707895      -1.41537633
H       -0.98087702      -0.95622543      -1.62589873
H       -0.83549043      -0.25708754       1.67662040
H       -2.48477789      -0.32301807       1.11652039
H       -1.37099402      -1.70678619       0.85400255
H        1.22963357      -0.26140815       1.36052692
H        2.27496340       0.72821270      -1.37392637
H        3.26315221       0.19760329       0.07073388
H        2.15792605      -2.06735947      -0.03659893
H        1.18505375      -1.50738809      -1.47419917
21
Frame=2 idx=007782 GeodesicLength=0.15204944638324813 rxn_smarts="[C:1]([C:2]([C:3]([H:11])([H:12])[H:13])([C:4]([H:14])([H:15])[H:16])[C:5]1([H:17])[C:6]([H:18])([H:19])[C:7]1([H:20])[H:21])([H:8])([H:9])[H:10]>>[C:1]([C:2][C:5]1([H:17])[C:6]([H:18])([H:19])[C:7]1([H:20])[H:21])([H:8])([H:9])[H:10].[C:3]([C:4]([H:14])([H:15])[H:16])([H:11])([H:12])[H:13]"
C       -0.42836827       1.83240339       0.55961290
C       -0.09699305       0.58346974      -0.18391854
C       -1.61374875      -0.39452642      -0.94751587
C       -1.47489714      -0.63458047       0.87091472
C        1.08493988      -0.14354189       0.28512142
C        2.35135173       0.09492524      -0.51295370
C        1.69412659      -1.23983076      -0.54842232
H       -0.36674724       1.76208019       1.65999040
H        0.31588712       2.56788717       0.23657469
H       -1.40665614       2.23933187       0.29464494
H       -2.55346797      -0.96341795      -0.84773371
H       -1.91302215       0.52019477      -1.45013353
H       -0.99849483      -0.98600499      -1.61722152
H       -0.86805426      -0.26500271       1.69423251
H       -2.49928011      -0.36380131       1.11763513
H       -1.34826205      -1.71450433       0.84688111
H        1.24599041      -0.24390848       1.36497026
H        2.26540055       0.72066989      -1.39047098
H        3.26937751       0.20486715       0.04933956
H        2.16275356      -2.06146932      -0.02324537
H        1.17816462      -1.51524078      -1.45830211
21
Frame=3 idx=007782 GeodesicLength=0.22807630804864834 rxn_smarts="[C:1]([C:2]([C:3]([H:11])([H:12])[H:13])([C:4]([H:14])([H:15])[H:16])[C:5]1([H:17])[C:6]([H:18])([H:19])[C:7]1([H:20])[H:21])([H:8])([H:9])[H:10]>>[C:1]([C:2][C:5]1([H:17])[C:6]([H:18])([H:19])[C:7]1([H:20])[H:21])([H:8])([H:9])[H:10].[C:3]([C:4]([H:14])([H:15])[H:16])([H:11])([H:12])[H:13]"
C       -0.42391116       1.83673865       0.56849288
C       -0.09683611       0.58310023      -0.16895114
C       -1.61606393      -0.39092174      -0.95262904
C       -1.48152342      -0.64511152       0.86902644
C        1.09408426      -0.13425964       0.29038117
C        2.35155455       0.09595583      -0.52450221
C        1.69511439      -1.23886057      -0.53988508
H       -0.35049920       1.76823256       1.66768527
H        0.31444105       2.57282484       0.23304817
H       -1.40539906       2.24115239       0.31181611
H       -2.58316200      -0.91329916      -0.86834656
H       -1.87054018       0.52119333      -1.48484942
H       -1.01764078      -1.01621017      -1.60763085
H       -0.90257394      -0.27264566       1.71171548
H       -2.51397189      -0.40677177       1.11722356
H       -1.32458574      -1.72125414       0.84077264
H        1.26286972      -0.22613950       1.36922457
H        2.25506623       0.71289305      -1.40719115
H        3.27534701       0.21177964       0.02701928
H        2.16743507      -2.05543887      -0.01020571
H        1.17079512      -1.52295777      -1.44221443
21
Frame=4 idx=007782 GeodesicLength=0.3041306585613528 rxn_smarts="[C:1]([C:2]([C:3]([H:11])([H:12])[H:13])([C:4]([H:14])([H:15])[H:16])[C:5]1([H:17])[C:6]([H:18])([H:19])[C:7]1([H:20])[H:21])([H:8])([H:9])[H:10]>>[C:1]([C:2][C:5]1([H:17])[C:6]([H:18])([H:19])[C:7]1([H:20])[H:21])([H:8])([H:9])[H:10].[C:3]([C:4]([H:14])([H:15])[H:16])([H:11])([H:12])[H:13]"
C       -0.41954751       1.84118852       0.57774054
C       -0.09664897       0.58280393      -0.15333885
C       -1.61784805      -0.38727398      -0.95776896
C       -1.48839898      -0.65562444       0.86720475
C        1.10334908      -0.12477554       0.29561357
C        2.35131802       0.09680748      -0.53648450
C        1.69570730      -1.23779763      -0.53143445
H       -0.33428004       1.77456576       1.67561934
H        0.31268250       2.57779572       0.22980542
H       -1.40421243       2.24286470       0.32922654
H       -2.61062514      -0.86005263      -0.88907074
H       -1.82522121       0.51983617      -1.51923979
H       -1.03842811      -1.04668013      -1.59718641
H       -0.93923173      -0.27996749       1.72899579
H       -2.52876418      -0.45205595       1.11503538
H       -1.29994690      -1.72692976       0.83582260
H        1.28030554      -0.20807183       1.37326243
H        2.24390326       0.70487202      -1.42409971
H        3.28102465       0.21831439       0.00371767
H        2.17194629      -2.04927072       0.00250865
H        1.16291662      -1.53054858      -1.42592927
21
Frame=5 idx=007782 GeodesicLength=0.38024529927654094 rxn_smarts="[C:1]([C:2]([C:3]([H:11])([H:12])[H:13])([C:4]([H:14])([H:15])[H:16])[C:5]1([H:17])[C:6]([H:18])([H:19])[C:7]1([H:20])[H:21])([H:8])([H:9])[H:10]>>[C:1]([C:2][C:5]1([H:17])[C:6]([H:18])([H:19])[C:7]1([H:20])[H:21])([H:8])([H:9])[H:10].[C:3]([C:4]([H:14])([H:15])[H:16])([H:11])([H:12])[H:13]"
C       -0.41527308       1.84575527       0.58737869
C       -0.09643245       0.58258298      -0.13705166
C       -1.61903580      -0.38361293      -0.96294518
C       -1.49554500      -0.66611750       0.86544873
C        1.11273819      -0.11507255       0.30080296
C        2.35059938       0.09746640      -0.54893668
C        1.69587639      -1.23664542      -0.52306158
H       -0.31808912       1.78108172       1.68381219
H        0.31061486       2.58279450       0.22686908
H       -1.40308852       2.24448424       0.34690023
H       -2.63548246      -0.80364577      -0.90987572
H       -1.77712421       0.51590391      -1.55300144
H       -1.06097048      -1.07723297      -1.58597210
H       -0.97822765      -0.28692893       1.74597962
H       -2.54353230      -0.49976638       1.11080007
H       -1.27434731      -1.73141902       0.83217536
H        1.29833428      -0.18966702       1.37705059
H        2.23184159       0.69658366      -1.44122246
H        3.28636801       0.22445498      -0.02063605
H        2.17627400      -2.04295950       0.01490444
H        1.15450169      -1.53803969      -1.40941907
21
Frame=6 idx=007782 GeodesicLength=0.4564487840071912 rxn_smarts="[C:1]([C:2]([C:3]([H:11])([H:12])[H:13])([C:4]([H:14])([H:15])[H:16])[C:5]1([H:17])[C:6]([H:18])([H:19])[C:7]1([H:20])[H:21])([H:8])([H:9])[H:10]>>[C:1]([C:2][C:5]1([H:17])[C:6]([H:18])([H:19])[C:7]1([H:20])[H:21])([H:8])([H:9])[H:10].[C:3]([C:4]([H:14])([H:15])[H:16])([H:11])([H:12])[H:13]"
C       -0.41107879       1.85043605       0.59742752
C       -0.09618956       0.58243364      -0.12006618
C       -1.61956392      -0.37998033      -0.96816650
C       -1.50298283      -0.67658992       0.86375726
C        1.12225203      -0.10513867       0.30592774
C        2.34935156       0.09792038      -0.56189100
C        1.69560050      -1.23540931      -0.51475824
H       -0.30191484       1.78777818       1.69228160
H        0.30824563       2.58780859       0.22425784
H       -1.40201426       2.24602592       0.36486673
H       -2.65733119      -0.74412122      -0.93072358
H       -1.72638897       0.50920539      -1.58579325
H       -1.08535084      -1.10765536      -1.57409683
H       -1.01978016      -0.29348962       1.76254797
H       -2.55810028      -0.54996513       1.10424132
H       -1.24782284      -1.73460084       0.82999120
H        1.31698796      -0.17089258       1.38054896
H        2.21880636       0.68800736      -1.45857955
H        3.29132497       0.23019181      -0.04610280
H        2.18041474      -2.03650074       0.02698874
H        1.14553473      -1.54546360      -1.39265895
21
Frame=7 idx=007782 GeodesicLength=0.5327790497125999 rxn_smarts="[C:1]([C:2]([C:3]([H:11])([H:12])[H:13])([C:4]([H:14])([H:15])[H:16])[C:5]1([H:17])[C:6]([H:18])([H:19])[C:7]1([H:20])[H:21])([H:8])([H:9])[H:10]>>[C:1]([C:2][C:5]1([H:17])[C:6]([H:18])([H:19])[C:7]1([H:20])[H:21])([H:8])([H:9])[H:10].[C:3]([C:4]([H:14])([H:15])[H:16])([H:11])([H:12])[H:13]"
C       -0.40695441       1.85522038       0.60791420
C       -0.09592311       0.58234947      -0.10236124
C       -1.61937415      -0.37641571      -0.97344171
C       -1.51073515      -0.68704467       0.86212198
C        1.13189022      -0.09496041       0.31096218
C        2.34751910       0.09815642      -0.57538860
C        1.69486736      -1.23409791      -0.50650124
H       -0.28574399       1.79463900       1.70105095
H        0.30558070       2.59282121       0.22199909
H       -1.40097544       2.24750017       0.38317052
H       -2.67573638      -0.68158408      -0.95156228
H       -1.67319950       0.49959301      -1.61726762
H       -1.11163579      -1.13770879      -1.56169258
H       -1.06411579      -0.29963486       1.77854930
H       -2.57224525      -0.60265667       1.09508847
H       -1.22045002      -1.73635343       0.82942131
H        1.33630165      -0.15170410       1.38370978
H        2.20470584       0.67910344      -1.47620706
H        3.29583330       0.23553098      -0.07276130
H        2.18438501      -2.02987789       0.03879191
H        1.13600578      -1.55287557      -1.37559607
21
Frame=8 idx=007782 GeodesicLength=0.6092799291570964 rxn_smarts="[C:1]([C:2]([C:3]([H:11])([H:12])[H:13])([C:4]([H:14])([H:15])[H:16])[C:5]1([H:17])[C:6]([H:18])([H:19])[C:7]1([H:20])[H:21])([H:8])([H:9])[H:10]>>[C:1]([C:2][C:5]1([H:17])[C:6]([H:18])([H:19])[C:7]1([H:20])[H:21])([H:8])([H:9])[H:10].[C:3]([C:4]([H:14])([H:15])[H:16])([H:11])([H:12])[H:13]"
C       -0.40288920       1.86008913       0.61886830
C       -0.09563668       0.58231692      -0.08392182
C       -1.61841724      -0.37296076      -0.97877779
C       -1.51882893      -0.69748663       0.86053126
C        1.14165014      -0.08452959       0.31587442
C        2.34504193       0.09816363      -0.58947298
C        1.69368219      -1.23272386      -0.49826169
H       -0.26956134       1.80163626       1.71014626
H        0.30262487       2.59780878       0.22012369
H       -1.39995699       2.24891340       0.40186598
H       -2.69025321      -0.61622339      -0.97234091
H       -1.61779745       0.48696537      -1.64707278
H       -1.13985617      -1.16712866      -1.54890649
H       -1.11145747      -0.30538027       1.79379500
H       -2.58569691      -0.65774823       1.08311007
H       -1.19236746      -1.73656066       0.83061182
H        1.35630915      -0.13205651       1.38647689
H        2.18943896       0.66982446      -1.49414617
H        3.29982036       0.24049704      -0.10069303
H        2.18822917      -2.02306820       0.05035430
H        1.12592230      -1.56034826      -1.35816433
21
Frame=9 idx=007782 GeodesicLength=0.6860215548776512 rxn_smarts="[C:1]([C:2]([C:3]([H:11])([H:12])[H:13])([C:4]([H:14])([H:15])[H:16])[C:5]1([H:17])[C:6]([H:18])([H:19])[C:7]1([H:20])[H:21])([H:8])([H:9])[H:10]>>[C:1]([C:2][C:5]1([H:17])[C:6]([H:18])([H:19])[C:7]1([H:20])[H:21])([H:8])([H:9])[H:10].[C:3]([C:4]([H:14])([H:15])[H:16])([H:11])([H:12])[H:13]"
C       -0.39887109       1.86501891       0.63033411
C       -0.09533090       0.58232513      -0.06473166
C       -1.61666087      -0.36963966      -0.98418346
C       -1.52729896      -0.70792506       0.85895930
C        1.15153605      -0.07383149       0.32063147
C        2.34185235       0.09792542      -0.60420475
C        1.69206711      -1.23130721      -0.48997655
H       -0.25334643       1.80872617       1.71960588
H        0.29937987       2.60275442       0.21867935
H       -1.39894822       2.25026931       0.42103146
H       -2.70043010      -0.54834922      -0.99302556
H       -1.56047037       0.47130715      -1.67486042
H       -1.17001486      -1.19560983      -1.53592579
H       -1.16200254      -0.31080409       1.80805411
H       -2.59816434      -0.71504887       1.06811241
H       -1.16377699      -1.73512587       0.83367538
H        1.37706625      -0.11187516       1.38878436
H        2.17287639       0.66008037      -1.51246765
H        3.30321157       0.24513455      -0.13002187
H        2.19203091      -2.01602986       0.06176339
H        1.11529516      -1.56799509      -1.34023350
21
Frame=10 idx=007782 GeodesicLength=0.7630285465039388 rxn_smarts="[C:1]([C:2]([C:3]([H:11])([H:12])[H:13])([C:4]([H:14])([H:15])[H:16])[C:5]1([H:17])[C:6]([H:18])([H:19])[C:7]1([H:20])[H:21])([H:8])([H:9])[H:10]>>[C:1]([C:2][C:5]1([H:17])[C:6]([H:18])([H:19])[C:7]1([H:20])[H:21])([H:8])([H:9])[H:10].[C:3]([C:4]([H:14])([H:15])[H:16])([H:11])([H:12])[H:13]"
C       -0.39488031       1.86996950       0.64234417
C       -0.09500720       0.58234578      -0.04479221
C       -1.61408265      -0.36648267      -0.98966133
C       -1.53617404      -0.71835422       0.85738062
C        1.16153516      -0.06286821       0.32519020
C        2.33787496       0.09743138      -0.61962045
C        1.69005818      -1.22986372      -0.48160309
H       -0.23706736       1.81585975       1.72945639
H        0.29585170       2.60761534       0.21770327
H       -1.39792017       2.25155895       0.44074214
H       -2.70586600      -0.47842482      -1.01360072
H       -1.50158075       0.45265853      -1.70030138
H       -1.20201467      -1.22282778      -1.52293500
H       -1.21590471      -0.31600074       1.82105305
H       -2.60930336      -0.77422097       1.05002795
H       -1.13495581      -1.73195314       0.83871013
H        1.39859920      -0.09110859       1.39055584
H        2.15489564       0.64980284      -1.53120412
H        3.30590246       0.24949614      -0.16082002
H        2.19587821      -2.00872183       0.07307878
H        1.10416153      -1.57591151      -1.32170422
21
Frame=11 idx=007782 GeodesicLength=0.8403524759334955 rxn_smarts="[C:1]([C:2]([C:3]([H:11])([H:12])[H:13])([C:4]([H:14])([H:15])[H:16])[C:5]1([H:17])[C:6]([H:18])([H:19])[C:7]1([H:20])[H:21])([H:8])([H:9])[H:10]>>[C:1]([C:2][C:5]1([H:17])[C:6]([H:18])([H:19])[C:7]1([H:20])[H:21])([H:8])([H:9])[H:10].[C:3]([C:4]([H:14])([H:15])[H:16])([H:11])([H:12])[H:13]"
C       -0.39089759       1.87489844       0.65494629
C       -0.09466169       0.58235429      -0.02410201
C       -1.61067919      -0.36348926      -0.99521525
C       -1.54549196      -0.72876584       0.85575619
C        1.17164177      -0.05163618       0.32950874
C        2.33302795       0.09666302      -0.63577154
C        1.68771241      -1.22841647      -0.47306564
H       -0.22068426       1.82297817       1.73973716
H        0.29203721       2.61235831       0.21724451
H       -1.39685250       2.25276809       0.46110236
H       -2.70622092      -0.40702386      -1.03411312
H       -1.44149488       0.43115165      -1.72310048
H       -1.23570901      -1.24843033      -1.51014476
H       -1.27324691      -0.32113878       1.83248182
H       -2.61879526      -0.83483019       1.02889125
H       -1.10624377      -1.72698110       0.84576319
H        1.42095527      -0.06967459       1.39170595
H        2.13534858       0.63887736      -1.55041372
H        3.30778622       0.25365046      -0.19320150
H        2.19990240      -2.00108425       0.08440231
H        1.09256615      -1.58422895      -1.30241176
21
Frame=12 idx=007782 GeodesicLength=0.918055311223336 rxn_smarts="[C:1]([C:2]([C:3]([H:11])([H:12])[H:13])([C:4]([H:14])([H:15])[H:16])[C:5]1([H:17])[C:6]([H:18])([H:19])[C:7]1([H:20])[H:21])([H:8])([H:9])[H:10]>>[C:1]([C:2][C:5]1([H:17])[C:6]([H:18])([H:19])[C:7]1([H:20])[H:21])([H:8])([H:9])[H:10].[C:3]([C:4]([H:14])([H:15])[H:16])([H:11])([H:12])[H:13]"
C       -0.38690490       1.87976189       0.66818944
C       -0.09428667       0.58232313      -0.00266163
C       -1.60646433      -0.36063741      -1.00084653
C       -1.55529431      -0.73914517       0.85404047
C        1.18185012      -0.04013566       0.33354489
C        2.32722822       0.09559901      -0.65270409
C        1.68510612      -1.22699089      -0.46428119
H       -0.20414745       1.83002669       1.75048615
H        0.28792297       2.61695391       0.21734669
H       -1.39573087       2.25387518       0.48223007
H       -2.70126051      -0.33476579      -1.05466700
H       -1.38055924       0.40697312      -1.74301697
H       -1.27089522      -1.27207078      -1.49776277
H       -1.33402709      -0.32643546       1.84200526
H       -2.62635608      -0.89637725       1.00487279
H       -1.07802724      -1.72018299       0.85483698
H        1.44418289      -0.04748535       1.39214104
H        2.11408216       0.62717694      -1.57014471
H        3.30874913       0.25767268      -0.22727960
H        2.20426304      -1.99305160       0.09583945
H        1.08056927      -1.59308420      -1.28216875
21
Frame=13 idx=007782 GeodesicLength=0.9962212977200529 rxn_smarts="[C:1]([C:2]([C:3]([H:11])([H:12])[H:13])([C:4]([H:14])([H:15])[H:16])[C:5]1([H:17])[C:6]([H:18])([H:19])[C:7]1([H:20])[H:21])([H:8])([H:9])[H:10]>>[C:1]([C:2][C:5]1([H:17])[C:6]([H:18])([H:19])[C:7]1([H:20])[H:21])([H:8])([H:9])[H:10].[C:3]([C:4]([H:14])([H:15])[H:16])([H:11])([H:12])[H:13]"
C       -0.38288639       1.88452358       0.68213594
C       -0.09386701       0.58223471       0.01953638
C       -1.60146217      -0.35786588      -1.00656336
C       -1.56562378      -0.74947815       0.85217361
C        1.19216348      -0.02835546       0.33726264
C        2.32038391       0.09420227      -0.67047382
C        1.68232502      -1.22561697      -0.45513297
H       -0.18739203       1.83695763       1.76175204
H        0.28347845       2.62139233       0.21805619
H       -1.39455454       2.25485320       0.50427362
H       -2.69085596      -0.26229252      -1.07544516
H       -1.31908363       0.38037909      -1.75985805
H       -1.30732507      -1.29339228      -1.48601924
H       -1.39814813      -0.33216488       1.84927665
H       -2.63176801      -0.95835805       0.97823761
H       -1.05070273      -1.71157567       0.86588512
H        1.46835382      -0.02441670       1.39176109
H        2.09091761       0.61452416      -1.59046053
H        3.30867399       0.26162805      -0.26320886
H        2.20914429      -1.98454311       0.10753391
H        1.06822888      -1.60263536      -1.26072278
21
Frame=14 idx=007782 GeodesicLength=1.0749021558650809 rxn_smarts="[C:1]([C:2]([C:3]([H:11])([H:12])[H:13])([C:4]([H:14])([H:15])[H:16])[C:5]1([H:17])[C:6]([H:18])([H:19])[C:7]1([H:20])[H:21])([H:8])([H:9])[H:10]>>[C:1]([C:2][C:5]1([H:17])[C:6]([H:18])([H:19])[C:7]1([H:20])[H:21])([H:8])([H:9])[H:10].[C:3]([C:4]([H:14])([H:15])[H:16])([H:11])([H:12])[H:13]"
C       -0.37882603       1.88913954       0.69683397
C       -0.09338646       0.58206364       0.04249301
C       -1.59569389      -0.35509757      -1.01236667
C       -1.57650137      -0.75972982       0.85009061
C        1.20256387      -0.01629178       0.34062359
C        2.31238905       0.09242867      -0.68910551
C        1.67944351      -1.22431430      -0.44552619
H       -0.17034001       1.84374134       1.77356132
H        0.27865685       2.62564457       0.21939798
H       -1.39331486       2.25565142       0.52738093
H       -2.67498667      -0.19015846      -1.09663252
H       -1.25730821       0.35160827      -1.77349288
H       -1.34469832      -1.31209328      -1.47511223
H       -1.46544163      -0.33857346       1.85394161
H       -2.63481437      -1.02033243       0.94935293
H       -1.02463203      -1.70116319       0.87882483
H        1.49349764      -0.00036191       1.39045465
H        2.06568214       0.60075387      -1.61136662
H        3.30740687       0.26556183      -0.30109061
H        2.21469960      -1.97547892       0.11958588
H        1.05560432      -1.61299803      -1.23784808
21
Frame=15 idx=007782 GeodesicLength=1.1542325889086116 rxn_smarts="[C:1]([C:2]([C:3]([H:11])([H:12])[H:13])([C:4]([H:14])([H:15])[H:16])[C:5]1([H:17])[C:6]([H:18])([H:19])[C:7]1([H:20])[H:21])([H:8])([H:9])[H:10]>>[C:1]([C:2][C:5]1([H:17])[C:6]([H:18])([H:19])[C:7]1([H:20])[H:21])([H:8])([H:9])[H:10].[C:3]([C:4]([H:14])([H:15])[H:16])([H:11])([H:12])[H:13]"
C       -0.37471503       1.89358546       0.71235960
C       -0.09281960       0.58180779       0.06623401
C       -1.58916876      -0.35221208      -1.01827641
C       -1.58793189      -0.76988331       0.84769593
C        1.21304585      -0.00391020       0.34360077
C        2.30310414       0.09020424      -0.70864858
C        1.67651677      -1.22310707      -0.43531122
H       -0.15290439       1.85036450       1.78596249
H        0.27338187       2.62971941       0.22141980
H       -1.39202210       2.25621351       0.55173748
H       -2.65366775      -0.11875620      -1.11843471
H       -1.19535278       0.32089078      -1.78383846
H       -1.38274961      -1.32788956      -1.46526636
H       -1.53568847      -0.34594522       1.85564381
H       -2.63532155      -1.08199554       0.91855748
H       -1.00010117      -1.68897630       0.89353161
H        1.51968455       0.02485472       1.38809896
H        2.03813387       0.58561795      -1.63289588
H        3.30477324       0.26949233      -0.34110987
H        2.22108766      -1.96575341       0.13215257
H        1.04271514      -1.62432181      -1.21321300
21
Frame=16 idx=007782 GeodesicLength=1.234363308546887 rxn_smarts="[C:1]([C:2]([C:3]([H:11])([H:12])[H:13])([C:4]([H:14])([H:15])[H:16])[C:5]1([H:17])[C:6]([H:18])([H:19])[C:7]1([H:20])[H:21])([H:8])([H:9])[H:10]>>[C:1]([C:2][C:5]1([H:17])[C:6]([H:18])([H:19])[C:7]1([H:20])[H:21])([H:8])([H:9])[H:10].[C:3]([C:4]([H:14])([H:15])[H:16])([H:11])([H:12])[H:13]"
C       -0.37055412       1.89784108       0.72877681
C       -0.09214364       0.58146334       0.09078521
C       -1.58188735      -0.34908152      -1.02430494
C       -1.59992257      -0.77991782       0.84490506
C        1.22359764       0.00881411       0.34616126
C        2.29239717       0.08744602      -0.72913266
C        1.67360744      -1.22200974      -0.42436740
H       -0.13499173       1.85683175       1.79898598
H        0.26755778       2.63362349       0.22414036
H       -1.39070182       2.25647555       0.57753359
H       -2.62694315      -0.04836213      -1.14105087
H       -1.13330921       0.28841742      -1.79082796
H       -1.42120247      -1.34053846      -1.45667347
H       -1.60864991      -0.35452791       1.85403924
H       -2.63315616      -1.14311198       0.88620677
H       -0.97737027      -1.67505039       0.90991102
H        1.54695523       0.05137878       1.38455529
H        2.00805916       0.56888413      -1.65503598
H        3.30059130       0.27340044      -0.38342406
H        2.22846012      -1.95527120       0.14533578
H        1.02960657      -1.63670496      -1.18651901
