13
Frame=0 idx=010413 GeodesicLength=0.0 rxn_smarts="[C:1]([c:2]1[c:3]([H:11])[n:4]([H:12])[c:5]([O:6][H:13])[n:7]1)([H:8])([H:9])[H:10]>>[C:1]([n+:7]1[c-:2][c:3]([H:11])[n:4]([H:12])[c:5]1[O:6][H:13])([H:8])([H:9])[H:10]"
C        1.60066443       0.82970867       0.12830367
C        0.78921646      -0.65325008      -0.86750015
C        0.03303076      -1.63144376      -0.25871603
N       -1.14944629      -1.06094244       0.19883131
C       -1.09327039       0.24026396      -0.03969891
O       -2.06632174       1.07338649       0.34928298
N        0.01839633       0.56029154      -0.69427319
H        1.17850388       1.58390994       0.79373080
H        2.19898977       1.26521368      -0.65661477
H        2.15427779       0.09813930       0.70702683
H        0.21061652      -2.68587458      -0.12575374
H       -1.96377699      -1.53592635       0.55257438
H       -1.91088059       1.91652363      -0.08719324
13
Frame=1 idx=010413 GeodesicLength=0.06810123180520486 rxn_smarts="[C:1]([c:2]1[c:3]([H:11])[n:4]([H:12])[c:5]([O:6][H:13])[n:7]1)([H:8])([H:9])[H:10]>>[C:1]([n+:7]1[c-:2][c:3]([H:11])[n:4]([H:12])[c:5]1[O:6][H:13])([H:8])([H:9])[H:10]"
C        1.62075110       0.83778577       0.11937025
C        0.78977728      -0.65595184      -0.82719737
C        0.01870498      -1.63921172      -0.25125715
N       -1.17520427      -1.07175018       0.18199524
C       -1.10624468       0.23321824      -0.03377011
O       -2.08779761       1.06640775       0.33196741
N        0.02071754       0.55498760      -0.65437355
H        1.21874663       1.57951024       0.81110155
H        2.18607813       1.29628716      -0.67809492
H        2.21617783       0.11635887       0.66909571
H        0.20917672      -2.68736755      -0.08986888
H       -2.00389318      -1.54925090       0.49638813
H       -1.90699048       1.91897655      -0.07535629
13
Frame=2 idx=010413 GeodesicLength=0.13583305850247288 rxn_smarts="[C:1]([c:2]1[c:3]([H:11])[n:4]([H:12])[c:5]([O:6][H:13])[n:7]1)([H:8])([H:9])[H:10]>>[C:1]([n+:7]1[c-:2][c:3]([H:11])[n:4]([H:12])[c:5]1[O:6][H:13])([H:8])([H:9])[H:10]"
C        1.64135287       0.84710790       0.11079701
C        0.79172952      -0.65926426      -0.78116621
C        0.00512599      -1.64743767      -0.24110532
N       -1.20044999      -1.08272814       0.16498935
C       -1.11912280       0.22562087      -0.02715360
O       -2.10981175       1.05901631       0.31140491
N        0.02385436       0.54892496      -0.61019731
H        1.26180537       1.57747180       0.82718788
H        2.17153240       1.32682219      -0.69949839
H        2.27805525       0.13772893       0.62963094
H        0.20115309      -2.69171344      -0.06224944
H       -2.04131871      -1.56169426       0.44207406
H       -1.90390560       1.92014480      -0.06471388
13
Frame=3 idx=010413 GeodesicLength=0.2034595343984475 rxn_smarts="[C:1]([c:2]1[c:3]([H:11])[n:4]([H:12])[c:5]([O:6][H:13])[n:7]1)([H:8])([H:9])[H:10]>>[C:1]([n+:7]1[c-:2][c:3]([H:11])[n:4]([H:12])[c:5]1[O:6][H:13])([H:8])([H:9])[H:10]"
C        1.66283944       0.85791107       0.10279372
C        0.79518441      -0.66314193      -0.72747898
C       -0.00756020      -1.65589939      -0.22672327
N       -1.22471847      -1.09357339       0.14954194
C       -1.13156588       0.21772248      -0.01840482
O       -2.13207856       1.05155447       0.28752195
N        0.02797636       0.54220249      -0.55995102
H        1.30863079       1.57856837       0.84196152
H        2.15498832       1.35660876      -0.72117743
H        2.34050874       0.16265310       0.58839232
H        0.18520898      -2.70077126      -0.04793163
H       -2.07615429      -1.57317589       0.39024084
H       -1.90325964       1.91934111      -0.05878513
13
Frame=4 idx=010413 GeodesicLength=0.27082428778738676 rxn_smarts="[C:1]([c:2]1[c:3]([H:11])[n:4]([H:12])[c:5]([O:6][H:13])[n:7]1)([H:8])([H:9])[H:10]>>[C:1]([n+:7]1[c-:2][c:3]([H:11])[n:4]([H:12])[c:5]1[O:6][H:13])([H:8])([H:9])[H:10]"
C        1.68497792       0.87020884       0.09541399
C        0.80011042      -0.66754695      -0.66459654
C       -0.01963078      -1.66466574      -0.20821742
N       -1.24799391      -1.10429977       0.13576585
C       -1.14364329       0.20951635      -0.00720096
O       -2.15417848       1.04409929       0.26029839
N        0.03300430       0.53484040      -0.50231005
H        1.35946599       1.58418983       0.85433639
H        2.13638929       1.38426648      -0.74355170
H        2.40237492       0.19110373       0.54622232
H        0.16220671      -2.71468991      -0.04956655
H       -2.10834322      -1.58376408       0.34178667
H       -1.90473987       1.91674154      -0.05838040
13
Frame=5 idx=010413 GeodesicLength=0.3378250328875755 rxn_smarts="[C:1]([c:2]1[c:3]([H:11])[n:4]([H:12])[c:5]([O:6][H:13])[n:7]1)([H:8])([H:9])[H:10]>>[C:1]([n+:7]1[c-:2][c:3]([H:11])[n:4]([H:12])[c:5]1[O:6][H:13])([H:8])([H:9])[H:10]"
C        1.70747194       0.88339813       0.08815825
C        0.80579796      -0.67232648      -0.59153038
C       -0.03177129      -1.67381252      -0.18682709
N       -1.27088927      -1.11509011       0.12222407
C       -1.15568978       0.20099519       0.00717114
O       -2.17629344       1.03642887       0.22879606
N        0.03850248       0.52698990      -0.43514475
H        1.41522277       1.59378068       0.86416287
H        2.11422793       1.40921175      -0.76742215
H        2.46358430       0.22190741       0.50103281
H        0.13592808      -2.73069454      -0.06178784
H       -2.13921556      -1.59394531       0.29218207
H       -1.90687614       1.91315703      -0.06101509
13
Frame=6 idx=010413 GeodesicLength=0.4044196387298865 rxn_smarts="[C:1]([c:2]1[c:3]([H:11])[n:4]([H:12])[c:5]([O:6][H:13])[n:7]1)([H:8])([H:9])[H:10]>>[C:1]([n+:7]1[c-:2][c:3]([H:11])[n:4]([H:12])[c:5]1[O:6][H:13])([H:8])([H:9])[H:10]"
C        1.73038259       0.89670065       0.08068598
C        0.81140036      -0.67703448      -0.50625186
C       -0.04443073      -1.68306507      -0.16330418
N       -1.29401741      -1.12584349       0.10693010
C       -1.16771661       0.19233421       0.02791238
O       -2.19770854       1.02881252       0.19444249
N        0.04413976       0.51903635      -0.35344974
H        1.47834252       1.60586461       0.87211974
H        2.08551477       1.43136755      -0.79340344
H        2.52513242       0.25376394       0.44868057
H        0.10924452      -2.74621139      -0.08020665
H       -2.16977399      -1.60370672       0.23552141
H       -1.91050966       1.90798133      -0.06967680
13
Frame=7 idx=010413 GeodesicLength=0.4694638656104419 rxn_smarts="[C:1]([c:2]1[c:3]([H:11])[n:4]([H:12])[c:5]([O:6][H:13])[n:7]1)([H:8])([H:9])[H:10]>>[C:1]([n+:7]1[c-:2][c:3]([H:11])[n:4]([H:12])[c:5]1[O:6][H:13])([H:8])([H:9])[H:10]"
C        1.75203911       0.91018676       0.07236307
C        0.81724901      -0.68253020      -0.40339025
C       -0.05746784      -1.69284434      -0.13819552
N       -1.31716004      -1.13665678       0.08705045
C       -1.18027085       0.18290543       0.05376556
O       -2.21672518       1.02147937       0.15682623
N        0.04970629       0.50993707      -0.25295596
H        1.54815572       1.62370653       0.87408053
H        2.04767934       1.44731200      -0.82327326
H        2.58401155       0.28727270       0.39001278
H        0.08357849      -2.76038039      -0.10505541
H       -2.19926244      -1.61276289       0.16859232
H       -1.91153316       1.90237474      -0.07982054
13
Frame=8 idx=010413 GeodesicLength=0.5303586091426871 rxn_smarts="[C:1]([c:2]1[c:3]([H:11])[n:4]([H:12])[c:5]([O:6][H:13])[n:7]1)([H:8])([H:9])[H:10]>>[C:1]([n+:7]1[c-:2][c:3]([H:11])[n:4]([H:12])[c:5]1[O:6][H:13])([H:8])([H:9])[H:10]"
C        1.76952688       0.92300895       0.06250946
C        0.82326342      -0.68978503      -0.27442894
C       -0.06996458      -1.70282069      -0.11167040
N       -1.33882355      -1.14682424       0.06024150
C       -1.19327287       0.17252235       0.08398048
O       -2.23082465       1.01545871       0.11489223
N        0.05469070       0.49849605      -0.12582544
H        1.62357818       1.65016853       0.86502609
H        1.99517307       1.45181980      -0.85916997
H        2.63672127       0.32206883       0.32457374
H        0.06136707      -2.77174440      -0.13885806
H       -2.22562042      -1.61995256       0.08710681
H       -1.90581452       1.89758369      -0.08837751
13
Frame=9 idx=010413 GeodesicLength=0.5809949915889345 rxn_smarts="[C:1]([c:2]1[c:3]([H:11])[n:4]([H:12])[c:5]([O:6][H:13])[n:7]1)([H:8])([H:9])[H:10]>>[C:1]([n+:7]1[c-:2][c:3]([H:11])[n:4]([H:12])[c:5]1[O:6][H:13])([H:8])([H:9])[H:10]"
C        1.77674467       0.93142134       0.05115353
C        0.82753569      -0.69882897      -0.12030904
C       -0.07894030      -1.71056216      -0.08766626
N       -1.35474499      -1.15392221       0.02593455
C       -1.20487588       0.16265701       0.11519998
O       -2.23527841       1.01363695       0.06823343
N        0.05726744       0.48414173       0.03150079
H        1.69884520       1.67907650       0.84480531
H        1.91963554       1.44266411      -0.89759997
H        2.67623986       0.35302136       0.24845301
H        0.04978200      -2.77633188      -0.17630012
H       -2.24332679      -1.62274433      -0.00764177
H       -1.88888404       1.89577055      -0.09576343
13
Frame=10 idx=010413 GeodesicLength=0.6249307519666244 rxn_smarts="[C:1]([c:2]1[c:3]([H:11])[n:4]([H:12])[c:5]([O:6][H:13])[n:7]1)([H:8])([H:9])[H:10]>>[C:1]([n+:7]1[c-:2][c:3]([H:11])[n:4]([H:12])[c:5]1[O:6][H:13])([H:8])([H:9])[H:10]"
C        1.76749177       0.93137999       0.03992451
C        0.82829052      -0.70929475       0.04330140
C       -0.07981141      -1.71252300      -0.06810318
N       -1.35966915      -1.15531308      -0.00819472
C       -1.21079386       0.15610209       0.14462381
O       -2.22600153       1.01784775       0.02145501
N        0.05499344       0.46777869       0.19504381
H        1.75868012       1.70365188       0.81387694
H        1.82620399       1.41811202      -0.93132838
H        2.69207702       0.37334172       0.17079656
H        0.05409551      -2.77068853      -0.21784348
H       -2.24648351      -1.61876037      -0.10195260
H       -1.85907291       1.89836561      -0.10159969
13
Frame=11 idx=010413 GeodesicLength=0.6754356277199528 rxn_smarts="[C:1]([c:2]1[c:3]([H:11])[n:4]([H:12])[c:5]([O:6][H:13])[n:7]1)([H:8])([H:9])[H:10]>>[C:1]([n+:7]1[c-:2][c:3]([H:11])[n:4]([H:12])[c:5]1[O:6][H:13])([H:8])([H:9])[H:10]"
C        1.74720966       0.92309227       0.03088175
C        0.82424331      -0.71725603       0.18528794
C       -0.07307095      -1.70822342      -0.05024434
N       -1.35548966      -1.15232143      -0.03241575
C       -1.21195264       0.15377837       0.16889237
O       -2.20863478       1.02547752      -0.02007883
N        0.04765035       0.45457382       0.32945382
H        1.79854255       1.71455867       0.78382725
H        1.73548305       1.38952365      -0.95281719
H        2.68690769       0.37889164       0.10048541
H        0.07283431      -2.75511120      -0.25650849
H       -2.23729874      -1.61079909      -0.17987175
H       -1.82642417       1.90381522      -0.10689219
13
Frame=12 idx=010413 GeodesicLength=0.7293529616034176 rxn_smarts="[C:1]([c:2]1[c:3]([H:11])[n:4]([H:12])[c:5]([O:6][H:13])[n:7]1)([H:8])([H:9])[H:10]>>[C:1]([n+:7]1[c-:2][c:3]([H:11])[n:4]([H:12])[c:5]1[O:6][H:13])([H:8])([H:9])[H:10]"
C        1.72420187       0.91112187       0.02493282
C        0.81697654      -0.72165468       0.29601312
C       -0.06346510      -1.70060607      -0.03432643
N       -1.34849651      -1.14867356      -0.04305607
C       -1.21140075       0.15401722       0.18711289
O       -2.18958232       1.03317509      -0.05733295
N        0.03759079       0.44535184       0.43182270
H        1.82730543       1.71240807       0.76231330
H        1.65795874       1.36830840      -0.96185609
H        2.67081126       0.37404972       0.03884652
H        0.09855823      -2.73321309      -0.29329160
H       -2.22373471      -1.60335616      -0.23350092
H       -1.79672347       1.90907137      -0.11767730
13
Frame=13 idx=010413 GeodesicLength=0.7835660747340629 rxn_smarts="[C:1]([c:2]1[c:3]([H:11])[n:4]([H:12])[c:5]([O:6][H:13])[n:7]1)([H:8])([H:9])[H:10]>>[C:1]([n+:7]1[c-:2][c:3]([H:11])[n:4]([H:12])[c:5]1[O:6][H:13])([H:8])([H:9])[H:10]"
C        1.70091559       0.89882043       0.02103503
C        0.80873502      -0.72394919       0.38166137
C       -0.05363714      -1.69251066      -0.01983311
N       -1.34158836      -1.14592365      -0.04575966
C       -1.20995719       0.15511189       0.20048181
O       -2.16935822       1.04007384      -0.09337115
N        0.02657238       0.43774642       0.51361396
H        1.85179420       1.70098413       0.74945838
H        1.59038487       1.35846017      -0.96159782
H        2.64889275       0.36485154      -0.01917175
H        0.12561109      -2.70967995      -0.32388804
H       -2.20993707      -1.59750507      -0.27061660
H       -1.76842790       1.91352010      -0.13201243
13
Frame=14 idx=010413 GeodesicLength=0.8373802887037959 rxn_smarts="[C:1]([c:2]1[c:3]([H:11])[n:4]([H:12])[c:5]([O:6][H:13])[n:7]1)([H:8])([H:9])[H:10]>>[C:1]([n+:7]1[c-:2][c:3]([H:11])[n:4]([H:12])[c:5]1[O:6][H:13])([H:8])([H:9])[H:10]"
C        1.67799862       0.88669699       0.01801109
C        0.80021163      -0.72493930       0.45235542
C       -0.04410899      -1.68472961      -0.00534316
N       -1.33475811      -1.14342716      -0.04723343
C       -1.20806292       0.15648053       0.21112595
O       -2.14919148       1.04636000      -0.12469626
N        0.01510711       0.43115522       0.58221951
H        1.87379575       1.68490448       0.74038318
H        1.53027939       1.35504212      -0.95656773
H        2.62335616       0.35379858      -0.07375745
H        0.15295916      -2.68591284      -0.34844997
H       -2.19634189      -1.59254502      -0.30019095
H       -1.74124444       1.91711601      -0.14785621
13
Frame=15 idx=010413 GeodesicLength=0.8912231080421494 rxn_smarts="[C:1]([c:2]1[c:3]([H:11])[n:4]([H:12])[c:5]([O:6][H:13])[n:7]1)([H:8])([H:9])[H:10]>>[C:1]([n+:7]1[c-:2][c:3]([H:11])[n:4]([H:12])[c:5]1[O:6][H:13])([H:8])([H:9])[H:10]"
C        1.65510079       0.87552263       0.01598902
C        0.79198788      -0.72541750       0.51176040
C       -0.03494594      -1.67717350       0.00725737
N       -1.32830631      -1.14133255      -0.04721281
C       -1.20596186       0.15762608       0.22158806
O       -2.12903411       1.05221398      -0.15054502
N        0.00357450       0.42446414       0.64299377
H        1.89482302       1.66498489       0.73505635
H        1.47444157       1.35868354      -0.94674080
H        2.59448764       0.34276147      -0.12730094
H        0.17922543      -2.66290024      -0.36841800
H       -2.18347958      -1.58815088      -0.32391717
H       -1.71191302       1.91871793      -0.17051022
13
Frame=16 idx=010413 GeodesicLength=0.9451576721844952 rxn_smarts="[C:1]([c:2]1[c:3]([H:11])[n:4]([H:12])[c:5]([O:6][H:13])[n:7]1)([H:8])([H:9])[H:10]>>[C:1]([n+:7]1[c-:2][c:3]([H:11])[n:4]([H:12])[c:5]1[O:6][H:13])([H:8])([H:9])[H:10]"
C        1.63249709       0.86428144       0.01423926
C        0.78352422      -0.72521668       0.56550298
C       -0.02623085      -1.67001575       0.02094970
N       -1.32209343      -1.13947595      -0.04623813
C       -1.20387030       0.15883280       0.23104988
O       -2.10920240       1.05756594      -0.17380935
N       -0.00833070       0.41842472       0.69747887
H        1.91423066       1.64381731       0.72924453
H        1.42334974       1.36345998      -0.93549788
H        2.56336175       0.33103149      -0.17721310
H        0.20622272      -2.63804097      -0.38809903
H       -2.17073952      -1.58421694      -0.34465045
H       -1.68271899       1.91955261      -0.19295729
