13
Frame=0 idx=002861 GeodesicLength=0.0 rxn_smarts="[C:1]([C:2]([C@@:3]([O:4][H:13])([C:5]#[N:6])[H:12])([H:10])[H:11])([H:7])([H:8])[H:9]>>[C:1]([C:2]([C:3]([O:4][H:13])=[C:5]=[N:6][H:12])([H:10])[H:11])([H:7])([H:8])[H:9]"
C        1.52813879       0.48025284      -0.29286090
C        0.40703095       0.24501910       0.70553925
C       -0.89067375      -0.23425156       0.09854871
O       -1.81259438      -0.71740877       0.97449799
C       -1.42638885       0.36796133      -1.15969766
N       -0.99857780      -0.77436959      -1.52020108
H        2.41224597       0.85093746       0.22572881
H        1.80563181      -0.43938740      -0.81197470
H        1.24313630       1.21417444      -1.04711197
H        0.15514497       1.17931459       1.21749743
H        0.71059423      -0.46609391       1.47729225
H       -0.45375951      -1.32777869      -0.59276009
H       -2.67992874      -0.37836978       0.72550201
13
Frame=1 idx=002861 GeodesicLength=0.10279190700200672 rxn_smarts="[C:1]([C:2]([C@@:3]([O:4][H:13])([C:5]#[N:6])[H:12])([H:10])[H:11])([H:7])([H:8])[H:9]>>[C:1]([C:2]([C:3]([O:4][H:13])=[C:5]=[N:6][H:12])([H:10])[H:11])([H:7])([H:8])[H:9]"
C        1.52939611       0.48244089      -0.29034501
C        0.40831745       0.24743442       0.70821969
C       -0.88766495      -0.23755135       0.10227000
O       -1.81125494      -0.70256629       0.98906139
C       -1.41566716       0.36013843      -1.15392774
N       -1.01115611      -0.77368480      -1.54867906
H        2.41328356       0.85476119       0.22750231
H        1.80811150      -0.43804708      -0.80732495
H        1.24501551       1.21523504      -1.04600352
H        0.15626539       1.18205149       1.21944192
H        0.71311855      -0.46172622       1.48136114
H       -0.46536164      -1.34381075      -0.60883706
H       -2.68240326      -0.38467499       0.72726090
13
Frame=2 idx=002861 GeodesicLength=0.20553711693646615 rxn_smarts="[C:1]([C:2]([C@@:3]([O:4][H:13])([C:5]#[N:6])[H:12])([H:10])[H:11])([H:7])([H:8])[H:9]>>[C:1]([C:2]([C:3]([O:4][H:13])=[C:5]=[N:6][H:12])([H:10])[H:11])([H:7])([H:8])[H:9]"
C        1.53073856       0.48448925      -0.28771640
C        0.40967129       0.25009031       0.71109074
C       -0.88449578      -0.24097657       0.10630557
O       -1.80979129      -0.68730170       1.00372173
C       -1.40487368       0.35173676      -1.14810510
N       -1.02399042      -0.77189011      -1.57795842
H        2.41443731       0.85853072       0.22926517
H        1.81054178      -0.43701765      -0.80232552
H        1.24698042       1.21593070      -1.04500355
H        0.15739300       1.18522501       1.22118903
H        0.71568057      -0.45688570       1.48584254
H       -0.47768850      -1.35980580      -0.62546075
H       -2.68460326      -0.39212520       0.72915496
13
Frame=3 idx=002861 GeodesicLength=0.30825053980031947 rxn_smarts="[C:1]([C:2]([C@@:3]([O:4][H:13])([C:5]#[N:6])[H:12])([H:10])[H:11])([H:7])([H:8])[H:9]>>[C:1]([C:2]([C:3]([O:4][H:13])=[C:5]=[N:6][H:12])([H:10])[H:11])([H:7])([H:8])[H:9]"
C        1.53216727       0.48638893      -0.28496907
C        0.41108784       0.25299411       0.71415627
C       -0.88115731      -0.24455063       0.11066582
O       -1.80822195      -0.67156979       1.01846966
C       -1.39399412       0.34270018      -1.14223904
N       -1.03707230      -0.76889994      -1.60807090
H        2.41570549       0.86224658       0.23101873
H        1.81292625      -0.43631316      -0.79695566
H        1.24903166       1.21623661      -1.04411790
H        0.15851114       1.18885371       1.22271406
H        0.71827487      -0.45153864       1.49076161
H       -0.49078529      -1.37576599      -0.64267072
H       -2.68647355      -0.40078195       0.73123712
13
Frame=4 idx=002861 GeodesicLength=0.4109405490524013 rxn_smarts="[C:1]([C:2]([C@@:3]([O:4][H:13])([C:5]#[N:6])[H:12])([H:10])[H:11])([H:7])([H:8])[H:9]>>[C:1]([C:2]([C:3]([O:4][H:13])=[C:5]=[N:6][H:12])([H:10])[H:11])([H:7])([H:8])[H:9]"
C        1.53368404       0.48812829      -0.28209622
C        0.41256255       0.25615468       0.71741908
C       -0.87763798      -0.24830496       0.11536177
O       -1.80656709      -0.65531183       1.03329320
C       -1.38300998       0.33296641      -1.13633902
N       -1.05040026      -0.76460805      -1.63904120
H        2.41708749       0.86590647       0.23276489
H        1.81526586      -0.43595115      -0.79119106
H        1.25117276       1.21612311      -1.04335238
H        0.15960211       1.19295898       1.22398382
H        0.72089433      -0.44564139       1.49614643
H       -0.50470198      -1.39168902      -0.66050972
H       -2.68795184      -0.41073153       0.73356042
13
Frame=5 idx=002861 GeodesicLength=0.5136057125794551 rxn_smarts="[C:1]([C:2]([C@@:3]([O:4][H:13])([C:5]#[N:6])[H:12])([H:10])[H:11])([H:7])([H:8])[H:9]>>[C:1]([C:2]([C:3]([O:4][H:13])=[C:5]=[N:6][H:12])([H:10])[H:11])([H:7])([H:8])[H:9]"
C        1.53528902       0.48970016      -0.27908986
C        0.41408702       0.25957510       0.72087975
C       -0.87392458      -0.25228084       0.12039840
O       -1.80484837      -0.63849786       1.04816067
C       -1.37189995       0.32245824      -1.13042441
N       -1.06397579      -0.75892164      -1.67089010
H        2.41857715       0.86951473       0.23451264
H        1.81756923      -0.43594069      -0.78501299
H        1.25340164       1.21556831      -1.04271078
H        0.16063412       1.19755433       1.22496688
H        0.72353106      -0.43916070       1.50202279
H       -0.51947220      -1.40757861      -0.67902380
H       -2.68896836      -0.42199052       0.73621080
13
Frame=6 idx=002861 GeodesicLength=0.6162777514682158 rxn_smarts="[C:1]([C:2]([C@@:3]([O:4][H:13])([C:5]#[N:6])[H:12])([H:10])[H:11])([H:7])([H:8])[H:9]>>[C:1]([C:2]([C:3]([O:4][H:13])=[C:5]=[N:6][H:12])([H:10])[H:11])([H:7])([H:8])[H:9]"
C        1.53698244       0.49109296      -0.27594011
C        0.41565160       0.26326135       0.72453872
C       -0.87000314      -0.25652435       0.12578419
O       -1.80309249      -0.62107776       1.06304024
C       -1.36063761       0.31108082      -1.12451911
N       -1.07780828      -0.75170291      -1.70362621
H        2.42016913       0.87307138       0.23626768
H        1.81983864      -0.43629620      -0.77839203
H        1.25572128       1.21453862      -1.04219537
H        0.16157532       1.20265673       1.22561799
H        0.72617159      -0.43204584       1.50841964
H       -0.53512914      -1.42344262      -0.69827432
H       -2.68943934      -0.43461218       0.73927868
13
Frame=7 idx=002861 GeodesicLength=0.7189722627844979 rxn_smarts="[C:1]([C:2]([C@@:3]([O:4][H:13])([C:5]#[N:6])[H:12])([H:10])[H:11])([H:7])([H:8])[H:9]>>[C:1]([C:2]([C:3]([O:4][H:13])=[C:5]=[N:6][H:12])([H:10])[H:11])([H:7])([H:8])[H:9]"
C        1.53876213       0.49230067      -0.27263473
C        0.41724477       0.26721651       0.72839157
C       -0.86585603      -0.26109439       0.13151785
O       -1.80132274      -0.60303713       1.07787602
C       -1.34918951       0.29872378      -1.11865289
N       -1.09192108      -0.74282448      -1.73724156
H        2.42185442       0.87658195       0.23804591
H        1.82207892      -0.43702298      -0.77130557
H        1.25812891       1.21301135      -1.04180151
H        0.16238542       1.20827359       1.22588850
H        0.72880572      -0.42425187       1.51536120
H       -0.55168802      -1.43930021      -0.71832017
H       -2.68928291      -0.44857679       0.74287537
13
Frame=8 idx=002861 GeodesicLength=0.821670474358367 rxn_smarts="[C:1]([C:2]([C@@:3]([O:4][H:13])([C:5]#[N:6])[H:12])([H:10])[H:11])([H:7])([H:8])[H:9]>>[C:1]([C:2]([C:3]([O:4][H:13])=[C:5]=[N:6][H:12])([H:10])[H:11])([H:7])([H:8])[H:9]"
C        1.54062502       0.49331133      -0.26916043
C        0.41885203       0.27144403       0.73242935
C       -0.86146838      -0.26606239       0.13759950
O       -1.79956981      -0.58434871       1.09260822
C       -1.33752243       0.28527242      -1.11285179
N       -1.10632652      -0.73212307      -1.77170054
H        2.42362277       0.88005151       0.23986198
H        1.82428322      -0.43813495      -0.76372067
H        1.26063314       1.21095297      -1.04153284
H        0.16303269       1.21442137       1.22571001
H        0.73140524      -0.41572051       1.52287463
H       -0.56915263      -1.45516525      -0.73924533
H       -2.68841435      -0.46389874       0.74712790
13
Frame=9 idx=002861 GeodesicLength=0.9241219254694778 rxn_smarts="[C:1]([C:2]([C@@:3]([O:4][H:13])([C:5]#[N:6])[H:12])([H:10])[H:11])([H:7])([H:8])[H:9]>>[C:1]([C:2]([C:3]([O:4][H:13])=[C:5]=[N:6][H:12])([H:10])[H:11])([H:7])([H:8])[H:9]"
C        1.54259735       0.49411565      -0.26550915
C        0.42043428       0.27595366       0.73661071
C       -0.85677138      -0.27152888       0.14396694
O       -1.79781171      -0.56506327       1.10708747
C       -1.32557967       0.27075020      -1.10706867
N       -1.12119717      -0.71946558      -1.80683591
H        2.42546777       0.88346329       0.24175070
H        1.82653256      -0.43963165      -0.75561614
H        1.26327848       1.20833644      -1.04138552
H        0.16336340       1.22107562       1.22497710
H        0.73393137      -0.40634898       1.53095679
H       -0.58754799      -1.47109975      -0.76103002
H       -2.68669728      -0.48055677       0.75209568
13
Frame=10 idx=002861 GeodesicLength=1.026665700783348 rxn_smarts="[C:1]([C:2]([C@@:3]([O:4][H:13])([C:5]#[N:6])[H:12])([H:10])[H:11])([H:7])([H:8])[H:9]>>[C:1]([C:2]([C:3]([O:4][H:13])=[C:5]=[N:6][H:12])([H:10])[H:11])([H:7])([H:8])[H:9]"
C        1.54465763       0.49470566      -0.26166397
C        0.42198672       0.28073677       0.74095015
C       -0.85178679      -0.27753776       0.15067025
O       -1.79611543      -0.54513462       1.12128114
C       -1.31331359       0.25487723      -1.10143451
N       -1.13651075      -0.70462419      -1.84267668
H        2.42736706       0.88685529       0.24372342
H        1.82879284      -0.44153426      -0.74694934
H        1.26603171       1.20512183      -1.04137623
H        0.16339890       1.22827073       1.22366332
H        0.73637033      -0.39612848       1.53965745
H       -0.60681038      -1.48711466      -0.78383118
H       -2.68406825      -0.49849353       0.75798618
13
Frame=11 idx=002861 GeodesicLength=1.1292585012637517 rxn_smarts="[C:1]([C:2]([C@@:3]([O:4][H:13])([C:5]#[N:6])[H:12])([H:10])[H:11])([H:7])([H:8])[H:9]>>[C:1]([C:2]([C:3]([O:4][H:13])=[C:5]=[N:6][H:12])([H:10])[H:11])([H:7])([H:8])[H:9]"
C        1.54680093       0.49508828      -0.25761313
C        0.42348395       0.28577390       0.74542413
C       -0.84649099      -0.28417391       0.15768714
O       -1.79448492      -0.52464910       1.13506848
C       -1.30066762       0.23753124      -1.09597650
N       -1.15233597      -0.68748375      -1.87911916
H        2.42929240       0.89025687       0.24580529
H        1.83109356      -0.44381638      -0.73770312
H        1.26888237       1.20130124      -1.04149085
H        0.16305749       1.23597082       1.22171298
H        0.73870520      -0.38502850       1.54896857
H       -0.62688071      -1.50329333      -0.80770134
H       -2.68045568      -0.51747738       0.76493753
13
Frame=12 idx=002861 GeodesicLength=1.2318778255012814 rxn_smarts="[C:1]([C:2]([C@@:3]([O:4][H:13])([C:5]#[N:6])[H:12])([H:10])[H:11])([H:7])([H:8])[H:9]>>[C:1]([C:2]([C:3]([O:4][H:13])=[C:5]=[N:6][H:12])([H:10])[H:11])([H:7])([H:8])[H:9]"
C        1.54903078       0.49526711      -0.25334453
C        0.42489832       0.29105113       0.75000368
C       -0.84085676      -0.29151792       0.16499878
O       -1.79292447      -0.50367840       1.14831414
C       -1.28757296       0.21857831      -1.09073262
N       -1.16878872      -0.66786647      -1.91600451
H        2.43122266       0.89369175       0.24802185
H        1.83347593      -0.44645969      -0.72785172
H        1.27183644       1.19685004      -1.04172174
H        0.16225372       1.24414087       1.21905118
H        0.74090792      -0.37299934       1.55887895
H       -0.64768813      -1.51972110      -0.83268361
H       -2.67579473      -0.53733629       0.77307015
13
Frame=13 idx=002861 GeodesicLength=1.3344203860624169 rxn_smarts="[C:1]([C:2]([C@@:3]([O:4][H:13])([C:5]#[N:6])[H:12])([H:10])[H:11])([H:7])([H:8])[H:9]>>[C:1]([C:2]([C:3]([O:4][H:13])=[C:5]=[N:6][H:12])([H:10])[H:11])([H:7])([H:8])[H:9]"
C        1.55134006       0.49525176      -0.24885380
C        0.42620146       0.29655025       0.75465640
C       -0.83486119      -0.29965413       0.17258612
O       -1.79143274      -0.48236265       1.16089194
C       -1.27395770       0.19786469      -1.08574053
N       -1.18594128      -0.64559806      -1.95310888
H        2.43312415       0.89720019       0.25039215
H        1.83596242      -0.44944175      -0.71737427
H        1.27489357       1.19175644      -1.04207109
H        0.16091990       1.25274291       1.21560425
H        0.74294435      -0.36001445       1.56937211
H       -0.66913533      -1.53649804      -0.85884247
H       -2.67005771      -0.55779717       0.78248808
13
Frame=14 idx=002861 GeodesicLength=1.4368812082469025 rxn_smarts="[C:1]([C:2]([C@@:3]([O:4][H:13])([C:5]#[N:6])[H:12])([H:10])[H:11])([H:7])([H:8])[H:9]>>[C:1]([C:2]([C:3]([O:4][H:13])=[C:5]=[N:6][H:12])([H:10])[H:11])([H:7])([H:8])[H:9]"
C        1.55373736       0.49505879      -0.24412737
C        0.42736992       0.30224154       0.75933787
C       -0.82846616      -0.30867173       0.18042263
O       -1.78998046      -0.46088803       1.17266187
C       -1.25971834       0.17518188      -1.08106458
N       -1.20396905      -0.62045089      -1.99013951
H        2.43497074       0.90083731       0.25294478
H        1.83861480      -0.45271489      -0.70624376
H        1.27805359       1.18600349      -1.04252411
H        0.15895827       1.26171044       1.21128668
H        0.74479929      -0.34603141       1.58040898
H       -0.69111760      -1.55376493      -0.88620866
H       -2.66325236      -0.57851157       0.79324519
13
Frame=15 idx=002861 GeodesicLength=1.5391771590124326 rxn_smarts="[C:1]([C:2]([C@@:3]([O:4][H:13])([C:5]#[N:6])[H:12])([H:10])[H:11])([H:7])([H:8])[H:9]>>[C:1]([C:2]([C:3]([O:4][H:13])=[C:5]=[N:6][H:12])([H:10])[H:11])([H:7])([H:8])[H:9]"
C        1.55622231       0.49471260      -0.23916274
C        0.42838170       0.30809434       0.76400225
C       -0.82163211      -0.31866983       0.18847813
O       -1.78851911      -0.43952722       1.18350103
C       -1.24474422       0.15029607      -1.07676834
N       -1.22301590      -0.59218226      -2.02670773
H        2.43672214       0.90468675       0.25570243
H        1.84148881      -0.45624196      -0.69443507
H        1.28130770       1.17958224      -1.04309128
H        0.15628789       1.27098662       1.20602295
H        0.74645691      -0.33102666       1.59195436
H       -0.71352214      -1.57168560      -0.91483322
H       -2.65543398      -0.59902510       0.80533724
13
Frame=16 idx=002861 GeodesicLength=1.6413963197733814 rxn_smarts="[C:1]([C:2]([C@@:3]([O:4][H:13])([C:5]#[N:6])[H:12])([H:10])[H:11])([H:7])([H:8])[H:9]>>[C:1]([C:2]([C:3]([O:4][H:13])=[C:5]=[N:6][H:12])([H:10])[H:11])([H:7])([H:8])[H:9]"
C        1.55881720       0.49420243      -0.23395929
C        0.42921018       0.31412228       0.76860911
C       -0.81431512      -0.32970360       0.19673053
O       -1.78701267      -0.41844252       1.19330533
C       -1.22890531       0.12296997      -1.07293697
N       -1.24330754      -0.56036510      -2.06235572
H        2.43835264       0.90881471       0.25868509
H        1.84467080      -0.46006862      -0.68187450
H        1.28468364       1.17241582      -1.04384976
H        0.15282412       1.28059890       1.19970221
H        0.74787968      -0.31491919       1.60402872
H       -0.73625113      -1.59043080      -0.94480268
H       -2.64664649      -0.61919427       0.81871793
