15
Frame=0 idx=009926 GeodesicLength=0.0 rxn_smarts="[N:1]([C@@:2]([C:3]([C:4]([O:5][H:15])([H:13])[H:14])([H:11])[H:12])([C:6]#[N:7])[H:10])([H:8])[H:9]>>[C:3](=[C:4]([O:5][H:15])[H:13])([H:11])[H:12].[N:1]([C:2](=[C:6]=[N:7][H:14])[H:10])([H:8])[H:9]"
N       -1.96661673      -0.82783525      -0.61317237
C       -1.41833428      -0.01954488       0.40248870
C        0.70166670      -0.79174023       0.63038729
C        1.63540351       0.08856206       0.12698483
O        1.97645052      -0.06628652      -1.21603013
C       -0.97422999       1.25821627       0.20833450
N       -0.10186490       2.06475759       0.07037346
H       -2.96791964      -0.93467662      -0.55161889
H       -1.70048031      -0.53567102      -1.54115908
H       -1.76899197      -0.25392381       1.40116946
H        0.32730075      -1.59662277       0.01221792
H        0.65810446      -0.93497572       1.70205802
H        2.42907860       0.45460060       0.77875186
H        0.86573286       1.32740285       0.14473633
H        2.30470037       0.76773748      -1.55552189
15
Frame=1 idx=009926 GeodesicLength=0.12887603283821608 rxn_smarts="[N:1]([C@@:2]([C:3]([C:4]([O:5][H:15])([H:13])[H:14])([H:11])[H:12])([C:6]#[N:7])[H:10])([H:8])[H:9]>>[C:3](=[C:4]([O:5][H:15])[H:13])([H:11])[H:12].[N:1]([C:2](=[C:6]=[N:7][H:14])[H:10])([H:8])[H:9]"
N       -2.01035820      -0.82900989      -0.59863356
C       -1.42705075      -0.02178634       0.40027276
C        0.70071670      -0.78962514       0.59958331
C        1.65189685       0.09873785       0.13980093
O        2.07468732      -0.06251532      -1.17818536
C       -0.99141483       1.25747795       0.18356392
N       -0.12783759       2.06784129       0.02047020
H       -2.99501915      -1.00100623      -0.46141354
H       -1.84696218      -0.49502741      -1.53634325
H       -1.75841199      -0.23768149       1.41037400
H        0.32964469      -1.56887519      -0.05318626
H        0.66823645      -1.00100380       1.66045949
H        2.40827270       0.48265258       0.82538482
H        0.87532994       1.33908801       0.08390686
H        2.44827005       0.76073313      -1.49605432
15
Frame=2 idx=009926 GeodesicLength=0.25155819412939556 rxn_smarts="[N:1]([C@@:2]([C:3]([C:4]([O:5][H:15])([H:13])[H:14])([H:11])[H:12])([C:6]#[N:7])[H:10])([H:8])[H:9]>>[C:3](=[C:4]([O:5][H:15])[H:13])([H:11])[H:12].[N:1]([C:2](=[C:6]=[N:7][H:14])[H:10])([H:8])[H:9]"
N       -2.05331279      -0.82858602      -0.58390146
C       -1.43474392      -0.02280918       0.39697713
C        0.69988604      -0.78809666       0.56714694
C        1.66626431       0.10885049       0.15205501
O        2.17122087      -0.05956726      -1.13496064
C       -1.00797022       1.25761977       0.15725262
N       -0.15231905       2.07006143      -0.03102467
H       -3.01075082      -1.06782968      -0.37362564
H       -1.99759365      -0.45528021      -1.51946424
H       -1.74605546      -0.21987958       1.41797098
H        0.33158296      -1.53792251      -0.12140146
H        0.67843383      -1.06908420       1.61218898
H        2.38213275       0.51148289       0.87019593
H        0.88600273       1.34845898       0.01786278
H        2.58722243       0.75258174      -1.42727225
15
Frame=3 idx=009926 GeodesicLength=0.36824282841143385 rxn_smarts="[N:1]([C@@:2]([C:3]([C:4]([O:5][H:15])([H:13])[H:14])([H:11])[H:12])([C:6]#[N:7])[H:10])([H:8])[H:9]>>[C:3](=[C:4]([O:5][H:15])[H:13])([H:11])[H:12].[N:1]([C:2](=[C:6]=[N:7][H:14])[H:10])([H:8])[H:9]"
N       -2.09446869      -0.82609583      -0.56985573
C       -1.44129748      -0.02262223       0.39265763
C        0.69919359      -0.78725730       0.53412974
C        1.67819509       0.11854029       0.16343443
O        2.26377871      -0.05795288      -1.08703578
C       -1.02369502       1.25876032       0.13031210
N       -0.17490356       2.07144480      -0.08296358
H       -3.01373220      -1.13537751      -0.29128958
H       -2.14998349      -0.41537339      -1.48975830
H       -1.73260052      -0.20103385       1.42364961
H        0.33311250      -1.50446699      -0.19013406
H        0.68869993      -1.13702071       1.55854646
H        2.35134961       0.54050665       0.91168102
H        0.89792243       1.35491340      -0.05259147
H        2.71842911       0.74303522      -1.35078250
15
Frame=4 idx=009926 GeodesicLength=0.4804292142260997 rxn_smarts="[N:1]([C@@:2]([C:3]([C:4]([O:5][H:15])([H:13])[H:14])([H:11])[H:12])([C:6]#[N:7])[H:10])([H:8])[H:9]>>[C:3](=[C:4]([O:5][H:15])[H:13])([H:11])[H:12].[N:1]([C:2](=[C:6]=[N:7][H:14])[H:10])([H:8])[H:9]"
N       -2.13522447      -0.82237692      -0.55480573
C       -1.44654518      -0.02090787       0.38697079
C        0.69845289      -0.78757145       0.49920031
C        1.68776780       0.12777366       0.17425248
O        2.35295103      -0.05626088      -1.03381383
C       -1.03847712       1.26069430       0.09985329
N       -0.19520500       2.07182537      -0.13723419
H       -3.00581714      -1.20168365      -0.21318073
H       -2.30400812      -0.37909271      -1.44546124
H       -1.71697344      -0.17927745       1.42759846
H        0.33428226      -1.46784133      -0.26144606
H        0.69873767      -1.20638277       1.49760510
H        2.31553267       0.56881672       0.95090267
H        0.91169133       1.35845349      -0.12554899
H        2.84283481       0.73383148      -1.26489234
15
Frame=5 idx=009926 GeodesicLength=0.5880063402031546 rxn_smarts="[N:1]([C@@:2]([C:3]([C:4]([O:5][H:15])([H:13])[H:14])([H:11])[H:12])([C:6]#[N:7])[H:10])([H:8])[H:9]>>[C:3](=[C:4]([O:5][H:15])[H:13])([H:11])[H:12].[N:1]([C:2](=[C:6]=[N:7][H:14])[H:10])([H:8])[H:9]"
N       -2.17381364      -0.81636047      -0.54075130
C       -1.45055635      -0.01790189       0.38018571
C        0.69768876      -0.78882657       0.46465543
C        1.69483015       0.13596048       0.18406680
O        2.43516996      -0.05558209      -0.97740392
C       -1.05221266       1.26352139       0.06837222
N       -0.21317377       2.07130575      -0.19195332
H       -2.98498684      -1.26776002      -0.14468219
H       -2.45569253      -0.34374223      -1.38678939
H       -1.70091405      -0.15615255       1.42935251
H        0.33512329      -1.42994739      -0.33063565
H        0.70860183      -1.27321202       1.43304800
H        2.27685418       0.59558547       0.98562156
H        0.92751380       1.35898036      -0.19907079
H        2.95556788       0.72413179      -1.17401563
15
Frame=6 idx=009926 GeodesicLength=0.6925880827541722 rxn_smarts="[N:1]([C@@:2]([C:3]([C:4]([O:5][H:15])([H:13])[H:14])([H:11])[H:12])([C:6]#[N:7])[H:10])([H:8])[H:9]>>[C:3](=[C:4]([O:5][H:15])[H:13])([H:11])[H:12].[N:1]([C:2](=[C:6]=[N:7][H:14])[H:10])([H:8])[H:9]"
N       -2.21208153      -0.80970623      -0.52526031
C       -1.45318747      -0.01331662       0.37147470
C        0.69666166      -0.79139258       0.42851682
C        1.69963567       0.14305669       0.19339424
O        2.51119726      -0.05390425      -0.91764480
C       -1.06516664       1.26664397       0.03134863
N       -0.22880266       2.06997888      -0.24881109
H       -2.95509305      -1.32995932      -0.08241418
H       -2.60469161      -0.31512302      -1.31269909
H       -1.68277674      -0.12909963       1.42875706
H        0.33578483      -1.38986137      -0.40070301
H        0.71788908      -1.33994090       1.36203468
H        2.23528688       0.61921129       1.01772177
H        0.94641294       1.35778284      -0.26987886
H        3.05893138       0.71563024      -1.07583656
15
Frame=7 idx=009926 GeodesicLength=0.7943441869040535 rxn_smarts="[N:1]([C@@:2]([C:3]([C:4]([O:5][H:15])([H:13])[H:14])([H:11])[H:12])([C:6]#[N:7])[H:10])([H:8])[H:9]>>[C:3](=[C:4]([O:5][H:15])[H:13])([H:11])[H:12].[N:1]([C:2](=[C:6]=[N:7][H:14])[H:10])([H:8])[H:9]"
N       -2.24847149      -0.80108476      -0.51085564
C       -1.45482774      -0.00797114       0.36170876
C        0.69555202      -0.79465181       0.39367979
C        1.70231070       0.14891437       0.20168979
O        2.57864747      -0.05300180      -0.85714769
C       -1.07759406       1.27005714      -0.00669571
N       -0.24289733       2.06795055      -0.30534760
H       -2.91532550      -1.38931325      -0.03302479
H       -2.74656095      -0.28922494      -1.22441413
H       -1.66498396      -0.10121126       1.42590794
H        0.33638316      -1.35012900      -0.46624584
H        0.72712785      -1.40213558       1.28980022
H        2.19320273       0.64042125       1.04505834
H        0.96779109       1.35487433      -0.33802513
H        3.14964602       0.70650591      -0.97608832
15
Frame=8 idx=009926 GeodesicLength=0.8946573625036113 rxn_smarts="[N:1]([C@@:2]([C:3]([C:4]([O:5][H:15])([H:13])[H:14])([H:11])[H:12])([C:6]#[N:7])[H:10])([H:8])[H:9]>>[C:3](=[C:4]([O:5][H:15])[H:13])([H:11])[H:12].[N:1]([C:2](=[C:6]=[N:7][H:14])[H:10])([H:8])[H:9]"
N       -2.28464971      -0.79168692      -0.49466437
C       -1.45544916      -0.00135709       0.35054255
C        0.69401275      -0.79897166       0.35764570
C        1.70285483       0.15357947       0.20937801
O        2.63948047      -0.05149148      -0.79490314
C       -1.08997889       1.27334043      -0.04929425
N       -0.25571835       2.06523550      -0.36350337
H       -2.86954264      -1.44311382       0.00815675
H       -2.88048007      -0.27069048      -1.12158705
H       -1.64551588      -0.07010591       1.42102407
H        0.33684285      -1.30934251      -0.53118725
H        0.73590656      -1.46280455       1.21255198
H        2.14921662       0.65845032       1.06980452
H        0.99219607       1.35124185      -0.40252133
H        3.23082455       0.69771685      -0.87144281
15
Frame=9 idx=009926 GeodesicLength=0.9934740817911223 rxn_smarts="[N:1]([C@@:2]([C:3]([C:4]([O:5][H:15])([H:13])[H:14])([H:11])[H:12])([C:6]#[N:7])[H:10])([H:8])[H:9]>>[C:3](=[C:4]([O:5][H:15])[H:13])([H:11])[H:12].[N:1]([C:2](=[C:6]=[N:7][H:14])[H:10])([H:8])[H:9]"
N       -2.31987673      -0.78102523      -0.47791847
C       -1.45526740       0.00508382       0.33929153
C        0.69262803      -0.80391859       0.32253581
C        1.70155226       0.15745317       0.21588291
O        2.69292703      -0.05032686      -0.73276478
C       -1.10262441       1.27610131      -0.09156053
N       -0.26860543       2.06126107      -0.42187788
H       -2.82149650      -1.49001554       0.03709439
H       -3.00092800      -0.25642147      -1.00793931
H       -1.62576494      -0.03942805       1.41500713
H        0.33748464      -1.26957775      -0.59187730
H        0.74540374      -1.51894091       1.13461205
H        2.10473623       0.67512281       1.09029005
H        1.01848662       1.34643040      -0.46485661
H        3.30134487       0.68820185      -0.76591899
15
Frame=10 idx=009926 GeodesicLength=1.091915081934959 rxn_smarts="[N:1]([C@@:2]([C:3]([C:4]([O:5][H:15])([H:13])[H:14])([H:11])[H:12])([C:6]#[N:7])[H:10])([H:8])[H:9]>>[C:3](=[C:4]([O:5][H:15])[H:13])([H:11])[H:12].[N:1]([C:2](=[C:6]=[N:7][H:14])[H:10])([H:8])[H:9]"
N       -2.35491754      -0.76968705      -0.45843814
C       -1.45423895       0.01260439       0.32713705
C        0.69077951      -0.80980328       0.28602098
C        1.69816159       0.16026488       0.22174372
O        2.74048292      -0.04877579      -0.66922535
C       -1.11580048       1.27838615      -0.13754947
N       -0.28110355       2.05646058      -0.48177337
H       -2.77124375      -1.53052821       0.05887211
H       -3.10961433      -0.24945028      -0.88264871
H       -1.60392228      -0.00590639       1.40735696
H        0.33800359      -1.22929769      -0.65191580
H        0.75477228      -1.57317565       1.05208826
H        2.05819679       0.68913125       1.10855410
H        1.04751644       1.34128724      -0.52399082
H        3.36292777       0.67848984      -0.65623153
15
Frame=11 idx=009926 GeodesicLength=1.1896967953298696 rxn_smarts="[N:1]([C@@:2]([C:3]([C:4]([O:5][H:15])([H:13])[H:14])([H:11])[H:12])([C:6]#[N:7])[H:10])([H:8])[H:9]>>[C:3](=[C:4]([O:5][H:15])[H:13])([H:11])[H:12].[N:1]([C:2](=[C:6]=[N:7][H:14])[H:10])([H:8])[H:9]"
N       -2.38935557      -0.75741614      -0.43745114
C       -1.45242465       0.01946796       0.31514655
C        0.68930923      -0.81626742       0.25004729
C        1.69320813       0.16257810       0.22653119
O        2.78188541      -0.04725086      -0.60577072
C       -1.12955230       1.27967629      -0.18266675
N       -0.29444357       2.04993405      -0.54240644
H       -2.72354740      -1.56373283       0.07077002
H       -3.20267960      -0.24606644      -0.74997172
H       -1.58105241       0.02667548       1.39888878
H        0.33889022      -1.19034778      -0.70831498
H        0.76540808      -1.62314144       0.96909675
H        2.01095789       0.70247092       1.12316764
H        1.07832865       1.33523855      -0.58132308
H        3.41506792       0.66818156      -0.54574339
15
Frame=12 idx=009926 GeodesicLength=1.2876759998637484 rxn_smarts="[N:1]([C@@:2]([C:3]([C:4]([O:5][H:15])([H:13])[H:14])([H:11])[H:12])([C:6]#[N:7])[H:10])([H:8])[H:9]>>[C:3](=[C:4]([O:5][H:15])[H:13])([H:11])[H:12].[N:1]([C:2](=[C:6]=[N:7][H:14])[H:10])([H:8])[H:9]"
N       -2.42320983      -0.74416703      -0.41338404
C       -1.44986818       0.02727547       0.30278674
C        0.68741300      -0.82350650       0.21297484
C        1.68621711       0.16396960       0.23065582
O        2.81783077      -0.04577533      -0.54100523
C       -1.14409292       1.28042731      -0.23002605
N       -0.30799149       2.04230529      -0.60445502
H       -2.67578008      -1.59114559       0.07576352
H       -3.28188241      -0.24868049      -0.60865143
H       -1.55599163       0.06151189       1.38912813
H        0.33960468      -1.15152859      -0.76357473
H        0.77636124      -1.67061402       0.88268841
H        1.96158618       0.71389576       1.13552951
H        1.11161152       1.32873734      -0.63615077
H        3.45819204       0.65729490      -0.43227970
15
Frame=13 idx=009926 GeodesicLength=1.3856222048988893 rxn_smarts="[N:1]([C@@:2]([C:3]([C:4]([O:5][H:15])([H:13])[H:14])([H:11])[H:12])([C:6]#[N:7])[H:10])([H:8])[H:9]>>[C:3](=[C:4]([O:5][H:15])[H:13])([H:11])[H:12].[N:1]([C:2](=[C:6]=[N:7][H:14])[H:10])([H:8])[H:9]"
N       -2.45642915      -0.73013366      -0.38655482
C       -1.44647885       0.03458870       0.29064896
C        0.68587090      -0.83136526       0.17563397
C        1.67767020       0.16491690       0.23387458
O        2.84848962      -0.04407995      -0.47571836
C       -1.15942093       1.28002931      -0.27691466
N       -0.32267843       2.03269139      -0.66776737
H       -2.63283260      -1.61192729       0.07397256
H       -3.34494670      -0.25464488      -0.46266728
H       -1.52893904       0.09603213       1.37855501
H        0.34064022      -1.11374498      -0.81650041
H        0.78879600      -1.71456893       0.79492403
H        1.91082348       0.72467954       1.14491715
H        1.14691781       1.32156784      -0.68913623
H        3.49251746       0.64595913      -0.31726713
15
Frame=14 idx=009926 GeodesicLength=1.4840184658289828 rxn_smarts="[N:1]([C@@:2]([C:3]([C:4]([O:5][H:15])([H:13])[H:14])([H:11])[H:12])([C:6]#[N:7])[H:10])([H:8])[H:9]>>[C:3](=[C:4]([O:5][H:15])[H:13])([H:11])[H:12].[N:1]([C:2](=[C:6]=[N:7][H:14])[H:10])([H:8])[H:9]"
N       -2.48863469      -0.71522409      -0.35624022
C       -1.44226380       0.04224212       0.27857285
C        0.68428247      -0.83990068       0.13736970
C        1.66728602       0.16518915       0.23638821
O        2.87400148      -0.04237283      -0.40921859
C       -1.17567735       1.27875400      -0.32450215
N       -0.33827196       2.02134546      -0.73254843
H       -2.59336077      -1.62689767       0.06686592
H       -3.39250866      -0.26493539      -0.31203147
H       -1.49939755       0.13176285       1.36688414
H        0.34170281      -1.07651283      -0.86809264
H        0.80240158      -1.75563181       0.70462713
H        1.85800273       0.73425634       1.15188773
H        1.18458025       1.31386640      -0.73993113
H        3.51785745       0.63405897      -0.20003105
15
Frame=15 idx=009926 GeodesicLength=1.582639779926095 rxn_smarts="[N:1]([C@@:2]([C:3]([C:4]([O:5][H:15])([H:13])[H:14])([H:11])[H:12])([C:6]#[N:7])[H:10])([H:8])[H:9]>>[C:3](=[C:4]([O:5][H:15])[H:13])([H:11])[H:12].[N:1]([C:2](=[C:6]=[N:7][H:14])[H:10])([H:8])[H:9]"
N       -2.51966182      -0.69993454      -0.32226279
C       -1.43705120       0.04909647       0.26680991
C        0.68333140      -0.84900075       0.09820519
C        1.65544339       0.16515264       0.23798784
O        2.89461934      -0.04008686      -0.34199365
C       -1.19286310       1.27595363      -0.37137096
N       -0.35546026       2.00759727      -0.79856829
H       -2.56135311      -1.63583333       0.05704016
H       -3.42373314      -0.27721535      -0.16090484
H       -1.46720577       0.16702236       1.35425835
H        0.34328253      -1.04002613      -0.91827516
H        0.81809445      -1.79340272       0.61235364
H        1.80347416       0.74323089       1.15609511
H        1.22448011       1.30580665      -0.78862569
H        3.53460301       0.62163978      -0.08074880
15
Frame=16 idx=009926 GeodesicLength=1.6820041447704561 rxn_smarts="[N:1]([C@@:2]([C:3]([C:4]([O:5][H:15])([H:13])[H:14])([H:11])[H:12])([C:6]#[N:7])[H:10])([H:8])[H:9]>>[C:3](=[C:4]([O:5][H:15])[H:13])([H:11])[H:12].[N:1]([C:2](=[C:6]=[N:7][H:14])[H:10])([H:8])[H:9]"
N       -2.54892582      -0.68369844      -0.28454195
C       -1.43095169       0.05619304       0.25531422
C        0.68247009      -0.85863010       0.05817476
C        1.64186654       0.16448255       0.23894176
O        2.91016492      -0.03803815      -0.27338640
C       -1.21102610       1.27218866      -0.41821241
N       -0.37384436       1.99190448      -0.86557532
H       -2.53392939      -1.63971280       0.04368931
H       -3.43959101      -0.29276953      -0.00832481
H       -1.43249921       0.20327005       1.34040775
H        0.34493194      -1.00417949      -0.96716084
H        0.83544548      -1.82799032       0.51799925
H        1.74695235       0.75117560       1.15786214
H        1.26693335       1.29713182      -0.83499142
H        3.54200290       0.60867264       0.03980395
