13
Frame=0 idx=009888 GeodesicLength=0.0 rxn_smarts="[C:1]([C@@:2]([O:3][C:4](=[O:5])[H:12])([C:6]#[C:7][H:13])[H:11])([H:8])([H:9])[H:10]>>[C:1]([C:2]1([H:11])[C:6]([H:12])=[C:7]1[H:13])([H:8])([H:9])[H:10].[O:3]=[C:4]=[O:5]"
C       -1.36425578      -0.95745865      -0.00017129
C       -0.35013788      -0.05106071       0.59728196
O        1.31795671      -1.18130428       0.36685458
C        2.10397197      -0.53903407      -0.30679279
O        3.16894894      -0.53710408      -0.82830828
C        0.23905912       1.04664338      -0.11459412
C       -0.48317490       2.06233270      -0.13706577
H       -1.27568834      -0.99499684      -1.08481658
H       -2.36985250      -0.62611300       0.26591299
H       -1.22949584      -1.95796637       0.41403206
H       -0.29728927      -0.01256203       1.68056248
H        1.40578280       0.70474004      -0.53820892
H       -0.86582500       3.04388394      -0.31468634
13
Frame=1 idx=009888 GeodesicLength=0.10048728619993155 rxn_smarts="[C:1]([C@@:2]([O:3][C:4](=[O:5])[H:12])([C:6]#[C:7][H:13])[H:11])([H:8])([H:9])[H:10]>>[C:1]([C:2]1([H:11])[C:6]([H:12])=[C:7]1[H:13])([H:8])([H:9])[H:10].[O:3]=[C:4]=[O:5]"
C       -1.34261941      -0.95484684      -0.01470969
C       -0.35359101      -0.02951019       0.60030797
O        1.34357090      -1.13789220       0.46072057
C        2.10811842      -0.55472345      -0.28857475
O        3.11252454      -0.63766858      -0.91175420
C        0.23612893       1.06765497      -0.11692461
C       -0.50920051       2.06571719      -0.12864621
H       -1.23672315      -0.99017008      -1.09799488
H       -2.35815214      -0.64310880       0.23669898
H       -1.19579467      -1.95534874       0.39517447
H       -0.33153152       0.01146624       1.68472550
H        1.42660661       0.70847387      -0.54575203
H       -0.89933699       3.04995662      -0.27327111
13
Frame=2 idx=009888 GeodesicLength=0.20168115172139822 rxn_smarts="[C:1]([C@@:2]([O:3][C:4](=[O:5])[H:12])([C:6]#[C:7][H:13])[H:11])([H:8])([H:9])[H:10]>>[C:1]([C:2]1([H:11])[C:6]([H:12])=[C:7]1[H:13])([H:8])([H:9])[H:10].[O:3]=[C:4]=[O:5]"
C       -1.31997194      -0.95122426      -0.02895419
C       -0.35475245      -0.00849799       0.60195429
O        1.36836514      -1.09159981       0.54331885
C        2.11427899      -0.56882156      -0.26831493
O        3.04479481      -0.74195409      -0.97997530
C        0.23338618       1.08969487      -0.12017259
C       -0.53438161       2.06974702      -0.11762920
H       -1.20120909      -0.98115504      -1.11122490
H       -2.34406371      -0.66027369       0.21231691
H       -1.15879001      -1.95234610       0.37383158
H       -0.35942611       0.03138117       1.68682451
H        1.44818120       0.71208671      -0.55590610
H       -0.93641139       3.05296277      -0.23606894
13
Frame=3 idx=009888 GeodesicLength=0.3031721153128073 rxn_smarts="[C:1]([C@@:2]([O:3][C:4](=[O:5])[H:12])([C:6]#[C:7][H:13])[H:11])([H:8])([H:9])[H:10]>>[C:1]([C:2]1([H:11])[C:6]([H:12])=[C:7]1[H:13])([H:8])([H:9])[H:10].[O:3]=[C:4]=[O:5]"
C       -1.29728318      -0.94783783      -0.04264208
C       -0.35468970       0.01244423       0.60046275
O        1.39215045      -1.04194432       0.61595197
C        2.12083805      -0.58208725      -0.24923866
O        2.97288708      -0.84580784      -1.02709006
C        0.22944718       1.11166889      -0.12855393
C       -0.56012666       2.07306889      -0.11031999
H       -1.17013249      -0.97181401      -1.12418966
H       -2.32870478      -0.67867326       0.19222557
H       -1.11923221      -1.94904286       0.35246429
H       -0.38216635       0.05047996       1.68517761
H        1.46807021       0.71299360      -0.57446903
H       -0.97105758       3.05655179      -0.18977880
13
Frame=4 idx=009888 GeodesicLength=0.40562563528568074 rxn_smarts="[C:1]([C@@:2]([O:3][C:4](=[O:5])[H:12])([C:6]#[C:7][H:13])[H:11])([H:8])([H:9])[H:10]>>[C:1]([C:2]1([H:11])[C:6]([H:12])=[C:7]1[H:13])([H:8])([H:9])[H:10].[O:3]=[C:4]=[O:5]"
C       -1.27481038      -0.94231141      -0.05587498
C       -0.35222954       0.03191706       0.59969809
O        1.41555463      -0.99349033       0.67808610
C        2.12765572      -0.59665573      -0.23259203
O        2.89621209      -0.94644271      -1.06093743
C        0.22657382       1.13442300      -0.13398635
C       -0.58321360       2.07727302      -0.09484466
H       -1.14343564      -0.95628088      -1.13721566
H       -2.31209559      -0.69498570       0.17693392
H       -1.07928787      -1.94468302       0.32764713
H       -0.39843351       0.06315782       1.68415892
H        1.48931735       0.71348348      -0.59277468
H       -1.01180749       3.05459539      -0.15829837
13
Frame=5 idx=009888 GeodesicLength=0.5084729024822666 rxn_smarts="[C:1]([C@@:2]([O:3][C:4](=[O:5])[H:12])([C:6]#[C:7][H:13])[H:11])([H:8])([H:9])[H:10]>>[C:1]([C:2]1([H:11])[C:6]([H:12])=[C:7]1[H:13])([H:8])([H:9])[H:10].[O:3]=[C:4]=[O:5]"
C       -1.25329463      -0.93686341      -0.06868379
C       -0.34909487       0.05092971       0.59662413
O        1.43818875      -0.94391272       0.73203926
C        2.13449629      -0.61141680      -0.21747507
O        2.82033600      -1.04293676      -1.07843718
C        0.22234186       1.15671437      -0.14336049
C       -0.60666847       2.08057337      -0.08190251
H       -1.12147347      -0.94062104      -1.15017273
H       -2.29532270      -0.71163841       0.16514256
H       -1.03887162      -1.93984309       0.30275451
H       -0.41063221       0.07474292       1.68067478
H        1.50969389       0.71145126      -0.61658733
H       -1.04969881       3.05282060      -0.12061614
13
Frame=6 idx=009888 GeodesicLength=0.611824116715104 rxn_smarts="[C:1]([C@@:2]([O:3][C:4](=[O:5])[H:12])([C:6]#[C:7][H:13])[H:11])([H:8])([H:9])[H:10]>>[C:1]([C:2]1([H:11])[C:6]([H:12])=[C:7]1[H:13])([H:8])([H:9])[H:10].[O:3]=[C:4]=[O:5]"
C       -1.23276146      -0.93032517      -0.08109559
C       -0.34461371       0.06884253       0.59327725
O        1.46047630      -0.89565537       0.77813012
C        2.14158375      -0.62724710      -0.20382859
O        2.74428026      -1.13415644      -1.08497054
C        0.21802740       1.17900011      -0.15241766
C       -0.62873787       2.08363466      -0.06568625
H       -1.10365076      -0.92231107      -1.16301224
H       -2.27833319      -0.72675988       0.15654270
H       -0.99937811      -1.93405534       0.27643743
H       -0.41822642       0.08270710       1.67692745
H        1.53082936       0.70805960      -0.64154797
H       -1.08949555       3.04826637      -0.08875611
13
Frame=7 idx=009888 GeodesicLength=0.7152104114053788 rxn_smarts="[C:1]([C@@:2]([O:3][C:4](=[O:5])[H:12])([C:6]#[C:7][H:13])[H:11])([H:8])([H:9])[H:10]>>[C:1]([C:2]1([H:11])[C:6]([H:12])=[C:7]1[H:13])([H:8])([H:9])[H:10].[O:3]=[C:4]=[O:5]"
C       -1.21367969      -0.92366421      -0.09322399
C       -0.33973210       0.08611653       0.58833737
O        1.48210884      -0.84741672       0.81760475
C        2.14890612      -0.64337896      -0.19096966
O        2.67185363      -1.22002399      -1.07948922
C        0.21242441       1.20076039      -0.16406894
C       -0.65070697       2.08588030      -0.05053257
H       -1.09019102      -0.90390528      -1.17576542
H       -2.26173981      -0.74148198       0.15051886
H       -0.96091925      -1.92765401       0.24993018
H       -0.42264766       0.08938770       1.67158841
H        1.55127563       0.70197886      -0.67072805
H       -1.12695213       3.04340137      -0.05320172
13
Frame=8 idx=009888 GeodesicLength=0.8188774476313848 rxn_smarts="[C:1]([C@@:2]([O:3][C:4](=[O:5])[H:12])([C:6]#[C:7][H:13])[H:11])([H:8])([H:9])[H:10]>>[C:1]([C:2]1([H:11])[C:6]([H:12])=[C:7]1[H:13])([H:8])([H:9])[H:10].[O:3]=[C:4]=[O:5]"
C       -1.19575156      -0.91641447      -0.10515330
C       -0.33408797       0.10265529       0.58269782
O        1.50351833      -0.80002106       0.85128428
C        2.15649689      -0.66031689      -0.17873059
O        2.60114792      -1.30067244      -1.06562503
C        0.20615603       1.22232351      -0.17648360
C       -0.67184653       2.08761009      -0.03434089
H       -1.07995149      -0.88475816      -1.18838796
H       -2.24534807      -0.75487947       0.14625988
H       -0.92410662      -1.92040570       0.22307226
H       -0.42387400       0.09410847       1.66558046
H        1.57231191       0.69403202      -0.70148983
H       -1.16466483       3.03673882      -0.01868350
13
Frame=9 idx=009888 GeodesicLength=0.9229340676441047 rxn_smarts="[C:1]([C@@:2]([O:3][C:4](=[O:5])[H:12])([C:6]#[C:7][H:13])[H:11])([H:8])([H:9])[H:10]>>[C:1]([C:2]1([H:11])[C:6]([H:12])=[C:7]1[H:13])([H:8])([H:9])[H:10].[O:3]=[C:4]=[O:5]"
C       -1.17879237      -0.90921142      -0.11704873
C       -0.32805269       0.11863445       0.57582240
O        1.52474151      -0.75255087       0.88008352
C        2.16437372      -0.67762539      -0.16659422
O        2.53143455      -1.37637450      -1.04429880
C        0.19856831       1.24355363      -0.19076516
C       -0.69301856       2.08847877      -0.01898415
H       -1.07193860      -0.86655999      -1.20093873
H       -2.22917733      -0.76745601       0.14269257
H       -0.88905063      -1.91265119       0.19687604
H       -0.42272775       0.09785361       1.65833681
H        1.59402761       0.68443449      -0.73381751
H       -1.20038777       3.02947442       0.01863596
13
Frame=10 idx=009888 GeodesicLength=1.0271737068714177 rxn_smarts="[C:1]([C@@:2]([O:3][C:4](=[O:5])[H:12])([C:6]#[C:7][H:13])[H:11])([H:8])([H:9])[H:10]>>[C:1]([C:2]1([H:11])[C:6]([H:12])=[C:7]1[H:13])([H:8])([H:9])[H:10].[O:3]=[C:4]=[O:5]"
C       -1.16300168      -0.90138441      -0.12882683
C       -0.32132964       0.13390062       0.56855019
O        1.54596094      -0.70611243       0.90412686
C        2.17254600      -0.69573819      -0.15466814
O        2.46385973      -1.44671711      -1.01692667
C        0.19025942       1.26469579      -0.20516131
C       -0.71322411       2.08889674      -0.00194284
H       -1.06631753      -0.84787678      -1.21330492
H       -2.21340007      -0.77831478       0.14009267
H       -0.85634856      -1.90416335       0.17061455
H       -0.41884719       0.09972395       1.65069792
H        1.61652991       0.67285920      -0.76731903
H       -1.23668721       3.02023075       0.05406754
13
Frame=11 idx=009888 GeodesicLength=1.131242168279111 rxn_smarts="[C:1]([C@@:2]([O:3][C:4](=[O:5])[H:12])([C:6]#[C:7][H:13])[H:11])([H:8])([H:9])[H:10]>>[C:1]([C:2]1([H:11])[C:6]([H:12])=[C:7]1[H:13])([H:8])([H:9])[H:10].[O:3]=[C:4]=[O:5]"
C       -1.14864193      -0.89363375      -0.14070058
C       -0.31467567       0.14871395       0.55995748
O        1.56679393      -0.65935348       0.92398780
C        2.18101889      -0.71388363      -0.14232048
O        2.40088031      -1.51215786      -0.98240927
C        0.18021664       1.28547336      -0.22145998
C       -0.73362163       2.08854105       0.01411006
H       -1.06336058      -0.83007750      -1.22570698
H       -2.19835949      -0.78852076       0.13819781
H       -0.82570385      -1.89535329       0.14464022
H       -0.41330993       0.10100997       1.64174066
H        1.63871833       0.65831567      -0.80389745
H       -1.26995500       3.01092626       0.09386070
13
Frame=12 idx=009888 GeodesicLength=1.235196511060586 rxn_smarts="[C:1]([C@@:2]([O:3][C:4](=[O:5])[H:12])([C:6]#[C:7][H:13])[H:11])([H:8])([H:9])[H:10]>>[C:1]([C:2]1([H:11])[C:6]([H:12])=[C:7]1[H:13])([H:8])([H:9])[H:10].[O:3]=[C:4]=[O:5]"
C       -1.13556227      -0.88560360      -0.15267131
C       -0.30782123       0.16304870       0.55054170
O        1.58750322      -0.61267307       0.93991803
C        2.18983533      -0.73226970      -0.12949920
O        2.34166013      -1.57295567      -0.94223183
C        0.16879651       1.30615055      -0.23855594
C       -0.75372560       2.08762370       0.03056090
H       -1.06259935      -0.81249888      -1.23808686
H       -2.18395821      -0.79751891       0.13680548
H       -0.79735772      -1.88610102       0.11872617
H       -0.40590162       0.10125303       1.63192807
H        1.66109978       0.64091392      -0.84264264
H       -1.30196897       3.00063095       0.13520742
13
Frame=13 idx=009888 GeodesicLength=1.3390987721771415 rxn_smarts="[C:1]([C@@:2]([O:3][C:4](=[O:5])[H:12])([C:6]#[C:7][H:13])[H:11])([H:8])([H:9])[H:10]>>[C:1]([C:2]1([H:11])[C:6]([H:12])=[C:7]1[H:13])([H:8])([H:9])[H:10].[O:3]=[C:4]=[O:5]"
C       -1.12362662      -0.87724262      -0.16478337
C       -0.30069043       0.17694746       0.54040479
O        1.60823870      -0.56604725       0.95217468
C        2.19901593      -0.75091851      -0.11603619
O        2.28549223      -1.62928946      -0.89727318
C        0.15599898       1.32686763      -0.25612731
C       -0.77351485       2.08617305       0.04770020
H       -1.06354677      -0.79515369      -1.25045646
H       -2.17015604      -0.80511873       0.13558872
H       -0.77141834      -1.87645056       0.09299323
H       -0.39663386       0.10044096       1.62132465
H        1.68402930       0.62068326      -0.88308229
H       -1.33318821       2.98910843       0.17757253
13
Frame=14 idx=009888 GeodesicLength=1.4428338173943758 rxn_smarts="[C:1]([C@@:2]([O:3][C:4](=[O:5])[H:12])([C:6]#[C:7][H:13])[H:11])([H:8])([H:9])[H:10]>>[C:1]([C:2]1([H:11])[C:6]([H:12])=[C:7]1[H:13])([H:8])([H:9])[H:10].[O:3]=[C:4]=[O:5]"
C       -1.11287167      -0.86841447      -0.17709796
C       -0.29328315       0.19047351       0.52960952
O        1.62903457      -0.51945588       0.96093932
C        2.20861369      -0.76978911      -0.10169402
O        2.23279255      -1.68144794      -0.84777586
C        0.14182659       1.34775950      -0.27387649
C       -0.79287082       2.08428147       0.06586557
H       -1.06639610      -0.77759224      -1.26285149
H       -2.15697482      -0.81135720       0.13469089
H       -0.74776454      -1.86636543       0.06700436
H       -0.38555219       0.09856032       1.60995035
H        1.70746654       0.59714077      -0.92532787
H       -1.36402065       2.97620671       0.22056368
13
Frame=15 idx=009888 GeodesicLength=1.5463704452221996 rxn_smarts="[C:1]([C@@:2]([O:3][C:4](=[O:5])[H:12])([C:6]#[C:7][H:13])[H:11])([H:8])([H:9])[H:10]>>[C:1]([C:2]1([H:11])[C:6]([H:12])=[C:7]1[H:13])([H:8])([H:9])[H:10].[O:3]=[C:4]=[O:5]"
C       -1.10326071      -0.85915470      -0.18972504
C       -0.28568551       0.20371576       0.51803955
O        1.64988706      -0.47259011       0.96635720
C        2.21864041      -0.78873008      -0.08617437
O        2.18357099      -1.72968127      -0.79378568
C        0.12608637       1.36892468      -0.29182201
C       -0.81197245       2.08193259       0.08490389
H       -1.07115990      -0.75976241      -1.27535387
H       -2.14438378      -0.81645719       0.13406122
H       -0.72617889      -1.85588041       0.04053031
H       -0.37280375       0.09576025       1.59764423
H        1.73140930       0.56984138      -0.96946409
H       -1.39414914       2.96208150       0.26478865
13
Frame=16 idx=009888 GeodesicLength=1.6497535311891742 rxn_smarts="[C:1]([C@@:2]([O:3][C:4](=[O:5])[H:12])([C:6]#[C:7][H:13])[H:11])([H:8])([H:9])[H:10]>>[C:1]([C:2]1([H:11])[C:6]([H:12])=[C:7]1[H:13])([H:8])([H:9])[H:10].[O:3]=[C:4]=[O:5]"
C       -1.09470253      -0.84937149      -0.20276188
C       -0.27785396       0.21676548       0.50568021
O        1.67090298      -0.42526764       0.96847692
C        2.22909402      -0.80771239      -0.06924492
O        2.13748781      -1.77423216      -0.73539435
C        0.10872012       1.39054336      -0.30974481
C       -0.83080953       2.07916929       0.10504283
H       -1.07782549      -0.74138191      -1.28801683
H       -2.13227403      -0.82049231       0.13368543
H       -0.70645508      -1.84493308       0.01325154
H       -0.35834006       0.09204741       1.58433260
H        1.75597945       0.53829952      -1.01542871
H       -1.42392370       2.94656591       0.31012198
