15
Frame=0 idx=008847 GeodesicLength=0.0 rxn_smarts="[C:1]([C@@:2]1([C:3]([C:4]#[N:5])([H:11])[H:12])[C:6]([H:13])([H:14])[N:7]1[H:15])([H:8])([H:9])[H:10]>>[C:1]1([H:8])([H:9])[C:2]2([C:3]([H:11])([H:12])/[C:4]1=[N:5]\[H:10])[C:6]([H:13])([H:14])[N:7]2[H:15]"
C       -0.62968321       1.07768817       0.00180969
C       -0.20852086      -0.36300046      -0.15820398
C        1.29041527      -0.23100699      -0.38841533
C        1.37855768       1.15188869       0.16180615
N        1.90960390       2.12541611       0.63821840
C       -0.81902366      -1.48684448       0.57390335
N       -0.94592980      -1.38295337      -0.88262775
H       -0.94251313       1.53463964      -0.93994294
H       -1.36231202       1.27244509       0.78737408
H        0.60733368       2.08657857       0.55347729
H        1.53818445      -0.22652415      -1.45248543
H        1.94208376      -0.93363114       0.13283986
H       -1.68801387      -1.27558596       1.18790335
H       -0.20610796      -2.31255615       0.91846759
H       -1.86407416      -1.03655361      -1.13412433
15
Frame=1 idx=008847 GeodesicLength=0.10865164575233209 rxn_smarts="[C:1]([C@@:2]1([C:3]([C:4]#[N:5])([H:11])[H:12])[C:6]([H:13])([H:14])[N:7]1[H:15])([H:8])([H:9])[H:10]>>[C:1]1([H:8])([H:9])[C:2]2([C:3]([H:11])([H:12])/[C:4]1=[N:5]\[H:10])[C:6]([H:13])([H:14])[N:7]2[H:15]"
C       -0.62704519       1.07958329      -0.00827461
C       -0.20875129      -0.36267451      -0.16229743
C        1.28927405      -0.23235952      -0.40137121
C        1.38433448       1.14570519       0.15839133
N        1.90902812       2.11314885       0.65368454
C       -0.81071700      -1.48277255       0.58264072
N       -0.95006487      -1.38819797      -0.87338638
H       -0.90571857       1.55562762      -0.95131570
H       -1.39416251       1.27886299       0.74199761
H        0.58217469       2.07818099       0.60352427
H        1.53110047      -0.22178175      -1.46668850
H        1.94095400      -0.94136597       0.11072903
H       -1.67450118      -1.27072874       1.20357864
H       -0.19472964      -2.30602132       0.92754234
H       -1.87117556      -1.04520660      -1.11875466
15
Frame=2 idx=008847 GeodesicLength=0.21695815679950833 rxn_smarts="[C:1]([C@@:2]1([C:3]([C:4]#[N:5])([H:11])[H:12])[C:6]([H:13])([H:14])[N:7]1[H:15])([H:8])([H:9])[H:10]>>[C:1]1([H:8])([H:9])[C:2]2([C:3]([H:11])([H:12])/[C:4]1=[N:5]\[H:10])[C:6]([H:13])([H:14])[N:7]2[H:15]"
C       -0.62427525       1.08155450      -0.01803690
C       -0.20893693      -0.36227585      -0.16648668
C        1.28814577      -0.23374752      -0.41440440
C        1.39042128       1.13941138       0.15472189
N        1.90729644       2.10060370       0.67014960
C       -0.80233939      -1.47840524       0.59134335
N       -0.95414388      -1.39329800      -0.86402565
H       -0.86904022       1.57665628      -0.96073009
H       -1.42447668       1.28502760       0.69525136
H        0.55588525       2.06872249       0.65191041
H        1.52401612      -0.21708900      -1.48090318
H        1.93966710      -0.94909780       0.08857622
H       -1.66075585      -1.26524484       1.21921585
H       -0.18332021      -2.29918409       0.93662326
H       -1.87814356      -1.05363361      -1.10320505
15
Frame=3 idx=008847 GeodesicLength=0.3251140159956365 rxn_smarts="[C:1]([C@@:2]1([C:3]([C:4]#[N:5])([H:11])[H:12])[C:6]([H:13])([H:14])[N:7]1[H:15])([H:8])([H:9])[H:10]>>[C:1]1([H:8])([H:9])[C:2]2([C:3]([H:11])([H:12])/[C:4]1=[N:5]\[H:10])[C:6]([H:13])([H:14])[N:7]2[H:15]"
C       -0.62135744       1.08359930      -0.02750933
C       -0.20906505      -0.36181183      -0.17077052
C        1.28702893      -0.23518458      -0.42755511
C        1.39687341       1.13297393       0.15079161
N        1.90441541       2.08750401       0.68773741
C       -0.79386650      -1.47373570       0.60002993
N       -0.95815956      -1.39826908      -0.85451898
H       -0.83251571       1.59769713      -0.96823758
H       -1.45311969       1.29096244       0.64717920
H        0.52822846       2.05858371       0.69861872
H        1.51689993      -0.21243600      -1.49517277
H        1.93821581      -0.95687480       0.06629083
H       -1.64675448      -1.25912187       1.23482460
H       -0.17184979      -2.29203183       0.94573417
H       -1.88497373      -1.06185482      -1.08744218
15
Frame=4 idx=008847 GeodesicLength=0.4332466242030749 rxn_smarts="[C:1]([C@@:2]1([C:3]([C:4]#[N:5])([H:11])[H:12])[C:6]([H:13])([H:14])[N:7]1[H:15])([H:8])([H:9])[H:10]>>[C:1]1([H:8])([H:9])[C:2]2([C:3]([H:11])([H:12])/[C:4]1=[N:5]\[H:10])[C:6]([H:13])([H:14])[N:7]2[H:15]"
C       -0.61828047       1.08571581      -0.03672204
C       -0.20912621      -0.36128913      -0.17514506
C        1.28592052      -0.23668092      -0.44086270
C        1.40373366       1.12636284       0.14658589
N        1.90042217       2.07363057       0.70653192
C       -0.78527574      -1.46876065       0.60871960
N       -0.96210884      -1.40312188      -0.84484024
H       -0.79616945       1.61872783      -0.97388408
H       -1.47996737       1.29669504       0.59779420
H        0.49896099       2.04806936       0.74369156
H        1.50971913      -0.20781741      -1.50954301
H        1.93660003      -0.96473748       0.04379062
H       -1.63247340      -1.25235382       1.25042064
H       -0.16028743      -2.28455603       0.95489291
H       -1.89166761      -1.06988413      -1.07143018
15
Frame=5 idx=008847 GeodesicLength=0.5412744193001562 rxn_smarts="[C:1]([C@@:2]1([C:3]([C:4]#[N:5])([H:11])[H:12])[C:6]([H:13])([H:14])[N:7]1[H:15])([H:8])([H:9])[H:10]>>[C:1]1([H:8])([H:9])[C:2]2([C:3]([H:11])([H:12])/[C:4]1=[N:5]\[H:10])[C:6]([H:13])([H:14])[N:7]2[H:15]"
C       -0.61507195       1.08791682      -0.04568663
C       -0.20913645      -0.36069957      -0.17957254
C        1.28480085      -0.23821592      -0.45429201
C        1.41100984       1.11956704       0.14218691
N        1.89547433       2.05888570       0.72616678
C       -0.77657232      -1.46349644       0.61741187
N       -0.96597818      -1.40783907      -0.83498719
H       -0.75989510       1.63978203      -0.97775650
H       -1.50500550       1.30210216       0.54722401
H        0.46791557       2.03736028       0.78730653
H        1.50245486      -0.20318840      -1.52397810
H        1.93478796      -0.97268787       0.02108404
H       -1.61793942      -1.24500059       1.26597609
H       -0.14863099      -2.27677047       0.96409159
H       -1.89821349      -1.07771571      -1.05517484
15
Frame=6 idx=008847 GeodesicLength=0.6494399572229481 rxn_smarts="[C:1]([C@@:2]1([C:3]([C:4]#[N:5])([H:11])[H:12])[C:6]([H:13])([H:14])[N:7]1[H:15])([H:8])([H:9])[H:10]>>[C:1]1([H:8])([H:9])[C:2]2([C:3]([H:11])([H:12])/[C:4]1=[N:5]\[H:10])[C:6]([H:13])([H:14])[N:7]2[H:15]"
C       -0.61165520       1.09020434      -0.05442669
C       -0.20905769      -0.36004978      -0.18406493
C        1.28369362      -0.23983444      -0.46793029
C        1.41881841       1.11253114       0.13750086
N        1.88939708       2.04304587       0.74687941
C       -0.76770822      -1.45791519       0.62613595
N       -0.96978177      -1.41241865      -0.82491753
H       -0.72375090       1.66080363      -0.97986158
H       -1.52806164       1.30730025       0.49538571
H        0.43476432       2.02670913       0.82954844
H        1.49507642      -0.19859352      -1.53857624
H        1.93280448      -0.98079969      -0.00195939
H       -1.60307996      -1.23700155       1.28154259
H       -0.13683108      -2.26865247       0.97334349
H       -1.90462787      -1.08532907      -1.03859980
15
Frame=7 idx=008847 GeodesicLength=0.7578477581358807 rxn_smarts="[C:1]([C@@:2]1([C:3]([C:4]#[N:5])([H:11])[H:12])[C:6]([H:13])([H:14])[N:7]1[H:15])([H:8])([H:9])[H:10]>>[C:1]1([H:8])([H:9])[C:2]2([C:3]([H:11])([H:12])/[C:4]1=[N:5]\[H:10])[C:6]([H:13])([H:14])[N:7]2[H:15]"
C       -0.60797344       1.09259244      -0.06294072
C       -0.20886319      -0.35933297      -0.18860786
C        1.28260981      -0.24156003      -0.48181328
C        1.42726599       1.10520934       0.13250471
N        1.88205735       2.02592059       0.76858911
C       -0.75864635      -1.45200220       0.63490634
N       -0.97352022      -1.41683386      -0.81459973
H       -0.68769993       1.68177266      -0.98022525
H       -1.54903922       1.31231295       0.44226189
H        0.39920970       2.01629918       0.87057870
H        1.48756221      -0.19404228      -1.55337458
H        1.93063879      -0.98912593      -0.02541772
H       -1.58784256      -1.22833809       1.29714154
H       -0.12485070      -2.26019493       0.98264505
H       -1.91090825      -1.09267686      -1.02164817
15
Frame=8 idx=008847 GeodesicLength=0.8665007427302636 rxn_smarts="[C:1]([C@@:2]1([C:3]([C:4]#[N:5])([H:11])[H:12])[C:6]([H:13])([H:14])[N:7]1[H:15])([H:8])([H:9])[H:10]>>[C:1]1([H:8])([H:9])[C:2]2([C:3]([H:11])([H:12])/[C:4]1=[N:5]\[H:10])[C:6]([H:13])([H:14])[N:7]2[H:15]"
C       -0.60398935       1.09509185      -0.07122808
C       -0.20853474      -0.35854577      -0.19318413
C        1.28154969      -0.24340891      -0.49596986
C        1.43642562       1.09755356       0.12719003
N        1.87339030       2.00738007       0.79122293
C       -0.74935447      -1.44575191       0.64373789
N       -0.97719632      -1.42105999      -0.80400689
H       -0.65170609       1.70267456      -0.97886442
H       -1.56782527       1.31716226       0.38783971
H        0.36097298       2.00628229       0.91051331
H        1.47988043      -0.18953178      -1.56840332
H        1.92828126      -0.99771229      -0.04935845
H       -1.57218073      -1.21901100       1.31279347
H       -0.11265564      -2.25140203       0.99198709
H       -1.91705768      -1.09972093      -1.00426928
15
Frame=9 idx=008847 GeodesicLength=0.975539247255103 rxn_smarts="[C:1]([C@@:2]1([C:3]([C:4]#[N:5])([H:11])[H:12])[C:6]([H:13])([H:14])[N:7]1[H:15])([H:8])([H:9])[H:10]>>[C:1]1([H:8])([H:9])[C:2]2([C:3]([H:11])([H:12])/[C:4]1=[N:5]\[H:10])[C:6]([H:13])([H:14])[N:7]2[H:15]"
C       -0.59967573       1.09775779      -0.07925342
C       -0.20806675      -0.35765486      -0.19774087
C        1.28050290      -0.24537166      -0.51040332
C        1.44641114       1.08952105       0.12159509
N        1.86339095       1.98727610       0.81448413
C       -0.73980675      -1.43915392       0.65265264
N       -0.98080253      -1.42504769      -0.79310259
H       -0.61553544       1.72356180      -0.97580253
H       -1.58445621       1.32170344       0.33211273
H        0.31970848       1.99672792       0.94949087
H        1.47199189      -0.18501225      -1.58365876
H        1.92568867      -1.00658277      -0.07384903
H       -1.55606668      -1.20904606       1.32852208
H       -0.10021903      -2.24227660       1.00136033
H       -1.92306492      -1.10640229      -0.98640734
15
Frame=10 idx=008847 GeodesicLength=1.084843674017633 rxn_smarts="[C:1]([C@@:2]1([C:3]([C:4]#[N:5])([H:11])[H:12])[C:6]([H:13])([H:14])[N:7]1[H:15])([H:8])([H:9])[H:10]>>[C:1]1([H:8])([H:9])[C:2]2([C:3]([H:11])([H:12])/[C:4]1=[N:5]\[H:10])[C:6]([H:13])([H:14])[N:7]2[H:15]"
C       -0.59495591       1.10056898      -0.08697327
C       -0.20741904      -0.35667561      -0.20227745
C        1.27949162      -0.24748319      -0.52516577
C        1.45732113       1.08102577       0.11573274
N        1.85184586       1.96543297       0.83847156
C       -0.72994990      -1.43220815       0.66166236
N       -0.98435890      -1.42877164      -0.78185638
H       -0.57930172       1.74434249      -0.97097168
H       -1.59866436       1.32612709       0.27499724
H        0.27507923       1.98784593       0.98745728
H        1.46387291      -0.18047478      -1.59919900
H        1.92287521      -1.01582053      -0.09900690
H       -1.53940304      -1.19841866       1.34437222
H       -0.08748541      -2.23283310       1.01073980
H       -1.92894768      -1.11265757      -0.96798274
15
Frame=11 idx=008847 GeodesicLength=1.1942912152694167 rxn_smarts="[C:1]([C@@:2]1([C:3]([C:4]#[N:5])([H:11])[H:12])[C:6]([H:13])([H:14])[N:7]1[H:15])([H:8])([H:9])[H:10]>>[C:1]1([H:8])([H:9])[C:2]2([C:3]([H:11])([H:12])/[C:4]1=[N:5]\[H:10])[C:6]([H:13])([H:14])[N:7]2[H:15]"
C       -0.58979248       1.10354055      -0.09434285
C       -0.20657376      -0.35559943      -0.20676306
C        1.27850947      -0.24975006      -0.54026946
C        1.46923483       1.07201042       0.10962649
N        1.83870061       1.94174368       0.86304572
C       -0.71974376      -1.42491796       0.67077643
N       -0.98786647      -1.43219244      -0.77023570
H       -0.54295830       1.76498369      -0.96435094
H       -1.61033812       1.33046097       0.21646904
H        0.22678727       1.97972638       1.02443821
H        1.45549012      -0.17588069      -1.61502494
H        1.91979672      -1.02545979      -0.12489730
H       -1.52213024      -1.18715030       1.36036306
H       -0.07441563      -2.22309375       1.02009519
H       -1.93470025      -1.11842125      -0.94892988
15
Frame=12 idx=008847 GeodesicLength=1.3039197491830166 rxn_smarts="[C:1]([C@@:2]1([C:3]([C:4]#[N:5])([H:11])[H:12])[C:6]([H:13])([H:14])[N:7]1[H:15])([H:8])([H:9])[H:10]>>[C:1]1([H:8])([H:9])[C:2]2([C:3]([H:11])([H:12])/[C:4]1=[N:5]\[H:10])[C:6]([H:13])([H:14])[N:7]2[H:15]"
C       -0.58414049       1.10668937      -0.10126507
C       -0.20551117      -0.35441497      -0.21115391
C        1.27756024      -0.25216647      -0.55571040
C        1.48227822       1.06238051       0.10339712
N        1.82379162       1.91600979       0.88795033
C       -0.70914345      -1.41729754       0.68000666
N       -0.99134083      -1.43525215      -0.75820926
H       -0.50639605       1.78546282      -0.95587469
H       -1.61924194       1.33473199       0.15652868
H        0.17437448       1.97251429       1.06031525
H        1.44682404      -0.17113493      -1.63111827
H        1.91640940      -1.03554780      -0.15161757
H       -1.50416931      -1.17527791       1.37653830
H       -0.06096216      -2.21309854       1.02937759
H       -1.94033261      -1.12359846      -0.92916474
15
Frame=13 idx=008847 GeodesicLength=1.413788210234564 rxn_smarts="[C:1]([C@@:2]1([C:3]([C:4]#[N:5])([H:11])[H:12])[C:6]([H:13])([H:14])[N:7]1[H:15])([H:8])([H:9])[H:10]>>[C:1]1([H:8])([H:9])[C:2]2([C:3]([H:11])([H:12])/[C:4]1=[N:5]\[H:10])[C:6]([H:13])([H:14])[N:7]2[H:15]"
C       -0.57799238       1.11005543      -0.10766324
C       -0.20423017      -0.35309648      -0.21539659
C        1.27661835      -0.25471799      -0.57148706
C        1.49652008       1.05204707       0.09711855
N        1.80727963       1.88823224       0.91298079
C       -0.69812394      -1.40935597       0.68936873
N       -0.99478709      -1.43790375      -0.74573948
H       -0.46944415       1.80579094      -0.94546502
H       -1.62532572       1.33884093       0.09514324
H        0.11742666       1.96620649       1.09497868
H        1.43781565      -0.16614652      -1.64745620
H        1.91265351      -1.04611191      -0.17925202
H       -1.48547580      -1.16284476       1.39293258
H       -0.04709674      -2.20287571       1.03855028
H       -1.94583790      -1.12811999      -0.90861322
15
Frame=14 idx=008847 GeodesicLength=1.523639125453773 rxn_smarts="[C:1]([C@@:2]1([C:3]([C:4]#[N:5])([H:11])[H:12])[C:6]([H:13])([H:14])[N:7]1[H:15])([H:8])([H:9])[H:10]>>[C:1]1([H:8])([H:9])[C:2]2([C:3]([H:11])([H:12])/[C:4]1=[N:5]\[H:10])[C:6]([H:13])([H:14])[N:7]2[H:15]"
C       -0.57132466       1.11360493      -0.11341026
C       -0.20271715      -0.35166401      -0.21945742
C        1.27569076      -0.25739023      -0.58757303
C        1.51200410       1.04092833       0.09093865
N        1.78906351       1.85830915       0.93790193
C       -0.68664778      -1.40114727       0.69885891
N       -0.99823928      -1.44010677      -0.73281661
H       -0.43220648       1.82585212      -0.93300555
H       -1.62821495       1.34299039       0.03231541
H        0.05561952       1.96093436       1.12818059
H        1.42846589      -0.16080712      -1.66399777
H        1.90849866      -1.05716757      -0.20785371
H       -1.46596903      -1.14992902       1.40958458
H       -0.03277919      -2.19251031       1.04753972
H       -1.95124391      -1.13189697      -0.88720542
15
Frame=15 idx=008847 GeodesicLength=1.6334261959698928 rxn_smarts="[C:1]([C@@:2]1([C:3]([C:4]#[N:5])([H:11])[H:12])[C:6]([H:13])([H:14])[N:7]1[H:15])([H:8])([H:9])[H:10]>>[C:1]1([H:8])([H:9])[C:2]2([C:3]([H:11])([H:12])/[C:4]1=[N:5]\[H:10])[C:6]([H:13])([H:14])[N:7]2[H:15]"
C       -0.56414871       1.11734151      -0.11840551
C       -0.20097470      -0.35011245      -0.22328654
C        1.27475277      -0.26015457      -0.60394021
C        1.52873934       1.02894947       0.08496294
N        1.76933492       1.82627189       0.96248284
C       -0.67469212      -1.39271208       0.70848130
N       -1.00171733      -1.44182213      -0.71941510
H       -0.39464593       1.84560025      -0.91839876
H       -1.62773068       1.34720616      -0.03195889
H       -0.01139981       1.95668778       1.15969859
H        1.41873647      -0.15500764      -1.68068854
H        1.90388472      -1.06871380      -0.23747645
H       -1.44559708      -1.13661000       1.42652833
H       -0.01798375      -2.18206717       1.05628741
H       -1.95655811      -1.13485721      -0.86487141
15
Frame=16 idx=008847 GeodesicLength=1.7431590448114722 rxn_smarts="[C:1]([C@@:2]1([C:3]([C:4]#[N:5])([H:11])[H:12])[C:6]([H:13])([H:14])[N:7]1[H:15])([H:8])([H:9])[H:10]>>[C:1]1([H:8])([H:9])[C:2]2([C:3]([H:11])([H:12])/[C:4]1=[N:5]\[H:10])[C:6]([H:13])([H:14])[N:7]2[H:15]"
C       -0.55649292       1.12127147      -0.12252999
C       -0.19901372      -0.34843407      -0.22683063
C        1.27378177      -0.26296477      -0.62055393
C        1.54672146       1.01604245       0.07932225
N        1.74832198       1.79212051       0.98648159
C       -0.66223851      -1.38409677       0.71824656
N       -1.00525969      -1.44300617      -0.70551033
H       -0.35673517       1.86498198      -0.90151588
H       -1.62359920       1.35151123      -0.09764894
H       -0.08404631       1.95342307       1.18916151
H        1.40859823      -0.14860899      -1.69746637
H        1.89875656      -1.08072333      -0.26817308
H       -1.42430753      -1.12297854       1.44382174
H       -0.00268129      -2.17161798       1.06472849
H       -1.96180565      -1.13692006      -0.84153300
