11
Frame=0 idx=002653 GeodesicLength=0.0 rxn_smarts="[C:1]([n:2]1[c:3]([H:10])[n:4][n:5][c:6]1[H:11])([H:7])([H:8])[H:9]>>[C:1]([C@:6]1([H:11])[N:2]=[C:3]([H:10])[N:4]=[N:5]1)([H:7])([H:8])[H:9]"
C       -1.19510561      -0.41486645      -0.23525339
N        0.02692820       0.61084981       0.80518005
C        0.80710043       1.28807408      -0.05836565
N        1.68885356       0.51557908      -0.68468194
N        1.50572073      -0.73390668      -0.27393402
C        0.49270440      -0.68907719       0.59798338
H       -0.85960698      -0.29546560      -1.25938932
H       -1.96331665       0.29013652       0.05174019
H       -1.50664156      -1.42932741      -0.00471552
H        0.72079848       2.35001181      -0.22634947
H        0.28256497      -1.49200800       1.28778568
11
Frame=1 idx=002653 GeodesicLength=0.05979372771290819 rxn_smarts="[C:1]([n:2]1[c:3]([H:10])[n:4][n:5][c:6]1[H:11])([H:7])([H:8])[H:9]>>[C:1]([C@:6]1([H:11])[N:2]=[C:3]([H:10])[N:4]=[N:5]1)([H:7])([H:8])[H:9]"
C       -1.20097433      -0.42042245      -0.23253831
N        0.02484374       0.60177844       0.79625515
C        0.80622316       1.29387106      -0.05063669
N        1.69996660       0.53278971      -0.67929864
N        1.52228969      -0.72001930      -0.28173812
C        0.49694463      -0.69365743       0.57995380
H       -0.87684919      -0.36056147      -1.26576117
H       -1.95968032       0.31441915       0.00271558
H       -1.54830921      -1.41106955       0.04636899
H        0.73052994       2.36099682      -0.18890618
H        0.30501530      -1.49812498       1.27358560
11
Frame=2 idx=002653 GeodesicLength=0.11862806380871188 rxn_smarts="[C:1]([n:2]1[c:3]([H:10])[n:4][n:5][c:6]1[H:11])([H:7])([H:8])[H:9]>>[C:1]([C@:6]1([H:11])[N:2]=[C:3]([H:10])[N:4]=[N:5]1)([H:7])([H:8])[H:9]"
C       -1.20664293      -0.42567369      -0.23026944
N        0.02293341       0.59258417       0.78743188
C        0.80595072       1.29984523      -0.04155075
N        1.71054549       0.55026599      -0.67389744
N        1.53830656      -0.70588247      -0.29011747
C        0.50122215      -0.69824021       0.56142129
H       -0.89542831      -0.42827927      -1.26945015
H       -1.95361873       0.33687110      -0.04862741
H       -1.58905199      -1.38815073       0.09797107
H        0.73891077       2.37100563      -0.15106074
H        0.32687287      -1.50434576       1.25814915
11
Frame=3 idx=002653 GeodesicLength=0.17625136144943343 rxn_smarts="[C:1]([n:2]1[c:3]([H:10])[n:4][n:5][c:6]1[H:11])([H:7])([H:8])[H:9]>>[C:1]([C@:6]1([H:11])[N:2]=[C:3]([H:10])[N:4]=[N:5]1)([H:7])([H:8])[H:9]"
C       -1.21183957      -0.42973369      -0.22814808
N        0.02184650       0.58272500       0.77978157
C        0.80739903       1.30570069      -0.02924221
N        1.72131438       0.56793069      -0.66735316
N        1.55379897      -0.69177883      -0.29913654
C        0.50566353      -0.70330028       0.54243906
H       -0.91506063      -0.49723580      -1.26963725
H       -1.94466489       0.35819041      -0.10191382
H       -1.62844049      -1.35977296       0.14916539
H        0.74207727       2.37910402      -0.11663979
H        0.34790590      -1.51182925       1.24068482
11
Frame=4 idx=002653 GeodesicLength=0.23304160424418713 rxn_smarts="[C:1]([n:2]1[c:3]([H:10])[n:4][n:5][c:6]1[H:11])([H:7])([H:8])[H:9]>>[C:1]([C@:6]1([H:11])[N:2]=[C:3]([H:10])[N:4]=[N:5]1)([H:7])([H:8])[H:9]"
C       -1.21677796      -0.43333918      -0.22642661
N        0.02106745       0.57264490       0.77256698
C        0.80979644       1.31155789      -0.01480567
N        1.73184781       0.58579922      -0.66030045
N        1.56865278      -0.67757125      -0.30887651
C        0.51018094      -0.70844506       0.52300453
H       -0.93641547      -0.56815102      -1.26625176
H       -1.93309333       0.37741305      -0.15720672
H       -1.66650099      -1.32645496       0.19971985
H        0.74291513       2.38634645      -0.08322318
H        0.36832721      -1.51980004       1.22179954
11
Frame=5 idx=002653 GeodesicLength=0.2888352611856993 rxn_smarts="[C:1]([n:2]1[c:3]([H:10])[n:4][n:5][c:6]1[H:11])([H:7])([H:8])[H:9]>>[C:1]([C@:6]1([H:11])[N:2]=[C:3]([H:10])[N:4]=[N:5]1)([H:7])([H:8])[H:9]"
C       -1.22120411      -0.43622477      -0.22508214
N        0.02095004       0.56200805       0.76623115
C        0.81370392       1.31712909       0.00263120
N        1.74291944       0.60382023      -0.65166171
N        1.58288948      -0.66341810      -0.31933475
C        0.51479265      -0.71392770       0.50308474
H       -0.95965388      -0.63951968      -1.25897791
H       -1.91843991       0.39461623      -0.21336968
H       -1.70306923      -1.28803372       0.24860186
H        0.73917414       2.39222258      -0.05336956
H        0.38793745      -1.52867222       1.20124680
11
Frame=6 idx=002653 GeodesicLength=0.34402925256194344 rxn_smarts="[C:1]([n:2]1[c:3]([H:10])[n:4][n:5][c:6]1[H:11])([H:7])([H:8])[H:9]>>[C:1]([C@:6]1([H:11])[N:2]=[C:3]([H:10])[N:4]=[N:5]1)([H:7])([H:8])[H:9]"
C       -1.22588726      -0.43982115      -0.22439464
N        0.02012058       0.55201418       0.75865024
C        0.81704580       1.32291928       0.01967883
N        1.75317908       0.62219321      -0.64354699
N        1.59596364      -0.64872727      -0.33094506
C        0.51914560      -0.71859880       0.48258304
H       -0.98552919      -0.71428747      -1.24728909
H       -1.90220259       0.40764844      -0.27236794
H       -1.73789937      -1.24556982       0.29661009
H        0.73883934       2.39860356      -0.01918828
H        0.40722436      -1.53637416       1.18020982
11
Frame=7 idx=002653 GeodesicLength=0.3984347179198028 rxn_smarts="[C:1]([n:2]1[c:3]([H:10])[n:4][n:5][c:6]1[H:11])([H:7])([H:8])[H:9]>>[C:1]([C@:6]1([H:11])[N:2]=[C:3]([H:10])[N:4]=[N:5]1)([H:7])([H:8])[H:9]"
C       -1.22992565      -0.44220961      -0.22377717
N        0.02050367       0.54097606       0.75279610
C        0.82256113       1.32805499       0.04119612
N        1.76500299       0.64075348      -0.63228852
N        1.60852349      -0.63422996      -0.34357232
C        0.52377720      -0.72400821       0.46145109
H       -1.01352701      -0.78775335      -1.23074304
H       -1.88237090       0.41912764      -0.33158693
H       -1.77112563      -1.19769790       0.34180943
H        0.73069931       2.40294055       0.00795689
H        0.42588141      -1.54595369       1.15675835
11
Frame=8 idx=002653 GeodesicLength=0.45232305971283493 rxn_smarts="[C:1]([n:2]1[c:3]([H:10])[n:4][n:5][c:6]1[H:11])([H:7])([H:8])[H:9]>>[C:1]([C@:6]1([H:11])[N:2]=[C:3]([H:10])[N:4]=[N:5]1)([H:7])([H:8])[H:9]"
C       -1.23360704      -0.44399968      -0.22327643
N        0.02163475       0.52923666       0.74789267
C        0.82936930       1.33261171       0.06594144
N        1.77841895       0.65961851      -0.61784594
N        1.62036912      -0.61960606      -0.35748323
C        0.52855037      -0.72973979       0.43950418
H       -1.04418368      -0.86028700      -1.20911399
H       -1.85936930       0.42815925      -0.39130890
H       -1.80267554      -1.14496744       0.38425229
H        0.71731790       2.40561404       0.03023992
H        0.44417518      -1.55664021       1.13119798
11
Frame=9 idx=002653 GeodesicLength=0.5059565722103506 rxn_smarts="[C:1]([n:2]1[c:3]([H:10])[n:4][n:5][c:6]1[H:11])([H:7])([H:8])[H:9]>>[C:1]([C@:6]1([H:11])[N:2]=[C:3]([H:10])[N:4]=[N:5]1)([H:7])([H:8])[H:9]"
C       -1.23763261      -0.44654636      -0.22312108
N        0.02228844       0.51785580       0.74192342
C        0.83552245       1.33707286       0.09059610
N        1.79233101       0.67896019      -0.60200332
N        1.63097629      -0.60421347      -0.37314085
C        0.53310404      -0.73478319       0.41656747
H       -1.07793734      -0.93445190      -1.18144577
H       -1.83430157       0.43239268      -0.45362098
H       -1.83271834      -1.08801707       0.42451395
H        0.70585830       2.40824060       0.05520144
H        0.46250933      -1.56651014       1.10452962
11
Frame=10 idx=002653 GeodesicLength=0.5592056578660012 rxn_smarts="[C:1]([n:2]1[c:3]([H:10])[n:4][n:5][c:6]1[H:11])([H:7])([H:8])[H:9]>>[C:1]([C@:6]1([H:11])[N:2]=[C:3]([H:10])[N:4]=[N:5]1)([H:7])([H:8])[H:9]"
C       -1.24225516      -0.45016059      -0.22332100
N        0.02220848       0.50717371       0.73426573
C        0.84047374       1.34145989       0.11386290
N        1.80709682       0.69853297      -0.58453358
N        1.64024939      -0.58803314      -0.39059058
C        0.53726641      -0.73892659       0.39256468
H       -1.11480270      -1.00941108      -1.14737983
H       -1.80805828       0.43067508      -0.51798036
H       -1.86103936      -1.02766744       0.46181154
H        0.69795642       2.41130847       0.08412463
H        0.48090424      -1.57495128       1.07717586
11
Frame=11 idx=002653 GeodesicLength=0.6123329335521679 rxn_smarts="[C:1]([n:2]1[c:3]([H:10])[n:4][n:5][c:6]1[H:11])([H:7])([H:8])[H:9]>>[C:1]([C@:6]1([H:11])[N:2]=[C:3]([H:10])[N:4]=[N:5]1)([H:7])([H:8])[H:9]"
C       -1.24694042      -0.45349163      -0.22303653
N        0.02293936       0.49568354       0.72733083
C        0.84596974       1.34504609       0.13947950
N        1.82550061       0.71819169      -0.56078202
N        1.64855001      -0.57122098      -0.41030006
C        0.54152063      -0.74332604       0.36704410
H       -1.15473792      -1.08085968      -1.10724709
H       -1.77907792       0.42525277      -0.58167679
H       -1.88783246      -0.96318231       0.49532636
H        0.68453218       2.41230563       0.10678163
H        0.49957621      -1.58439908       1.04708006
11
Frame=12 idx=002653 GeodesicLength=0.6653251520615827 rxn_smarts="[C:1]([n:2]1[c:3]([H:10])[n:4][n:5][c:6]1[H:11])([H:7])([H:8])[H:9]>>[C:1]([C@:6]1([H:11])[N:2]=[C:3]([H:10])[N:4]=[N:5]1)([H:7])([H:8])[H:9]"
C       -1.25242640      -0.45816141      -0.22278996
N        0.02281382       0.48490360       0.71847796
C        0.84984029       1.34854097       0.16314184
N        1.84427847       0.73771851      -0.53550186
N        1.65546015      -0.55301958      -0.43199458
C        0.54530656      -0.74669746       0.34016560
H       -1.19724832      -1.15237854      -1.05940390
H       -1.74876152       0.41239216      -0.64800611
H       -1.91347340      -0.89503388       0.52518431
H        0.67565717       2.41408072       0.13485047
H        0.51855320      -1.59234509       1.01587624
11
Frame=13 idx=002653 GeodesicLength=0.7183260041661674 rxn_smarts="[C:1]([n:2]1[c:3]([H:10])[n:4][n:5][c:6]1[H:11])([H:7])([H:8])[H:9]>>[C:1]([C@:6]1([H:11])[N:2]=[C:3]([H:10])[N:4]=[N:5]1)([H:7])([H:8])[H:9]"
C       -1.25831897      -0.46298265      -0.22188626
N        0.02310426       0.47367106       0.70966595
C        0.85333546       1.35134784       0.18753054
N        1.86624080       0.75659652      -0.50380953
N        1.66139196      -0.53343062      -0.45591419
C        0.54899558      -0.74992065       0.31145480
H       -1.24236329      -1.21957487      -1.00500174
H       -1.71680619       0.39394903      -0.71337983
H       -1.93753369      -0.82342775       0.55064454
H        0.66397093       2.41446563       0.15889395
H        0.53798315      -1.60069354       0.98180175
11
Frame=14 idx=002653 GeodesicLength=0.770994547402784 rxn_smarts="[C:1]([n:2]1[c:3]([H:10])[n:4][n:5][c:6]1[H:11])([H:7])([H:8])[H:9]>>[C:1]([C@:6]1([H:11])[N:2]=[C:3]([H:10])[N:4]=[N:5]1)([H:7])([H:8])[H:9]"
C       -1.26473007      -0.46806794      -0.22040617
N        0.02352540       0.46234549       0.70050480
C        0.85615148       1.35355020       0.21179670
N        1.89009584       0.77413777      -0.46699484
N        1.66668691      -0.51219416      -0.48114090
C        0.55243019      -0.75269156       0.28105964
H       -1.28912832      -1.28176738      -0.94451888
H       -1.68455894       0.36919544      -0.77710636
H       -1.95971087      -0.74957111       0.57112140
H        0.65163498       2.41397219       0.18047161
H        0.55760341      -1.60890894       0.94521299
11
Frame=15 idx=002653 GeodesicLength=0.8240071729196237 rxn_smarts="[C:1]([n:2]1[c:3]([H:10])[n:4][n:5][c:6]1[H:11])([H:7])([H:8])[H:9]>>[C:1]([C@:6]1([H:11])[N:2]=[C:3]([H:10])[N:4]=[N:5]1)([H:7])([H:8])[H:9]"
C       -1.27140726      -0.47339558      -0.21815564
N        0.02430179       0.45044896       0.69164155
C        0.85840103       1.35503382       0.23696095
N        1.91516505       0.79020373      -0.42476549
N        1.67132223      -0.48857531      -0.50788339
C        0.55577621      -0.75510297       0.24869222
H       -1.33773064      -1.33895366      -0.87731587
H       -1.65079199       0.33794191      -0.83955250
H       -1.98031738      -0.67216137       0.58647828
H        0.63752473       2.41214147       0.19876399
H        0.57775622      -1.61758099       0.90513590
11
Frame=16 idx=002653 GeodesicLength=0.8757823061911753 rxn_smarts="[C:1]([n:2]1[c:3]([H:10])[n:4][n:5][c:6]1[H:11])([H:7])([H:8])[H:9]>>[C:1]([C@:6]1([H:11])[N:2]=[C:3]([H:10])[N:4]=[N:5]1)([H:7])([H:8])[H:9]"
C       -1.27815753      -0.47909103      -0.21610483
N        0.02446181       0.43920980       0.68172699
C        0.85961320       1.35587762       0.26079240
N        1.93570315       0.80472391      -0.38735277
N        1.67650050      -0.46411520      -0.53252048
C        0.55857892      -0.75652814       0.21598293
H       -1.38509733      -1.39112231      -0.80410630
H       -1.61753271       0.29850850      -0.90123994
H       -1.99884842      -0.59347764       0.59490465
H        0.62794354       2.41081565       0.22320064
H        0.59683487      -1.62480118       0.86471670
