21
Frame=0 idx=007722 GeodesicLength=0.0 rxn_smarts="[C:1]([C:2]([C:3]([C:4]([C:5]([O:6][C:7]([H:19])([H:20])[H:21])([H:17])[H:18])([H:15])[H:16])([H:13])[H:14])([H:11])[H:12])([H:8])([H:9])[H:10]>>[C:1]1([H:8])([H:10])[C:2]([H:11])([H:12])[C:3]([H:13])([H:14])[C:4]([H:15])([H:16])[C:5]1([H:17])[H:18].[O:6]([C:7]([H:19])([H:20])[H:21])[H:9]"
C       -0.84756091      -0.81912275      -0.73882475
C       -1.89554316      -0.36618946       0.24683519
C       -1.71083567       1.10951142       0.58765638
C       -0.27553528       1.36903111       1.00737395
C        0.73984395       1.00914059      -0.00573371
O        1.52302450      -0.94111596       0.34721773
C        2.47880164      -1.31162253      -0.60911827
H       -0.88519838      -1.90093290      -0.90347249
H        0.51989571      -0.94639248      -0.11971139
H       -0.94454830      -0.32549915      -1.70908438
H       -2.91770856      -0.51902668      -0.12151076
H       -1.81466603      -0.95562337       1.16789088
H       -1.94333215       1.72018041      -0.29243997
H       -2.39534475       1.42328061       1.37933658
H       -0.03589105       0.86115992       1.94665062
H       -0.12098402       2.44115645       1.20404050
H        0.51946621       1.19640565      -1.04726689
H        1.76673966       1.20051749       0.27280950
H        2.09522416      -1.17201103      -1.63035369
H        2.75840548      -2.36317691      -0.49005332
H        3.38574699      -0.70967038      -0.49224164
21
Frame=1 idx=007722 GeodesicLength=0.12995191593372107 rxn_smarts="[C:1]([C:2]([C:3]([C:4]([C:5]([O:6][C:7]([H:19])([H:20])[H:21])([H:17])[H:18])([H:15])[H:16])([H:13])[H:14])([H:11])[H:12])([H:8])([H:9])[H:10]>>[C:1]1([H:8])([H:10])[C:2]([H:11])([H:12])[C:3]([H:13])([H:14])[C:4]([H:15])([H:16])[C:5]1([H:17])[H:18].[O:6]([C:7]([H:19])([H:20])[H:21])[H:9]"
C       -0.87257276      -0.83398451      -0.72476639
C       -1.91792284      -0.35175197       0.25250093
C       -1.70809396       1.12428674       0.57713193
C       -0.27435945       1.35562672       1.01753581
C        0.73606180       0.98506894       0.00043816
O        1.53931678      -0.95240008       0.32960092
C        2.51363165      -1.29204142      -0.62003201
H       -0.93291551      -1.91873687      -0.86213762
H        0.50373869      -1.00332206      -0.13299295
H       -0.96977867      -0.36294287      -1.70608713
H       -2.94262786      -0.48665158      -0.11510161
H       -1.85610480      -0.94024766       1.17542269
H       -1.91520761       1.72949829      -0.31304287
H       -2.40075220       1.46695691       1.34919494
H       -0.04707565       0.83365918       1.95210220
H       -0.10691903       2.42138769       1.23357102
H        0.52546920       1.18050522      -1.04269897
H        1.76013314       1.20286590       0.27325001
H        2.14038059      -1.14260856      -1.64359977
H        2.81581980      -2.33836847      -0.51130650
H        3.40977868      -0.67679954      -0.48898279
21
Frame=2 idx=007722 GeodesicLength=0.25917517396265655 rxn_smarts="[C:1]([C:2]([C:3]([C:4]([C:5]([O:6][C:7]([H:19])([H:20])[H:21])([H:17])[H:18])([H:15])[H:16])([H:13])[H:14])([H:11])[H:12])([H:8])([H:9])[H:10]>>[C:1]1([H:8])([H:10])[C:2]([H:11])([H:12])[C:3]([H:13])([H:14])[C:4]([H:15])([H:16])[C:5]1([H:17])[H:18].[O:6]([C:7]([H:19])([H:20])[H:21])[H:9]"
C       -0.89777665      -0.84870198      -0.71065105
C       -1.93962033      -0.33736655       0.25839790
C       -1.70446321       1.13838111       0.56685349
C       -0.27296531       1.34200530       1.02722834
C        0.73234496       0.96119486       0.00588241
O        1.55404154      -0.96385508       0.31053953
C        2.54807325      -1.27195539      -0.62992130
H       -0.98136033      -1.93518469      -0.82085461
H        0.48728857      -1.06101381      -0.14966273
H       -0.99684548      -0.40058314      -1.70243087
H       -2.96664749      -0.45427033      -0.10819424
H       -1.89635635      -0.92454889       1.18301957
H       -1.88689931       1.73730829      -0.33295142
H       -2.40365193       1.50987891       1.31912197
H       -0.05782166       0.80637108       1.95688957
H       -0.09341063       2.40102377       1.26244786
H        0.53127876       1.16485622      -1.03866719
H        1.75305416       1.20498799       0.27277032
H        2.18687073      -1.11104963      -1.65596995
H        2.87158268      -2.31285141      -0.53169678
H        3.43328402      -0.64462664      -0.48215085
21
Frame=3 idx=007722 GeodesicLength=0.3876756091484044 rxn_smarts="[C:1]([C:2]([C:3]([C:4]([C:5]([O:6][C:7]([H:19])([H:20])[H:21])([H:17])[H:18])([H:15])[H:16])([H:13])[H:14])([H:11])[H:12])([H:8])([H:9])[H:10]>>[C:1]1([H:8])([H:10])[C:2]([H:11])([H:12])[C:3]([H:13])([H:14])[C:4]([H:15])([H:16])[C:5]1([H:17])[H:18].[O:6]([C:7]([H:19])([H:20])[H:21])[H:9]"
C       -0.92315441      -0.86326482      -0.69646132
C       -1.96062463      -0.32304399       0.26456130
C       -1.69999100       1.15179573       0.55680882
C       -0.27134761       1.32820979       1.03642672
C        0.72870921       0.93755456       0.01058351
O        1.56725696      -0.97549261       0.28992258
C        2.58211692      -1.25140588      -0.63877104
H       -1.03024016      -1.95028996      -0.77948729
H        0.47035173      -1.11936499      -0.17002468
H       -1.02580084      -0.43840364      -1.69807295
H       -2.98975675      -0.42192776      -0.10072634
H       -1.93539546      -0.90853654       1.19074085
H       -1.85850599       1.74362708      -0.35220957
H       -2.40413606       1.55198213       1.28914590
H       -0.06808980       0.77933367       1.96100106
H       -0.08044672       2.38014747       1.29061588
H        0.53690197       1.14949809      -1.03519154
H        1.74553627       1.20686559       0.27141635
H        2.23468855      -1.07726688      -1.66731710
H        2.92570805      -2.28672960      -0.55124060
H        3.45621978      -0.61328748      -0.47172054
21
Frame=4 idx=007722 GeodesicLength=0.5154822809534714 rxn_smarts="[C:1]([C:2]([C:3]([C:4]([C:5]([O:6][C:7]([H:19])([H:20])[H:21])([H:17])[H:18])([H:15])[H:16])([H:13])[H:14])([H:11])[H:12])([H:8])([H:9])[H:10]>>[C:1]1([H:8])([H:10])[C:2]([H:11])([H:12])[C:3]([H:13])([H:14])[C:4]([H:15])([H:16])[C:5]1([H:17])[H:18].[O:6]([C:7]([H:19])([H:20])[H:21])[H:9]"
C       -0.94866269      -0.87766578      -0.68217214
C       -1.98092393      -0.30879421       0.27101022
C       -1.69472229       1.16453193       0.54697089
C       -0.26950603       1.31428129       1.04512078
C        0.72518046       0.91417505       0.01455469
O        1.57905449      -0.98731414       0.26764819
C        2.61573092      -1.23044097      -0.64658770
H       -1.07922825      -1.96407501      -0.73786074
H        0.45271036      -1.17827329      -0.19431840
H       -1.05665842      -0.47640336      -1.69295693
H       -3.01194090      -0.38966239      -0.09268154
H       -1.97321859      -0.89221158       1.19863757
H       -1.83010114       1.74847663      -0.37088336
H       -2.40231393       1.59321745       1.25925885
H       -0.07786378       0.75257686       1.96444324
H       -0.06802108       2.35883565       1.31804202
H        0.54237522       1.13446406      -1.03226560
H        1.73762502       1.20849109       0.26926492
H        2.28374701      -1.04124063      -1.67748450
H        2.97824556      -2.26007609      -0.56997439
H        3.47849198      -0.58289254      -0.45776605
21
Frame=5 idx=007722 GeodesicLength=0.6424230157452273 rxn_smarts="[C:1]([C:2]([C:3]([C:4]([C:5]([O:6][C:7]([H:19])([H:20])[H:21])([H:17])[H:18])([H:15])[H:16])([H:13])[H:14])([H:11])[H:12])([H:8])([H:9])[H:10]>>[C:1]1([H:8])([H:10])[C:2]([H:11])([H:12])[C:3]([H:13])([H:14])[C:4]([H:15])([H:16])[C:5]1([H:17])[H:18].[O:6]([C:7]([H:19])([H:20])[H:21])[H:9]"
C       -0.97418388      -0.89188346      -0.66776030
C       -2.00045383      -0.29464877       0.27774937
C       -1.68869683       1.17657918       0.53730158
C       -0.26744716       1.30029623       1.05330222
C        0.72179946       0.89112996       0.01783346
O        1.58946195      -0.99930527       0.24357431
C        2.64880606      -1.20911912      -0.65339419
H       -1.12789617      -1.97658293      -0.69575100
H        0.43412918      -1.23759899      -0.22279917
H       -1.08939453      -0.51459109      -1.68701410
H       -3.03312141      -0.35756637      -0.08406527
H       -2.00975634      -0.87560024       1.20673502
H       -1.80176179       1.75185138      -0.38904696
H       -2.39829510       1.63350126       1.22944046
H       -0.08712903       0.72618305       1.96723286
H       -0.05616063       2.33720724       1.34468431
H        0.54776844       1.11984158      -1.02985748
H        1.72939128       1.20985902       0.26645880
H        2.33389262      -1.00294678      -1.68631852
H        3.02910842      -2.23299742      -0.58794225
H        3.49993928      -0.55360846      -0.44036315
21
Frame=6 idx=007722 GeodesicLength=0.7687640424894978 rxn_smarts="[C:1]([C:2]([C:3]([C:4]([C:5]([O:6][C:7]([H:19])([H:20])[H:21])([H:17])[H:18])([H:15])[H:16])([H:13])[H:14])([H:11])[H:12])([H:8])([H:9])[H:10]>>[C:1]1([H:8])([H:10])[C:2]([H:11])([H:12])[C:3]([H:13])([H:14])[C:4]([H:15])([H:16])[C:5]1([H:17])[H:18].[O:6]([C:7]([H:19])([H:20])[H:21])[H:9]"
C       -0.99964848      -0.90590755      -0.65320979
C       -2.01921243      -0.28061338       0.28475916
C       -1.68195648       1.18793936       0.52777187
C       -0.26517184       1.28627741       1.06098430
C        0.71859929       0.86842765       0.02045684
O        1.59868020      -1.01139500       0.21764197
C        2.68131699      -1.18747779      -0.65922025
H       -1.17583762      -1.98782277      -0.65299104
H        0.41428948      -1.29724389      -0.25555446
H       -1.12398054      -0.55295887      -1.68018461
H       -3.05329020      -0.32565784      -0.07494304
H       -2.04505238      -0.85870791       1.21504821
H       -1.77353746       1.75377907      -0.40676313
H       -2.39219193       1.67277986       1.19965848
H       -0.09588404       0.70015160       1.96939312
H       -0.04486012       2.31531865       1.37055062
H        0.55313856       1.10565831      -1.02793561
H        1.72088356       1.21101020       0.26307325
H        2.38490638      -0.96249904      -1.69363720
H        3.07837309      -2.20554177      -0.60514841
H        3.52043596      -0.52551628      -0.41975030
21
Frame=7 idx=007722 GeodesicLength=0.8945462117647172 rxn_smarts="[C:1]([C:2]([C:3]([C:4]([C:5]([O:6][C:7]([H:19])([H:20])[H:21])([H:17])[H:18])([H:15])[H:16])([H:13])[H:14])([H:11])[H:12])([H:8])([H:9])[H:10]>>[C:1]1([H:8])([H:10])[C:2]([H:11])([H:12])[C:3]([H:13])([H:14])[C:4]([H:15])([H:16])[C:5]1([H:17])[H:18].[O:6]([C:7]([H:19])([H:20])[H:21])[H:9]"
C       -1.02492228      -0.91971395      -0.63851512
C       -2.03715062      -0.26671453       0.29200563
C       -1.67454062       1.19860451       0.51833849
C       -0.26269004       1.27228269       1.06818398
C        0.71562799       0.84611136       0.02249469
O        1.60685407      -1.02349033       0.18978530
C        2.71315936      -1.16558189      -0.66411546
H       -1.22257172      -1.99782721      -0.60939836
H        0.39284698      -1.35708528      -0.29261689
H       -1.16034181      -0.59149851      -1.67240687
H       -3.07238169      -0.29400830      -0.06539489
H       -2.07908583      -0.84156061       1.22356047
H       -1.74547329       1.75427294      -0.42410437
H       -2.38412549       1.71097290       1.16986202
H       -0.10414293       0.67453732       1.97096489
H       -0.03415110       2.29326801       1.39564010
H        0.55857968       1.09198539      -1.02643326
H        1.71217378       1.21197368       0.25925991
H        2.43651703      -0.92001313      -1.69928414
H        3.12601308      -2.17778267      -0.62161962
H        3.53980543      -0.49873239      -0.39620650
21
Frame=8 idx=007722 GeodesicLength=1.0198909137989955 rxn_smarts="[C:1]([C:2]([C:3]([C:4]([C:5]([O:6][C:7]([H:19])([H:20])[H:21])([H:17])[H:18])([H:15])[H:16])([H:13])[H:14])([H:11])[H:12])([H:8])([H:9])[H:10]>>[C:1]1([H:8])([H:10])[C:2]([H:11])([H:12])[C:3]([H:13])([H:14])[C:4]([H:15])([H:16])[C:5]1([H:17])[H:18].[O:6]([C:7]([H:19])([H:20])[H:21])[H:9]"
C       -1.04986143      -0.93329671      -0.62367169
C       -2.05423551      -0.25297446       0.29944077
C       -1.66648668       1.20857013       0.50895692
C       -0.26001032       1.25835464       1.07493373
C        0.71294677       0.82421182       0.02402914
O        1.61418640      -1.03547142       0.15995314
C        2.74427296      -1.14347946      -0.66814322
H       -1.26769576      -2.00661034      -0.56486254
H        0.36940209      -1.41705737      -0.33386449
H       -1.19836656      -0.63018474      -1.66361408
H       -3.09035449      -0.26266625      -0.05554199
H       -2.11188140      -0.82418611       1.23226057
H       -1.71759715       1.75335726      -0.44115110
H       -2.37422751       1.74800937       1.13999236
H       -0.11192459       0.64936717       1.97199942
H       -0.02406177       2.27113940       1.41997328
H        0.56420019       1.07887840      -1.02527198
H        1.70332667       1.21280785       0.25515569
H        2.48839369      -0.87568303      -1.70310406
H        3.17208506      -2.14975774      -0.63738174
H        3.55788936      -0.47332841      -0.37008813
21
Frame=9 idx=007722 GeodesicLength=1.1456246497125988 rxn_smarts="[C:1]([C:2]([C:3]([C:4]([C:5]([O:6][C:7]([H:19])([H:20])[H:21])([H:17])[H:18])([H:15])[H:16])([H:13])[H:14])([H:11])[H:12])([H:8])([H:9])[H:10]>>[C:1]1([H:8])([H:10])[C:2]([H:11])([H:12])[C:3]([H:13])([H:14])[C:4]([H:15])([H:16])[C:5]1([H:17])[H:18].[O:6]([C:7]([H:19])([H:20])[H:21])[H:9]"
C       -1.07453094      -0.94660429      -0.60896847
C       -2.07029048      -0.23954003       0.30713599
C       -1.65780276       1.21774783       0.49969406
C       -0.25707007       1.24453038       1.08117943
C        0.71052129       0.80277445       0.02495646
O        1.62121262      -1.04691509       0.12892854
C        2.77462138      -1.12122743      -0.67099553
H       -1.31163769      -2.01398595      -0.52034020
H        0.34383401      -1.47692023      -0.37988558
H       -1.23816702      -0.66864392      -1.65378811
H       -3.10711677      -0.23189185      -0.04498384
H       -2.14290004      -0.80683087       1.24110954
H       -1.69006057       1.75097868      -0.45778583
H       -2.36253221       1.78368636       1.11017348
H       -0.11907679       0.62478334       1.97250225
H       -0.01457434       2.24899609       1.44344392
H        0.56989745       1.06624654      -1.02457190
H        1.69429949       1.21385486       0.25046948
H        2.54015807      -0.83002018      -1.70466166
H        3.21645109      -2.12161306      -0.65182044
H        3.57476428      -0.44940565      -0.34179159
21
Frame=10 idx=007722 GeodesicLength=1.2711535671995193 rxn_smarts="[C:1]([C:2]([C:3]([C:4]([C:5]([O:6][C:7]([H:19])([H:20])[H:21])([H:17])[H:18])([H:15])[H:16])([H:13])[H:14])([H:11])[H:12])([H:8])([H:9])[H:10]>>[C:1]1([H:8])([H:10])[C:2]([H:11])([H:12])[C:3]([H:13])([H:14])[C:4]([H:15])([H:16])[C:5]1([H:17])[H:18].[O:6]([C:7]([H:19])([H:20])[H:21])[H:9]"
C       -1.09862986      -0.95959297      -0.59428588
C       -2.08538189      -0.22634484       0.31492044
C       -1.64854911       1.22620885       0.49042416
C       -0.25394061       1.23086486       1.08701832
C        0.70847185       0.78181939       0.02551048
O        1.62783209      -1.05790213       0.09623029
C        2.80410973      -1.09888264      -0.67302394
H       -1.35318629      -2.02016507      -0.47495676
H        0.31532177      -1.53679516      -0.42979625
H       -1.27945510      -0.70709550      -1.64289693
H       -3.12266699      -0.20159183      -0.03421401
H       -2.17252698      -0.78941117       1.25003550
H       -1.66277549       1.74727511      -0.47419464
H       -2.34928142       1.81804051       1.08022038
H       -0.12576888       0.60076091       1.97257793
H       -0.00575331       2.22694979       1.46616382
H        0.57593780       1.05426380      -1.02408974
H        1.68523106       1.21490802       0.24570086
H        2.59155032      -0.78305200      -1.70417380
H        3.25926295      -2.09332060      -0.66549030
H        3.59019838      -0.42693735      -0.31167992
21
Frame=11 idx=007722 GeodesicLength=1.3965108560878532 rxn_smarts="[C:1]([C:2]([C:3]([C:4]([C:5]([O:6][C:7]([H:19])([H:20])[H:21])([H:17])[H:18])([H:15])[H:16])([H:13])[H:14])([H:11])[H:12])([H:8])([H:9])[H:10]>>[C:1]1([H:8])([H:10])[C:2]([H:11])([H:12])[C:3]([H:13])([H:14])[C:4]([H:15])([H:16])[C:5]1([H:17])[H:18].[O:6]([C:7]([H:19])([H:20])[H:21])[H:9]"
C       -1.12206798      -0.97224102      -0.57970088
C       -2.09945985      -0.21343357       0.32275953
C       -1.63874684       1.23393879       0.48114092
C       -0.25060328       1.21738078       1.09245708
C        0.70683036       0.76138420       0.02569681
O        1.63425583      -1.06821564       0.06195882
C        2.83273476      -1.07646896      -0.67422115
H       -1.39220203      -2.02515842      -0.42890122
H        0.28333352      -1.59671968      -0.48334365
H       -1.32212022      -0.74542838      -1.63091513
H       -3.13697205      -0.17184404      -0.02325297
H       -2.20068304      -0.77200997       1.25898388
H       -1.63577726       1.74228865      -0.49037432
H       -2.33457251       1.85097935       1.05015192
H       -0.13196086       0.57732250       1.97224939
H        0.00240192       2.20505879       1.48813908
H        0.58235012       1.04297329      -1.02381486
H        1.67615150       1.21606541       0.24085568
H        2.64238130      -0.73505442      -1.70152762
H        3.30058210      -2.06490593      -0.67827144
H        3.60414449      -0.40591172      -0.28006987
21
Frame=12 idx=007722 GeodesicLength=1.5216525938937566 rxn_smarts="[C:1]([C:2]([C:3]([C:4]([C:5]([O:6][C:7]([H:19])([H:20])[H:21])([H:17])[H:18])([H:15])[H:16])([H:13])[H:14])([H:11])[H:12])([H:8])([H:9])[H:10]>>[C:1]1([H:8])([H:10])[C:2]([H:11])([H:12])[C:3]([H:13])([H:14])[C:4]([H:15])([H:16])[C:5]1([H:17])[H:18].[O:6]([C:7]([H:19])([H:20])[H:21])[H:9]"
C       -1.14471552      -0.98449215      -0.56537751
C       -2.11244594      -0.20086862       0.33058985
C       -1.62842583       1.24092412       0.47182825
C       -0.24705211       1.20412640       1.09751315
C        0.70564543       0.74152737       0.02556038
O        1.64068988      -1.07763298       0.02633127
C        2.86045435      -1.05403203      -0.67460483
H       -1.42838405      -2.02896487      -0.38240887
H        0.24722708      -1.65677556      -0.54009661
H       -1.36604231      -0.78349143      -1.61785214
H       -3.14998072      -0.14275454      -0.01212134
H       -2.22722904      -0.75477274       1.26786647
H       -1.60909614       1.73608100      -0.50632869
H       -2.31854136       1.88240529       1.01997217
H       -0.13763793       0.55453134       1.97156585
H        0.00986824       2.18341323       1.50937450
H        0.58920924       1.03243229      -1.02370111
H        1.66711272       1.21741797       0.23601509
H        2.69234659      -0.68637719      -1.69668505
H        3.34043906      -2.03640149      -0.69007294
H        3.61655837      -0.38629540      -0.24736789
21
Frame=13 idx=007722 GeodesicLength=1.6470807658341766 rxn_smarts="[C:1]([C:2]([C:3]([C:4]([C:5]([O:6][C:7]([H:19])([H:20])[H:21])([H:17])[H:18])([H:15])[H:16])([H:13])[H:14])([H:11])[H:12])([H:8])([H:9])[H:10]>>[C:1]1([H:8])([H:10])[C:2]([H:11])([H:12])[C:3]([H:13])([H:14])[C:4]([H:15])([H:16])[C:5]1([H:17])[H:18].[O:6]([C:7]([H:19])([H:20])[H:21])[H:9]"
C       -1.16664509      -0.99632002      -0.55156896
C       -2.12426193      -0.18875790       0.33852105
C       -1.61762513       1.24712543       0.46254380
C       -0.24320486       1.19113070       1.10209215
C        0.70489104       0.72229542       0.02491717
O        1.64744645      -1.08593402      -0.01012462
C        2.88744287      -1.03157578      -0.67390641
H       -1.46198083      -2.03151242      -0.33609309
H        0.20627938      -1.71700492      -0.60051928
H       -1.41148112      -0.82098219      -1.60369107
H       -3.16172622      -0.11448733      -0.00040277
H       -2.25178860      -0.73794251       1.27676505
H       -1.58289411       1.72867012      -0.52199902
H       -2.30127333       1.91221952       0.98982516
H       -0.14259518       0.53246803       1.97048147
H        0.01674387       2.16208342       1.52971642
H        0.59637805       1.02252536      -1.02395704
H        1.65806607       1.21919164       0.23082071
H        2.74159081      -0.63716702      -1.68941343
H        3.37892223      -2.00788502      -0.70053184
H        3.62771565      -0.36814051      -0.21347546
21
Frame=14 idx=007722 GeodesicLength=1.7720570479283024 rxn_smarts="[C:1]([C:2]([C:3]([C:4]([C:5]([O:6][C:7]([H:19])([H:20])[H:21])([H:17])[H:18])([H:15])[H:16])([H:13])[H:14])([H:11])[H:12])([H:8])([H:9])[H:10]>>[C:1]1([H:8])([H:10])[C:2]([H:11])([H:12])[C:3]([H:13])([H:14])[C:4]([H:15])([H:16])[C:5]1([H:17])[H:18].[O:6]([C:7]([H:19])([H:20])[H:21])[H:9]"
C       -1.18764487      -1.00765741      -0.53838813
C       -2.13489411      -0.17709615       0.34636196
C       -1.60636351       1.25257620       0.45322419
C       -0.23909668       1.17840746       1.10628066
C        0.70465620       0.70372325       0.02392921
O        1.65462443      -1.09297640      -0.04748935
C        2.91363936      -1.00909387      -0.67237495
H       -1.49239736      -2.03288906      -0.28993179
H        0.15963379      -1.77781935      -0.66317408
H       -1.45804711      -0.85785201      -1.58850900
H       -3.17216135      -0.08701783       0.01155610
H       -2.27450126      -0.72157955       1.28547122
H       -1.55707950       1.72019980      -0.53743101
H       -2.28292769       1.94039016       0.95964586
H       -0.14693834       0.51109243       1.96907821
H        0.02297300       2.14111055       1.54930283
H        0.60403294       1.01339291      -1.02440502
H        1.64910288       1.22133202       0.22559634
H        2.78974979      -0.58772272      -1.67992476
H        3.41615678      -1.97928462      -0.70984677
H        3.63748261      -0.35123580      -0.17897174
21
Frame=15 idx=007722 GeodesicLength=1.8964610836688796 rxn_smarts="[C:1]([C:2]([C:3]([C:4]([C:5]([O:6][C:7]([H:19])([H:20])[H:21])([H:17])[H:18])([H:15])[H:16])([H:13])[H:14])([H:11])[H:12])([H:8])([H:9])[H:10]>>[C:1]1([H:8])([H:10])[C:2]([H:11])([H:12])[C:3]([H:13])([H:14])[C:4]([H:15])([H:16])[C:5]1([H:17])[H:18].[O:6]([C:7]([H:19])([H:20])[H:21])[H:9]"
C       -1.20766294      -1.01849734      -0.52600521
C       -2.14429465      -0.16593189       0.35407592
C       -1.59464384       1.25727234       0.44389217
C       -0.23467844       1.16593512       1.11008752
C        0.70497846       0.68584021       0.02256959
O        1.66249927      -1.09852563      -0.08534169
C        2.93912854      -0.98653922      -0.66995564
H       -1.51985228      -2.03311142      -0.24444551
H        0.10649513      -1.83959585      -0.72759268
H       -1.50555539      -0.89383985      -1.57235377
H       -3.18127808      -0.06038276       0.02379398
H       -2.29526254      -0.70584560       1.29391734
H       -1.53165704       1.71076920      -0.55258238
H       -2.26359048       1.96685364       0.92952495
H       -0.15059781       0.49036249       1.96736945
H        0.02861323       2.12048657       1.56816421
H        0.61216889       1.00499326      -1.02508552
H        1.64022388       1.22397388       0.22025796
H        2.83664450      -0.53846353      -1.66828716
H        3.45236457      -1.95051055      -0.71770452
H        3.64595701      -0.33524306      -0.14429897
21
Frame=16 idx=007722 GeodesicLength=2.020195897072106 rxn_smarts="[C:1]([C:2]([C:3]([C:4]([C:5]([O:6][C:7]([H:19])([H:20])[H:21])([H:17])[H:18])([H:15])[H:16])([H:13])[H:14])([H:11])[H:12])([H:8])([H:9])[H:10]>>[C:1]1([H:8])([H:10])[C:2]([H:11])([H:12])[C:3]([H:13])([H:14])[C:4]([H:15])([H:16])[C:5]1([H:17])[H:18].[O:6]([C:7]([H:19])([H:20])[H:21])[H:9]"
C       -1.22674330      -1.02882432      -0.51464408
C       -2.15243962      -0.15531028       0.36167065
C       -1.58248163       1.26121813       0.43456312
C       -0.22989482       1.15369279       1.11347162
C        0.70586408       0.66865148       0.02074577
O        1.67132726      -1.10250405      -0.12331099
C        2.96411756      -0.96382246      -0.66655161
H       -1.54446752      -2.03219200      -0.20005375
H        0.04583848      -1.90274871      -0.79346708
H       -1.55407870      -0.92870624      -1.55526053
H       -3.18910986      -0.03461143       0.03648514
H       -2.31392991      -0.69091038       1.30208942
H       -1.50666168       1.70046392      -0.56743555
H       -2.24333318       1.99159667       0.89954427
H       -0.15346829       0.47024491       1.96532296
H        0.03375815       2.10020212       1.58626301
H        0.62072529       0.99721352      -1.02611963
H        1.63140120       1.22721145       0.21462702
H        2.88240229      -0.48943613      -1.65454465
H        3.48778322      -1.92149898      -0.72393618
H        3.65339101      -0.31993002      -0.10945893
