14
Frame=0 idx=000642 GeodesicLength=0.0 rxn_smarts="[O:1]([C@@:2]1([H:8])[C:3]([H:9])([H:10])[C@@:4]2([H:11])[C:5]([H:12])([H:13])[C@@:6]12[H:14])[H:7]>>[O:1]([C:2][C@@:6]1([H:14])[C@:4]([C:3]([H:8])([H:9])[H:10])([H:11])[C:5]1([H:12])[H:13])[H:7]"
O       -0.72396191       2.13711247       0.19248279
C       -0.63648224       0.97236750       0.83549816
C       -1.15265513      -0.84945588      -0.25648091
C        0.28733642      -1.05499325       0.07497318
C        1.20508383      -0.09799787      -0.61164876
C        0.65994855       0.24024126       0.75313453
H        0.03880959       2.26692998      -0.38990349
H       -1.54344500       0.19096120       0.63902461
H       -1.40683592      -0.68084601      -1.30034902
H       -1.85025901      -1.53085114       0.22912360
H        0.66534572      -2.01337208       0.40830965
H        0.84040291       0.41944363      -1.49448646
H        2.25461638      -0.35891131      -0.65005669
H        1.36209580       0.35937150       1.57037879
14
Frame=1 idx=000642 GeodesicLength=0.06486771751894896 rxn_smarts="[O:1]([C@@:2]1([H:8])[C:3]([H:9])([H:10])[C@@:4]2([H:11])[C:5]([H:12])([H:13])[C@@:6]12[H:14])[H:7]>>[O:1]([C:2][C@@:6]1([H:14])[C@:4]([C:3]([H:8])([H:9])[H:10])([H:11])[C:5]1([H:12])[H:13])[H:7]"
O       -0.72486215       2.13446895       0.18310486
C       -0.63278828       0.97352617       0.83391654
C       -1.15392789      -0.83991688      -0.25166894
C        0.28781088      -1.05198265       0.07472922
C        1.20945781      -0.09843958      -0.61075041
C        0.66502213       0.24290305       0.75332907
H        0.02784783       2.25468028      -0.41438765
H       -1.55692954       0.17574863       0.66982547
H       -1.40818019      -0.64811851      -1.29177131
H       -1.84571222      -1.54320722       0.21007183
H        0.66233045      -2.01036543       0.41165664
H        0.84809271       0.42016175      -1.49432291
H        2.25826382      -0.36238536      -0.64832130
H        1.36357464       0.35292680       1.57458890
14
Frame=2 idx=000642 GeodesicLength=0.1297044348604451 rxn_smarts="[O:1]([C@@:2]1([H:8])[C:3]([H:9])([H:10])[C@@:4]2([H:11])[C:5]([H:12])([H:13])[C@@:6]12[H:14])[H:7]>>[O:1]([C:2][C@@:6]1([H:14])[C@:4]([C:3]([H:8])([H:9])[H:10])([H:11])[C:5]1([H:12])[H:13])[H:7]"
O       -0.72545818       2.13199859       0.17406995
C       -0.62924826       0.97465520       0.83229236
C       -1.15525256      -0.83050109      -0.24662591
C        0.28827514      -1.04896940       0.07453698
C        1.21368460      -0.09885037      -0.60991616
C        0.67004539       0.24561873       0.75349910
H        0.01686826       2.24223647      -0.43829979
H       -1.56989702       0.16045971       0.69963099
H       -1.40940189      -0.61635459      -1.28265933
H       -1.84116265      -1.55465338       0.19059471
H        0.65937746      -2.00729023       0.41509178
H        0.85545719       0.42082986      -1.49418664
H        2.26177042      -0.36574784      -0.64672247
H        1.36494210       0.34656834       1.57869444
14
Frame=3 idx=000642 GeodesicLength=0.1945110319669422 rxn_smarts="[O:1]([C@@:2]1([H:8])[C:3]([H:9])([H:10])[C@@:4]2([H:11])[C:5]([H:12])([H:13])[C@@:6]12[H:14])[H:7]>>[O:1]([C:2][C@@:6]1([H:14])[C@:4]([C:3]([H:8])([H:9])[H:10])([H:11])[C:5]1([H:12])[H:13])[H:7]"
O       -0.72574952       2.12969670       0.16532158
C       -0.62582736       0.97578325       0.83064301
C       -1.15662586      -0.82120602      -0.24135925
C        0.28872632      -1.04595019       0.07440371
C        1.21776715      -0.09923206      -0.60914022
C        0.67502510       0.24838621       0.75365109
H        0.00588234       2.22961495      -0.46166310
H       -1.58245404       0.14505417       0.72853223
H       -1.41049961      -0.58551380      -1.27306306
H       -1.83658886      -1.56522096       0.17070004
H        0.65648104      -2.00414698       0.41861523
H        0.86250979       0.42144799      -1.49407720
H        2.26513796      -0.36900830      -0.64525682
H        1.36621553       0.34029505       1.58269277
14
Frame=4 idx=000642 GeodesicLength=0.2592898643821527 rxn_smarts="[O:1]([C@@:2]1([H:8])[C:3]([H:9])([H:10])[C@@:4]2([H:11])[C:5]([H:12])([H:13])[C@@:6]12[H:14])[H:7]>>[O:1]([C:2][C@@:6]1([H:14])[C@:4]([C:3]([H:8])([H:9])[H:10])([H:11])[C:5]1([H:12])[H:13])[H:7]"
O       -0.72574110       2.12755643       0.15680616
C       -0.62249526       0.97693604       0.82898099
C       -1.15804535      -0.81202803      -0.23587323
C        0.28916159      -1.04292171       0.07433605
C        1.22170810      -0.09958709      -0.60841889
C        0.67996786       0.25120432       0.75378959
H       -0.00509438       2.21683512      -0.48449213
H       -1.59469512       0.12949016       0.75661202
H       -1.41147227      -0.55556376      -1.26302507
H       -1.83197147      -1.57493191       0.15039263
H        0.65363560      -2.00093598       0.42222785
H        0.86926197       0.42201527      -1.49399525
H        2.26836823      -0.37217681      -0.64392232
H        1.36741160       0.33410795       1.58658160
14
Frame=5 idx=000642 GeodesicLength=0.3240689130315421 rxn_smarts="[O:1]([C@@:2]1([H:8])[C:3]([H:9])([H:10])[C@@:4]2([H:11])[C:5]([H:12])([H:13])[C@@:6]12[H:14])[H:7]>>[O:1]([C:2][C@@:6]1([H:14])[C@:4]([C:3]([H:8])([H:9])[H:10])([H:11])[C:5]1([H:12])[H:13])[H:7]"
O       -0.72544018       2.12557006       0.14847161
C       -0.61922258       0.97813819       0.82731649
C       -1.15950939      -0.80296273      -0.23016707
C        0.28957863      -1.03988048       0.07434146
C        1.22551005      -0.09991861      -0.60774883
C        0.68488121       0.25407291       0.75391865
H       -0.01604576       2.20391606      -0.50679959
H       -1.60670817       0.11371615       0.78394374
H       -1.41232160      -0.52646777      -1.25258112
H       -1.82729147      -1.58380252       0.12967293
H        0.65083566      -1.99765705       0.42593254
H        0.87572349       0.42252942      -1.49394114
H        2.27146256      -0.37526420      -0.64271771
H        1.36854755       0.32801057       1.59035803
14
Frame=6 idx=000642 GeodesicLength=0.3888474906118594 rxn_smarts="[O:1]([C@@:2]1([H:8])[C:3]([H:9])([H:10])[C@@:4]2([H:11])[C:5]([H:12])([H:13])[C@@:6]12[H:14])[H:7]>>[O:1]([C:2][C@@:6]1([H:14])[C@:4]([C:3]([H:8])([H:9])[H:10])([H:11])[C:5]1([H:12])[H:13])[H:7]"
O       -0.72485530       2.12372848       0.14026859
C       -0.61598819       0.97940897       0.82565081
C       -1.16101795      -0.79400468      -0.22424122
C        0.28997545      -1.03682460       0.07442486
C        1.22917687      -0.10023057      -0.60712721
C        0.68977014       0.25699176       0.75403945
H       -0.02695430       2.19087700      -0.52859647
H       -1.61856058       0.09767572       0.81060386
H       -1.41305459      -0.49818661      -1.24176177
H       -1.82253042      -1.59184120       0.10854282
H        0.64807593      -1.99431082       0.42973148
H        0.88190601       0.42298636      -1.49391688
H        2.27442352      -0.37828056      -0.64163934
H        1.36963343       0.32201076       1.59402101
14
Frame=7 idx=000642 GeodesicLength=0.45362381691009696 rxn_smarts="[O:1]([C@@:2]1([H:8])[C:3]([H:9])([H:10])[C@@:4]2([H:11])[C:5]([H:12])([H:13])[C@@:6]12[H:14])[H:7]>>[O:1]([C:2][C@@:6]1([H:14])[C@:4]([C:3]([H:8])([H:9])[H:10])([H:11])[C:5]1([H:12])[H:13])[H:7]"
O       -0.72399798       2.12202312       0.13215336
C       -0.61277274       0.98076550       0.82398559
C       -1.16257059      -0.78515262      -0.21809409
C        0.29035019      -1.03375161       0.07459093
C        1.23271053      -0.10052599      -0.60655258
C        0.69463937       0.25996100       0.75415315
H       -0.03779544       2.17774199      -0.54988605
H       -1.63031898       0.08131790       0.83664841
H       -1.41367312      -0.47069841      -1.23059156
H       -1.81767324      -1.59904626       0.08700980
H        0.64535264      -1.99089742       0.43362570
H        0.88781628       0.42338358      -1.49392407
H        2.27725252      -0.38123445      -0.64068673
H        1.37068056       0.31611367       1.59756816
14
Frame=8 idx=000642 GeodesicLength=0.5184003789259547 rxn_smarts="[O:1]([C@@:2]1([H:8])[C:3]([H:9])([H:10])[C@@:4]2([H:11])[C:5]([H:12])([H:13])[C@@:6]12[H:14])[H:7]>>[O:1]([C:2][C@@:6]1([H:14])[C@:4]([C:3]([H:8])([H:9])[H:10])([H:11])[C:5]1([H:12])[H:13])[H:7]"
O       -0.72287983       2.12044717       0.12408237
C       -0.60956159       0.98222527       0.82231658
C       -1.16416907      -0.77640403      -0.21172113
C        0.29070214      -1.03066033       0.07484435
C        1.23611341      -0.10080960      -0.60602345
C        0.69949327       0.26298133       0.75425933
H       -0.04854158       2.16453675      -0.57067254
H       -1.64203496       0.06457544       0.86213441
H       -1.41418288      -0.44397229      -1.21909038
H       -1.81270836      -1.60541304       0.06507901
H        0.64266381      -1.98741569       0.43761734
H        0.89346195       0.42371496      -1.49396355
H        2.27995002      -0.38413476      -0.63985888
H        1.37169365       0.31032882       1.60099653
14
Frame=9 idx=000642 GeodesicLength=0.5831782182833055 rxn_smarts="[O:1]([C@@:2]1([H:8])[C:3]([H:9])([H:10])[C@@:4]2([H:11])[C:5]([H:12])([H:13])[C@@:6]12[H:14])[H:7]>>[O:1]([C:2][C@@:6]1([H:14])[C@:4]([C:3]([H:8])([H:9])[H:10])([H:11])[C:5]1([H:12])[H:13])[H:7]"
O       -0.72150037       2.11899960       0.11602366
C       -0.60634329       0.98380045       0.82063363
C       -1.16582224      -0.76774835      -0.20513747
C        0.29101794      -1.02754629       0.07518156
C        1.23938362      -0.10108253      -0.60553938
C        0.70432490       0.26605114       0.75435561
H       -0.05915785       2.15128090      -0.59097820
H       -1.65377002       0.04739568       0.88710250
H       -1.41458893      -0.41793795      -1.20728277
H       -1.80757932      -1.61099317       0.04281020
H        0.63999284      -1.98386893       0.44170322
H        0.89884917       0.42398251      -1.49404055
H        2.28251672      -0.38699016      -0.63914726
H        1.37267681       0.30465712       1.60431526
14
Frame=10 idx=000642 GeodesicLength=0.6479565464266873 rxn_smarts="[O:1]([C@@:2]1([H:8])[C:3]([H:9])([H:10])[C@@:4]2([H:11])[C:5]([H:12])([H:13])[C@@:6]12[H:14])[H:7]>>[O:1]([C:2][C@@:6]1([H:14])[C@:4]([C:3]([H:8])([H:9])[H:10])([H:11])[C:5]1([H:12])[H:13])[H:7]"
O       -0.71988362       2.11766777       0.10793720
C       -0.60310313       0.98550700       0.81893599
C       -1.16752457      -0.75918910      -0.19832275
C        0.29130607      -1.02441017       0.07561321
C        1.24252668      -0.10135148      -0.60509961
C        0.70914681       0.26917411       0.75444215
H       -0.06962298       2.13800345      -0.61079303
H       -1.66555920       0.02969910       0.91160539
H       -1.41489776      -0.39260808      -1.19518462
H       -1.80231162      -1.61571996       0.02017316
H        0.63734715      -1.98025323       0.44589160
H        0.90398401       0.42417443      -1.49415575
H        2.28495394      -0.38980915      -0.63855626
H        1.37363823       0.29911531       1.60751331
14
Frame=11 idx=000642 GeodesicLength=0.7127387398068978 rxn_smarts="[O:1]([C@@:2]1([H:8])[C:3]([H:9])([H:10])[C@@:4]2([H:11])[C:5]([H:12])([H:13])[C@@:6]12[H:14])[H:7]>>[O:1]([C:2][C@@:6]1([H:14])[C@:4]([C:3]([H:8])([H:9])[H:10])([H:11])[C:5]1([H:12])[H:13])[H:7]"
O       -0.71804042       2.11644485       0.09979349
C       -0.59982923       0.98735650       0.81721640
C       -1.16927742      -0.75072113      -0.19127609
C        0.29156292      -1.02124934       0.07614252
C        1.24554437      -0.10161995      -0.60470358
C        0.71396091       0.27235197       0.75451714
H       -0.07991100       2.12472488      -0.63012927
H       -1.67744647       0.01141395       0.93568565
H       -1.41511724      -0.36795014      -1.18281651
H       -1.79688688      -1.61958091      -0.00281242
H        0.63472018      -1.97656847       0.45018677
H        0.90887199       0.42428606      -1.49431297
H        2.28726338      -0.39260052      -0.63808269
H        1.37458489       0.29371225       1.61059157
14
Frame=12 idx=000642 GeodesicLength=0.777514203109413 rxn_smarts="[O:1]([C@@:2]1([H:8])[C:3]([H:9])([H:10])[C@@:4]2([H:11])[C:5]([H:12])([H:13])[C@@:6]12[H:14])[H:7]>>[O:1]([C:2][C@@:6]1([H:14])[C@:4]([C:3]([H:8])([H:9])[H:10])([H:11])[C:5]1([H:12])[H:13])[H:7]"
O       -0.71598281       2.11532539       0.09156457
C       -0.59651344       0.98935928       0.81546531
C       -1.17108215      -0.74234145      -0.18399708
C        0.29178578      -1.01806200       0.07677125
C        1.24843823      -0.10189176      -0.60435170
C        0.71876842       0.27558609       0.75457778
H       -0.08999085       2.11147022      -0.64899502
H       -1.68946988      -0.00753281       0.95937757
H       -1.41525240      -0.34393824      -1.17019418
H       -1.79129318      -1.62255831      -0.02611903
H        0.63210770      -1.97281391       0.45459058
H        0.91351875       0.42431245      -1.49451540
H        2.28944631      -0.39537201      -0.63772422
H        1.37551952       0.28845706       1.61354958
14
Frame=13 idx=000642 GeodesicLength=0.8422915976110199 rxn_smarts="[O:1]([C@@:2]1([H:8])[C:3]([H:9])([H:10])[C@@:4]2([H:11])[C:5]([H:12])([H:13])[C@@:6]12[H:14])[H:7]>>[O:1]([C:2][C@@:6]1([H:14])[C@:4]([C:3]([H:8])([H:9])[H:10])([H:11])[C:5]1([H:12])[H:13])[H:7]"
O       -0.71372082       2.11430671       0.08322601
C       -0.59314537       0.99152812       0.81367381
C       -1.17294085      -0.73404299      -0.17648240
C        0.29197214      -1.01484508       0.07750308
C        1.25121035      -0.10217108      -0.60404356
C        0.72357213       0.27887954       0.75462146
H       -0.09983619       2.09826096      -0.66740667
H       -1.70166441      -0.02723104       0.98271011
H       -1.41531035      -0.32054091      -1.15733024
H       -1.78552066      -1.62463005      -0.04972267
H        0.62950449      -1.96898781       0.45910732
H        0.91792968       0.42424653      -1.49476639
H        2.29150351      -0.39813281      -0.63747804
H        1.37644635       0.28335990       1.61638820
14
Frame=14 idx=000642 GeodesicLength=0.9070519233546849 rxn_smarts="[O:1]([C@@:2]1([H:8])[C:3]([H:9])([H:10])[C@@:4]2([H:11])[C:5]([H:12])([H:13])[C@@:6]12[H:14])[H:7]>>[O:1]([C:2][C@@:6]1([H:14])[C@:4]([C:3]([H:8])([H:9])[H:10])([H:11])[C:5]1([H:12])[H:13])[H:7]"
O       -0.71126470       2.11338631       0.07475432
C       -0.58971952       0.99387271       0.81183096
C       -1.17485548      -0.72582247      -0.16873106
C        0.29211951      -1.01159623       0.07833930
C        1.25386218      -0.10246135      -0.60377932
C        0.72837274       0.28223454       0.75464473
H       -0.10941179       2.08512370      -0.68537335
H       -1.71406155      -0.04776396       1.00570112
H       -1.41529782      -0.29773382      -1.14423560
H       -1.77956066      -1.62577315      -0.07358461
H        0.62690723      -1.96508801       0.46373821
H        0.92210903       0.42408182      -1.49506969
H        2.29343546      -0.40088995      -0.63734211
H        1.37736538       0.27842986       1.61910710
14
Frame=15 idx=000642 GeodesicLength=0.9717967566778307 rxn_smarts="[O:1]([C@@:2]1([H:8])[C:3]([H:9])([H:10])[C@@:4]2([H:11])[C:5]([H:12])([H:13])[C@@:6]12[H:14])[H:7]>>[O:1]([C:2][C@@:6]1([H:14])[C@:4]([C:3]([H:8])([H:9])[H:10])([H:11])[C:5]1([H:12])[H:13])[H:7]"
O       -0.70862047       2.11256499       0.06613120
C       -0.58622651       0.99640543       0.80992816
C       -1.17682852      -0.71767108      -0.16073892
C        0.29222534      -1.00831173       0.07928367
C        1.25639557      -0.10276652      -0.60355897
C        0.73317319       0.28565511       0.75464449
H       -0.11869394       2.07207718      -0.70291524
H       -1.72669213      -0.06923347       1.02836022
H       -1.41522124      -0.27548505      -1.13091887
H       -1.77340664      -1.62595772      -0.09766882
H        0.62431071      -1.96111193       0.46848804
H        0.92606096       0.42380993      -1.49542945
H        2.29524291      -0.40365240      -0.63731376
H        1.37828075       0.27367726       1.62170825
14
Frame=16 idx=000642 GeodesicLength=1.0365142311608952 rxn_smarts="[O:1]([C@@:2]1([H:8])[C:3]([H:9])([H:10])[C@@:4]2([H:11])[C:5]([H:12])([H:13])[C@@:6]12[H:14])[H:7]>>[O:1]([C:2][C@@:6]1([H:14])[C@:4]([C:3]([H:8])([H:9])[H:10])([H:11])[C:5]1([H:12])[H:13])[H:7]"
O       -0.70579447       2.11184392       0.05733931
C       -0.58265836       0.99913784       0.80795591
C       -1.17886227      -0.70958100      -0.15250263
C        0.29228724      -1.00498759       0.08033910
C        1.25881239      -0.10309003      -0.60338247
C        0.73797603       0.28914521       0.75461730
H       -0.12765534       2.05914209      -0.72005091
H       -1.73958451      -0.09174222       1.05068922
H       -1.41508671      -0.25376630      -1.11738767
H       -1.76705522      -1.62515164      -0.12192997
H        0.62171040      -1.95705633       0.47336014
H        0.92978950       0.42342275      -1.49584967
H        2.29692644      -0.40642841      -0.63739052
H        1.37919487       0.26911173       1.62419287
