16
Frame=0 idx=006827 GeodesicLength=0.0 rxn_smarts="[C:1]([C@@:2]1([H:11])[C:3]([H:12])([H:13])[C:4]([H:14])([H:15])/[C:5]1=[N:6]\[O:7][H:16])([H:8])([H:9])[H:10]>>[C:1]([C:2]1=[C:5]([N:6]([O:7][H:16])[H:11])[C:4]([H:14])([H:15])[C:3]1([H:12])[H:13])([H:8])([H:9])[H:10]"
C       -1.66608152      -1.12550040       0.15479684
C       -0.57149874      -0.22784190      -0.35450300
C       -0.72929323       1.30896902      -0.47592673
C        0.57920862       1.47879939       0.40310509
C        0.70377735       0.00679332       0.16435418
N        1.57296549      -0.88668406      -0.27540551
O        2.69936164      -1.10503749       0.53000323
H       -2.37694329      -1.37485428      -0.63511014
H       -2.22942040      -0.64081579       0.96127150
H       -1.25874914      -2.06294213       0.53861886
H        0.42650989      -1.30327376      -0.86476681
H       -0.60069020       1.70960946      -1.48191594
H       -1.63697884       1.72338799      -0.03053543
H        0.32403862       1.74708286       1.42779309
H        1.38370590       2.11553206       0.03530632
H        3.38008791      -1.36322424      -0.09708551
16
Frame=1 idx=006827 GeodesicLength=0.04664794304130463 rxn_smarts="[C:1]([C@@:2]1([H:11])[C:3]([H:12])([H:13])[C:4]([H:14])([H:15])/[C:5]1=[N:6]\[O:7][H:16])([H:8])([H:9])[H:10]>>[C:1]([C:2]1=[C:5]([N:6]([O:7][H:16])[H:11])[C:4]([H:14])([H:15])[C:3]1([H:12])[H:13])([H:8])([H:9])[H:10]"
C       -1.67231594      -1.12850913       0.14508822
C       -0.57379357      -0.22894670      -0.35224421
C       -0.73298347       1.30730562      -0.46774494
C        0.58405516       1.47802362       0.39408863
C        0.69863655       0.00127114       0.18064417
N        1.57045330      -0.89730255      -0.24640741
O        2.72482542      -1.04296259       0.53458174
H       -2.39089384      -1.35308205      -0.64543731
H       -2.22567457      -0.65955960       0.96734922
H       -1.27102930      -2.07829231       0.50406935
H        0.42826486      -1.30124767      -0.87522332
H       -0.62202657       1.70902243      -1.47545052
H       -1.63318210       1.72160978      -0.00726404
H        0.35259575       1.76197256       1.42022691
H        1.38702985       2.10289894       0.00310252
H        3.37603847      -1.39220150      -0.07937900
16
Frame=2 idx=006827 GeodesicLength=0.09299048515704741 rxn_smarts="[C:1]([C@@:2]1([H:11])[C:3]([H:12])([H:13])[C:4]([H:14])([H:15])/[C:5]1=[N:6]\[O:7][H:16])([H:8])([H:9])[H:10]>>[C:1]([C:2]1=[C:5]([N:6]([O:7][H:16])[H:11])[C:4]([H:14])([H:15])[C:3]1([H:12])[H:13])([H:8])([H:9])[H:10]"
C       -1.67946474      -1.13126163       0.13521597
C       -0.57587315      -0.23051168      -0.34842766
C       -0.73546745       1.30510134      -0.45959179
C        0.58899515       1.47629057       0.38632615
C        0.69298854      -0.00501920       0.19993783
N        1.56653209      -0.90969313      -0.21310416
O        2.75306994      -0.97780975       0.52805614
H       -2.40373091      -1.33167494      -0.65669486
H       -2.22462884      -0.67769709       0.97110658
H       -1.28516410      -2.09244551       0.47067055
H        0.43030013      -1.29989463      -0.88271565
H       -0.64075031       1.70703409      -1.46887604
H       -1.62833012       1.71992488       0.01436956
H        0.38049874       1.77703259       1.41256958
H        1.39040207       2.08848834      -0.02748488
H        3.37062296      -1.41786428      -0.06135731
16
Frame=3 idx=006827 GeodesicLength=0.1388505319832502 rxn_smarts="[C:1]([C@@:2]1([H:11])[C:3]([H:12])([H:13])[C:4]([H:14])([H:15])/[C:5]1=[N:6]\[O:7][H:16])([H:8])([H:9])[H:10]>>[C:1]([C:2]1=[C:5]([N:6]([O:7][H:16])[H:11])[C:4]([H:14])([H:15])[C:3]1([H:12])[H:13])([H:8])([H:9])[H:10]"
C       -1.68668170      -1.13379000       0.12542764
C       -0.57792826      -0.23215916      -0.34450740
C       -0.73764330       1.30289018      -0.45135989
C        0.59417871       1.47390508       0.37878794
C        0.68721043      -0.01153313       0.21972426
N        1.56184551      -0.92319248      -0.17847461
O        2.77936740      -0.91518056       0.51332548
H       -2.41596126      -1.31072755      -0.66763218
H       -2.22433347      -0.69556247       0.97399425
H       -1.29932570      -2.10543214       0.43802343
H        0.43275362      -1.29849128      -0.88981472
H       -0.65902317       1.70512332      -1.46196127
H       -1.62300007       1.71837032       0.03593927
H        0.40882911       1.79155383       1.40443033
H        1.39375499       2.07281558      -0.05762112
H        3.36595716      -1.43858954      -0.03828140
16
Frame=4 idx=006827 GeodesicLength=0.18341685536263774 rxn_smarts="[C:1]([C@@:2]1([H:11])[C:3]([H:12])([H:13])[C:4]([H:14])([H:15])/[C:5]1=[N:6]\[O:7][H:16])([H:8])([H:9])[H:10]>>[C:1]([C:2]1=[C:5]([N:6]([O:7][H:16])[H:11])[C:4]([H:14])([H:15])[C:3]1([H:12])[H:13])([H:8])([H:9])[H:10]"
C       -1.69141201      -1.13674437       0.11614523
C       -0.57963752      -0.23281678      -0.34211070
C       -0.74102901       1.30166750      -0.44237837
C        0.59901593       1.47240515       0.37017980
C        0.68230600      -0.01627545       0.23605815
N        1.55823005      -0.93332855      -0.14981689
O        2.80075628      -0.85600670       0.49054419
H       -2.42621074      -1.29191473      -0.67645351
H       -2.22133270      -0.71467433       0.97733128
H       -1.30913854      -2.11732888       0.40607762
H        0.43604258      -1.29441934      -0.90042189
H       -0.68031209       1.70580081      -1.45345919
H       -1.61825421       1.71627266       0.06000657
H        0.43814996       1.80506178       1.39517806
H        1.39531030       2.05892550      -0.08866491
H        3.35751572      -1.46662427       0.00178458
16
Frame=5 idx=006827 GeodesicLength=0.22735157621167995 rxn_smarts="[C:1]([C@@:2]1([H:11])[C:3]([H:12])([H:13])[C:4]([H:14])([H:15])/[C:5]1=[N:6]\[O:7][H:16])([H:8])([H:9])[H:10]>>[C:1]([C:2]1=[C:5]([N:6]([O:7][H:16])[H:11])[C:4]([H:14])([H:15])[C:3]1([H:12])[H:13])([H:8])([H:9])[H:10]"
C       -1.69656347      -1.13918215       0.10726240
C       -0.58140824      -0.23374193      -0.33971513
C       -0.74359954       1.30028826      -0.43370326
C        0.60402639       1.46973414       0.36238681
C        0.67736915      -0.02174654       0.25252777
N        1.55407542      -0.94444381      -0.12140647
O        2.81965323      -0.80147228       0.45968342
H       -2.43606876      -1.27381388      -0.68485777
H       -2.21955531      -0.73239255       0.97969525
H       -1.31957535      -2.12774806       0.37620434
H        0.43900862      -1.29126429      -0.91028202
H       -0.69980603       1.70631111      -1.44494097
H       -1.61270066       1.71445658       0.08294261
H        0.46707657       1.81685770       1.38611512
H        1.39701334       2.04366968      -0.11779029
H        3.35105463      -1.48551197       0.04587821
16
Frame=6 idx=006827 GeodesicLength=0.27051892008306166 rxn_smarts="[C:1]([C@@:2]1([H:11])[C:3]([H:12])([H:13])[C:4]([H:14])([H:15])/[C:5]1=[N:6]\[O:7][H:16])([H:8])([H:9])[H:10]>>[C:1]([C:2]1=[C:5]([N:6]([O:7][H:16])[H:11])[C:4]([H:14])([H:15])[C:3]1([H:12])[H:13])([H:8])([H:9])[H:10]"
C       -1.70139639      -1.14153404       0.09855385
C       -0.58295502      -0.23460096      -0.33705677
C       -0.74572247       1.29895649      -0.42491358
C        0.60919927       1.46666321       0.35488029
C        0.67254242      -0.02716065       0.26925345
N        1.54960929      -0.95539831      -0.09317155
O        2.83582548      -0.75187630       0.42049957
H       -2.44509594      -1.25611060      -0.69286852
H       -2.21784960      -0.75015864       0.98154140
H       -1.32960938      -2.13742024       0.34677545
H        0.44218787      -1.28791759      -0.91967055
H       -0.71862983       1.70688672      -1.43598885
H       -1.60657369       1.71257533       0.10568000
H        0.49616418       1.82807390       1.37659436
H        1.39850084       2.02777368      -0.14622698
H        3.34380297      -1.49875200       0.09611841
16
Frame=7 idx=006827 GeodesicLength=0.3132517665886851 rxn_smarts="[C:1]([C@@:2]1([H:11])[C:3]([H:12])([H:13])[C:4]([H:14])([H:15])/[C:5]1=[N:6]\[O:7][H:16])([H:8])([H:9])[H:10]>>[C:1]([C:2]1=[C:5]([N:6]([O:7][H:16])[H:11])[C:4]([H:14])([H:15])[C:3]1([H:12])[H:13])([H:8])([H:9])[H:10]"
C       -1.70615248      -1.14361372       0.09019735
C       -0.58454489      -0.23550322      -0.33476656
C       -0.74742603       1.29769335      -0.41612023
C        0.61471611       1.46277598       0.34752628
C        0.66791600      -0.03295805       0.28515384
N        1.54520906      -0.96622730      -0.06719260
O        2.84793920      -0.70906315       0.37642764
H       -2.45393129      -1.23883709      -0.70006173
H       -2.21617761      -0.76734447       0.98314135
H       -1.33949144      -2.14615904       0.31835799
H        0.44494310      -1.28498225      -0.92941629
H       -0.73687140       1.70787748      -1.42662284
H       -1.59976763       1.71079079       0.12838185
H        0.52573243       1.83769700       1.36679684
H        1.40006823       2.01096639      -0.17383674
H        3.33783864      -1.50311271       0.15203387
16
Frame=8 idx=006827 GeodesicLength=0.35591259575184225 rxn_smarts="[C:1]([C@@:2]1([H:11])[C:3]([H:12])([H:13])[C:4]([H:14])([H:15])/[C:5]1=[N:6]\[O:7][H:16])([H:8])([H:9])[H:10]>>[C:1]([C:2]1=[C:5]([N:6]([O:7][H:16])[H:11])[C:4]([H:14])([H:15])[C:3]1([H:12])[H:13])([H:8])([H:9])[H:10]"
C       -1.71151594      -1.14501707       0.08233685
C       -0.58624701      -0.23686185      -0.33285779
C       -0.74803118       1.29610358      -0.40793786
C        0.62051319       1.45732762       0.34098555
C        0.66320107      -0.03989367       0.30059711
N        1.54064126      -0.97786922      -0.04253553
O        2.85547269      -0.67275018       0.33004082
H       -2.46305815      -1.22156861      -0.70649371
H       -2.21532405      -0.78281402       0.98429199
H       -1.35054986      -2.15366735       0.29183195
H        0.44686823      -1.28371844      -0.93845559
H       -0.75271342       1.70869013      -1.41753382
H       -1.59186649       1.70925328       0.14954735
H        0.55486257       1.84466399       1.35742924
H        1.40216119       1.99261265      -0.19916111
H        3.33558591      -1.49449086       0.20791457
16
Frame=9 idx=006827 GeodesicLength=0.3979779121512299 rxn_smarts="[C:1]([C@@:2]1([H:11])[C:3]([H:12])([H:13])[C:4]([H:14])([H:15])/[C:5]1=[N:6]\[O:7][H:16])([H:8])([H:9])[H:10]>>[C:1]([C:2]1=[C:5]([N:6]([O:7][H:16])[H:11])[C:4]([H:14])([H:15])[C:3]1([H:12])[H:13])([H:8])([H:9])[H:10]"
C       -1.71603983      -1.14661232       0.07478234
C       -0.58800383      -0.23782945      -0.33153717
C       -0.74885203       1.29494714      -0.39914258
C        0.62686813       1.45168898       0.33353504
C        0.65905271      -0.04663819       0.31412668
N        1.53666807      -0.98813426      -0.02266432
O        2.85954626      -0.64415699       0.28304035
H       -2.47181091      -1.20487196      -0.71167392
H       -2.21311174      -0.79908573       0.98591235
H       -1.36011702      -2.16082951       0.26508751
H        0.44820141      -1.28143611      -0.94994417
H       -0.76991603       1.71063941      -1.40728392
H       -1.58347558       1.70748993       0.17240973
H        0.58574782       1.85062144       1.34683477
H        1.40411847       1.97387965      -0.22558148
H        3.33112410      -1.47967202       0.27209877
16
Frame=10 idx=006827 GeodesicLength=0.4405981186295621 rxn_smarts="[C:1]([C@@:2]1([H:11])[C:3]([H:12])([H:13])[C:4]([H:14])([H:15])/[C:5]1=[N:6]\[O:7][H:16])([H:8])([H:9])[H:10]>>[C:1]([C:2]1=[C:5]([N:6]([O:7][H:16])[H:11])[C:4]([H:14])([H:15])[C:3]1([H:12])[H:13])([H:8])([H:9])[H:10]"
C       -1.72171860      -1.14729958       0.06760860
C       -0.58977175      -0.23956859      -0.33017392
C       -0.74804990       1.29311835      -0.39143798
C        0.63332967       1.44421419       0.32772317
C        0.65452717      -0.05486821       0.32835467
N        1.53228229      -1.00007658      -0.00159710
O        2.85984295      -0.62042313       0.23561924
H       -2.48082143      -1.18791583      -0.71684173
H       -2.21281181      -0.81286585       0.98655845
H       -1.37192460      -2.16668171       0.24074157
H        0.44884475      -1.28177214      -0.95917470
H       -0.78313417       1.71163148      -1.39804505
H       -1.57393426       1.70608129       0.19228448
H        0.61513199       1.85381186       1.33749076
H        1.40689280       1.95335437      -0.24839897
H        3.33131489      -1.45073992       0.32928852
16
Frame=11 idx=006827 GeodesicLength=0.48330866903040337 rxn_smarts="[C:1]([C@@:2]1([H:11])[C:3]([H:12])([H:13])[C:4]([H:14])([H:15])/[C:5]1=[N:6]\[O:7][H:16])([H:8])([H:9])[H:10]>>[C:1]([C:2]1=[C:5]([N:6]([O:7][H:16])[H:11])[C:4]([H:14])([H:15])[C:3]1([H:12])[H:13])([H:8])([H:9])[H:10]"
C       -1.72699739      -1.14807968       0.06053175
C       -0.59161940      -0.24115446      -0.32931464
C       -0.74723314       1.29149825      -0.38321136
C        0.64049115       1.43625036       0.32101778
C        0.65033279      -0.06328582       0.34120320
N        1.52818040      -1.01158813       0.01630183
O        2.85742889      -0.60311536       0.19072436
H       -2.48991513      -1.17089750      -0.72102965
H       -2.21149640      -0.82737340       0.98755152
H       -1.38312299      -2.17232774       0.21573355
H        0.44891887      -1.28164111      -0.97017589
H       -0.79730390       1.71346002      -1.38776923
H       -1.56362762       1.70443909       0.21363982
H        0.64645239       1.85595373       1.32683699
H        1.40984002       1.93183290      -0.27242446
H        3.32967144      -1.41397117       0.39038444
16
Frame=12 idx=006827 GeodesicLength=0.5261724851171911 rxn_smarts="[C:1]([C@@:2]1([H:11])[C:3]([H:12])([H:13])[C:4]([H:14])([H:15])/[C:5]1=[N:6]\[O:7][H:16])([H:8])([H:9])[H:10]>>[C:1]([C:2]1=[C:5]([N:6]([O:7][H:16])[H:11])[C:4]([H:14])([H:15])[C:3]1([H:12])[H:13])([H:8])([H:9])[H:10]"
C       -1.73212324      -1.14879118       0.05363828
C       -0.59349529      -0.24274915      -0.32882735
C       -0.74613764       1.28991412      -0.37493487
C        0.64806984       1.42772335       0.31389536
C        0.64626571      -0.07197986       0.35327461
N        1.52427721      -1.02293210       0.03230484
O        2.85285820      -0.59106855       0.15105787
H       -2.49906457      -1.15388097      -0.72439899
H       -2.20971224      -0.84200852       0.98864104
H       -1.39416313      -2.17756853       0.19072228
H        0.44863405      -1.28146901      -0.98206159
H       -0.81137928       1.71567879      -1.37703965
H       -1.55263589       1.70265850       0.23528244
H        0.67867531       1.85699317       1.31529127
H        1.41301721       1.90926607      -0.29667071
H        3.32691377      -1.36978612       0.44982516
16
Frame=13 idx=006827 GeodesicLength=0.5697920985876765 rxn_smarts="[C:1]([C@@:2]1([H:11])[C:3]([H:12])([H:13])[C:4]([H:14])([H:15])/[C:5]1=[N:6]\[O:7][H:16])([H:8])([H:9])[H:10]>>[C:1]([C:2]1=[C:5]([N:6]([O:7][H:16])[H:11])[C:4]([H:14])([H:15])[C:3]1([H:12])[H:13])([H:8])([H:9])[H:10]"
C       -1.73777586      -1.14906752       0.04668933
C       -0.59517717      -0.24476394      -0.32806636
C       -0.74410957       1.28794447      -0.36718041
C        0.65573036       1.41831980       0.30769735
C        0.64187530      -0.08123858       0.36638386
N        1.52014715      -1.03510921       0.05041230
O        2.84612611      -0.58228567       0.11382863
H       -2.50797237      -1.13659725      -0.72814903
H       -2.20915822      -0.85561110       0.98881170
H       -1.40638893      -2.18211082       0.16652071
H        0.44848845      -1.28279113      -0.99193673
H       -0.82325042       1.71728225      -1.36677801
H       -1.54097535       1.70097985       0.25529723
H        0.71027052       1.85688589       1.30411053
H        1.41658693       1.88545627      -0.31907167
H        3.32558307      -1.31729331       0.50143056
16
Frame=14 idx=006827 GeodesicLength=0.6142045899961739 rxn_smarts="[C:1]([C@@:2]1([H:11])[C:3]([H:12])([H:13])[C:4]([H:14])([H:15])/[C:5]1=[N:6]\[O:7][H:16])([H:8])([H:9])[H:10]>>[C:1]([C:2]1=[C:5]([N:6]([O:7][H:16])[H:11])[C:4]([H:14])([H:15])[C:3]1([H:12])[H:13])([H:8])([H:9])[H:10]"
C       -1.74366626      -1.14905844       0.03980708
C       -0.59673378      -0.24705552      -0.32733184
C       -0.74138349       1.28574252      -0.35972388
C        0.66360278       1.40811872       0.30203132
C        0.63741276      -0.09100040       0.37965940
N        1.51602415      -1.04777885       0.06887247
O        2.83779358      -0.57681643       0.07873858
H       -2.51675777      -1.11916865      -0.73178484
H       -2.20914136      -0.86859409       0.98852639
H       -1.41923245      -2.18609567       0.14289206
H        0.44822695      -1.28505659      -1.00111740
H       -0.83364239       1.71873185      -1.35664868
H       -1.52868029       1.69928744       0.27441715
H        0.74175035       1.85536815       1.29307943
H        1.42047043       1.86068420      -0.34020054
H        3.32395680      -1.25730823       0.54878329
16
Frame=15 idx=006827 GeodesicLength=0.658995402899067 rxn_smarts="[C:1]([C@@:2]1([H:11])[C:3]([H:12])([H:13])[C:4]([H:14])([H:15])/[C:5]1=[N:6]\[O:7][H:16])([H:8])([H:9])[H:10]>>[C:1]([C:2]1=[C:5]([N:6]([O:7][H:16])[H:11])[C:4]([H:14])([H:15])[C:3]1([H:12])[H:13])([H:8])([H:9])[H:10]"
C       -1.74892468      -1.14920231       0.03313387
C       -0.59827575      -0.24913935      -0.32720283
C       -0.73877082       1.28373753      -0.35193623
C        0.67190352       1.39773033       0.29526109
C        0.63324271      -0.10065146       0.39160917
N        1.51220140      -1.05989876       0.08470038
O        2.82910082      -0.57477086       0.05026308
H       -2.52561649      -1.10171387      -0.73405545
H       -2.20761697      -0.88253795       0.98883921
H       -1.43114204      -2.18988627       0.11851865
H        0.44783784      -1.28632251      -1.01230174
H       -0.84511498       1.72096150      -1.34562453
H       -1.51579449       1.69720632       0.29473670
H        0.77466991       1.85309349       1.28043644
H        1.42423156       1.83515505      -0.36272081
H        3.31806845      -1.19376087       0.59634300
16
Frame=16 idx=006827 GeodesicLength=0.704599451459297 rxn_smarts="[C:1]([C@@:2]1([H:11])[C:3]([H:12])([H:13])[C:4]([H:14])([H:15])/[C:5]1=[N:6]\[O:7][H:16])([H:8])([H:9])[H:10]>>[C:1]([C:2]1=[C:5]([N:6]([O:7][H:16])[H:11])[C:4]([H:14])([H:15])[C:3]1([H:12])[H:13])([H:8])([H:9])[H:10]"
C       -1.75453316      -1.14897069       0.02624866
C       -0.59941122      -0.25158583      -0.32641727
C       -0.73535373       1.28136445      -0.34478207
C        0.67988576       1.38695138       0.28990340
C        0.62860431      -0.11034719       0.40539423
N        1.50825181      -1.07233358       0.10427106
O        2.81885155      -0.57410106       0.02388780
H       -2.53360677      -1.08425220      -0.73735696
H       -2.20776371      -0.89538320       0.98782151
H       -1.44393634      -2.19302617       0.09507885
H        0.44819788      -1.28916583      -1.02039078
H       -0.85413652       1.72229701      -1.33542823
H       -1.50277023       1.69529899       0.31289962
H        0.80620216       1.85036825       1.26864666
H        1.42807040       1.80898816      -0.38279397
H        3.31344781      -1.12610250       0.63301749
