12
Frame=0 idx=001687 GeodesicLength=0.0 rxn_smarts="[N:1]1([H:7])[C@@:2]2([H:8])[C@:3]3([H:9])[N:4]([H:10])[C@@:5]2([H:11])[C@:6]13[H:12]>>[N+:1]12([H:7])[C@:2]3([H:8])[C-:3]1[C@@:6]2([H:12])[C@:5]3([N:4]([H:9])[H:10])[H:11]"
N        0.58361099      -1.40667674      -0.68036295
C       -0.06117051      -0.11847003      -1.08197955
C       -1.07575211      -0.20188712       0.07887241
N       -0.39911062       1.54314534       0.50991358
C        0.66756847       0.62957837       0.02917543
C        0.27582507      -0.73291008       0.61334342
H       -0.06118361      -2.18289748      -0.83333086
H       -0.22968520       0.17828570      -2.11332208
H       -1.55333447       0.84882344       0.40533961
H       -0.34280501       1.59333102       1.52816479
H        1.69312448       1.00971873      -0.04376581
H        0.50291256      -1.16004111       1.58795200
12
Frame=1 idx=001687 GeodesicLength=0.058171373878867894 rxn_smarts="[N:1]1([H:7])[C@@:2]2([H:8])[C@:3]3([H:9])[N:4]([H:10])[C@@:5]2([H:11])[C@:6]13[H:12]>>[N+:1]12([H:7])[C@:2]3([H:8])[C-:3]1[C@@:6]2([H:12])[C@:5]3([N:4]([H:9])[H:10])[H:11]"
N        0.57805716      -1.40800562      -0.68030684
C       -0.05636600      -0.11627759      -1.08380395
C       -1.07105339      -0.21223116       0.07433645
N       -0.40253238       1.53953142       0.50923144
C        0.66847023       0.63146668       0.03071751
C        0.28072454      -0.73313047       0.61448004
H       -0.07092942      -2.18124785      -0.83236934
H       -0.22429923       0.17976238      -2.11538517
H       -1.56287353       0.84815618       0.41040025
H       -0.33984152       1.60328867       1.52589205
H        1.69339153       1.01185377      -0.04105437
H        0.50725202      -1.16316639       1.58786192
12
Frame=2 idx=001687 GeodesicLength=0.11633679000201264 rxn_smarts="[N:1]1([H:7])[C@@:2]2([H:8])[C@:3]3([H:9])[N:4]([H:10])[C@@:5]2([H:11])[C@:6]13[H:12]>>[N+:1]12([H:7])[C@:2]3([H:8])[C-:3]1[C@@:6]2([H:12])[C@:5]3([N:4]([H:9])[H:10])[H:11]"
N        0.57263810      -1.40927049      -0.68026573
C       -0.05164635      -0.11416529      -1.08558399
C       -1.06635158      -0.22257364       0.06980543
N       -0.40591639       1.53585033       0.50864987
C        0.66931018       0.63328099       0.03228141
C        0.28552347      -0.73344292       0.61558293
H       -0.08034294      -2.17964525      -0.83151558
H       -0.21899610       0.18118772      -2.11739611
H       -1.57254359       0.84779930       0.41557358
H       -0.33677242       1.61345754       1.52347272
H        1.69359734       1.01391660      -0.03832696
H        0.51150027      -1.16639489       1.58772243
12
Frame=3 idx=001687 GeodesicLength=0.174486471319335 rxn_smarts="[N:1]1([H:7])[C@@:2]2([H:8])[C@:3]3([H:9])[N:4]([H:10])[C@@:5]2([H:11])[C@:6]13[H:12]>>[N+:1]12([H:7])[C@:2]3([H:8])[C-:3]1[C@@:6]2([H:12])[C@:5]3([N:4]([H:9])[H:10])[H:11]"
N        0.56736107      -1.41047315      -0.68024231
C       -0.04701204      -0.11213188      -1.08731912
C       -1.06164744      -0.23291790       0.06527986
N       -0.40926208       1.53209993       0.50817587
C        0.67008883       0.63501999       0.03386861
C        0.29022263      -0.73384889       0.61665343
H       -0.08941687      -2.17809662      -0.83077347
H       -0.21378266       0.18256360      -2.11935321
H       -1.58234984       0.84776946       0.42086012
H       -0.33359994       1.62383729       1.52089949
H        1.69374249       1.01590520      -0.03558497
H        0.51565585      -1.16972704       1.58753568
12
Frame=4 idx=001687 GeodesicLength=0.23260805569909665 rxn_smarts="[N:1]1([H:7])[C@@:2]2([H:8])[C@:3]3([H:9])[N:4]([H:10])[C@@:5]2([H:11])[C@:6]13[H:12]>>[N+:1]12([H:7])[C@:2]3([H:8])[C-:3]1[C@@:6]2([H:12])[C@:5]3([N:4]([H:9])[H:10])[H:11]"
N        0.56223243      -1.41161628      -0.68024065
C       -0.04246348      -0.11017572      -1.08900892
C       -1.05694139      -0.24326807       0.06076106
N       -0.41256795       1.52827968       0.50781793
C        0.67080735       0.63668351       0.03548114
C        0.29482348      -0.73435014       0.61769440
H       -0.09814587      -2.17661064      -0.83014756
H       -0.20866622       0.18389260      -2.12125605
H       -1.59229747       0.84808258       0.42625807
H       -0.33032729       1.63442662       1.51816436
H        1.69382827       1.01781956      -0.03282989
H        0.51971814      -1.17316370       1.58730611
12
Frame=5 idx=001687 GeodesicLength=0.2907855783945006 rxn_smarts="[N:1]1([H:7])[C@@:2]2([H:8])[C@:3]3([H:9])[N:4]([H:10])[C@@:5]2([H:11])[C@:6]13[H:12]>>[N+:1]12([H:7])[C@:2]3([H:8])[C-:3]1[C@@:6]2([H:12])[C@:5]3([N:4]([H:9])[H:10])[H:11]"
N        0.55726377      -1.41269728      -0.68025662
C       -0.03800147      -0.10830131      -1.09065325
C       -1.05223352      -0.25363561       0.05624638
N       -0.41583960       1.52437487       0.50758014
C        0.67146196       0.63826414       0.03711839
C        0.29932857      -0.73495106       0.61870088
H       -0.10650933      -2.17518426      -0.82963815
H       -0.20365470       0.18517106      -2.12309921
H       -1.60239897       0.84879445       0.43177224
H       -0.32695372       1.64521917       1.51526487
H        1.69384956       1.01965279      -0.03006342
H        0.52368745      -1.17670696       1.58702776
12
Frame=6 idx=001687 GeodesicLength=0.3488894144009664 rxn_smarts="[N:1]1([H:7])[C@@:2]2([H:8])[C@:3]3([H:9])[N:4]([H:10])[C@@:5]2([H:11])[C@:6]13[H:12]>>[N+:1]12([H:7])[C@:2]3([H:8])[C-:3]1[C@@:6]2([H:12])[C@:5]3([N:4]([H:9])[H:10])[H:11]"
N        0.55245312      -1.41372647      -0.68029984
C       -0.03362455      -0.10650029      -1.09225155
C       -1.04752381      -0.26401785       0.05173751
N       -0.41907520       1.52039363       0.50746761
C        0.67205720       0.63976641       0.03878512
C        0.30373801      -0.73565057       0.61968034
H       -0.11452596      -2.17383234      -0.82925544
H       -0.19874044       0.18641355      -2.12488529
H       -1.61265317       0.84986509       0.43741525
H       -0.32348428       1.65623670       1.51217782
H        1.69381259       1.02140741      -0.02728144
H        0.52756648      -1.18035528       1.58670992
12
Frame=7 idx=001687 GeodesicLength=0.40704878879113965 rxn_smarts="[N:1]1([H:7])[C@@:2]2([H:8])[C@:3]3([H:9])[N:4]([H:10])[C@@:5]2([H:11])[C@:6]13[H:12]>>[N+:1]12([H:7])[C@:2]3([H:8])[C-:3]1[C@@:6]2([H:12])[C@:5]3([N:4]([H:9])[H:10])[H:11]"
N        0.54781311      -1.41470180      -0.68036896
C       -0.02933630      -0.10477737      -1.09380379
C       -1.04281284      -0.27443417       0.04723631
N       -0.42228301       1.51632221       0.50749254
C        0.67258723       0.64118573       0.04048241
C        0.30805713      -0.73645590       0.62063081
H       -0.12217104      -2.17255894      -0.82899564
H       -0.19393706       0.18761467      -2.12661247
H       -1.62307551       0.85138029       0.44317153
H       -0.31991368       1.66745786       1.50890289
H        1.69370989       1.02308557      -0.02448496
H        0.53136207      -1.18411814       1.58634935
12
Frame=8 idx=001687 GeodesicLength=0.4651419880018117 rxn_smarts="[N:1]1([H:7])[C@@:2]2([H:8])[C@:3]3([H:9])[N:4]([H:10])[C@@:5]2([H:11])[C@:6]13[H:12]>>[N+:1]12([H:7])[C@:2]3([H:8])[C-:3]1[C@@:6]2([H:12])[C@:5]3([N:4]([H:9])[H:10])[H:11]"
N        0.54333974      -1.41563054      -0.68047258
C       -0.02513163      -0.10312755      -1.09530521
C       -1.03809591      -0.28487839       0.04274096
N       -0.42545834       1.51216255       0.50765411
C        0.67305731       0.64252102       0.04221451
C        0.31228705      -0.73736456       0.62155538
H       -0.12946219      -2.17136731      -0.82887140
H       -0.18923206       0.18878385      -2.12827388
H       -1.63366577       0.85329612       0.44907179
H       -0.31625595       1.67891634       1.50541148
H        1.69354436       1.02468275      -0.02167072
H        0.53507339      -1.18799428       1.58594556
12
Frame=9 idx=001687 GeodesicLength=0.5232789606214943 rxn_smarts="[N:1]1([H:7])[C@@:2]2([H:8])[C@:3]3([H:9])[N:4]([H:10])[C@@:5]2([H:11])[C@:6]13[H:12]>>[N+:1]12([H:7])[C@:2]3([H:8])[C-:3]1[C@@:6]2([H:12])[C@:5]3([N:4]([H:9])[H:10])[H:11]"
N        0.53904801      -1.41651244      -0.68060705
C       -0.02101540      -0.10155412      -1.09675993
C       -1.03337629      -0.29537156       0.03825165
N       -0.42861409       1.50789982       0.50796559
C        0.67346001       0.64376931       0.04398184
C        0.31643140      -0.73838454       0.62245168
H       -0.13637444      -2.17026502      -0.82887842
H       -0.18463975       0.18991848      -2.12987351
H       -1.64443679       0.85569853       0.45510108
H       -0.31250034       1.69059064       1.50170572
H        1.69330984       1.02620214      -0.01883708
H        0.53870785      -1.19199125       1.58549843
12
Frame=10 idx=001687 GeodesicLength=0.5814103359054583 rxn_smarts="[N:1]1([H:7])[C@@:2]2([H:8])[C@:3]3([H:9])[N:4]([H:10])[C@@:5]2([H:11])[C@:6]13[H:12]>>[N+:1]12([H:7])[C@:2]3([H:8])[C-:3]1[C@@:6]2([H:12])[C@:5]3([N:4]([H:9])[H:10])[H:11]"
N        0.53493784      -1.41735283      -0.68077866
C       -0.01698513      -0.10005369      -1.09816509
C       -1.02864985      -0.30591698       0.03376856
N       -0.43174943       1.50353123       0.50843157
C        0.67379844       0.64492882       0.04578845
C        0.32049436      -0.73951768       0.62332289
H       -0.14291670      -2.16925479      -0.82902565
H       -0.18015754       0.19102645      -2.13140737
H       -1.65539798       0.85857862       0.46127560
H       -0.30865545       1.70250533       1.49775702
H        1.69300906       1.02764032      -0.01597502
H        0.54227237      -1.19611481       1.58500770
12
Frame=11 idx=001687 GeodesicLength=0.6395197795386096 rxn_smarts="[N:1]1([H:7])[C@@:2]2([H:8])[C@:3]3([H:9])[N:4]([H:10])[C@@:5]2([H:11])[C@:6]13[H:12]>>[N+:1]12([H:7])[C@:2]3([H:8])[C-:3]1[C@@:6]2([H:12])[C@:5]3([N:4]([H:9])[H:10])[H:11]"
N        0.53101251      -1.41815646      -0.68099143
C       -0.01304047      -0.09862503      -1.09951954
C       -1.02391589      -0.31652321       0.02929046
N       -0.43487195       1.49904924       0.50905615
C        0.67407029       0.64599742       0.04763879
C        0.32447831      -0.74076805       0.62416919
H       -0.14908975      -2.16834121      -0.82932085
H       -0.17577872       0.19211268      -2.13287405
H       -1.66655344       0.86194962       0.46761603
H       -0.30472187       1.71467865       1.49354069
H        1.69263920       1.02899725      -0.01307714
H        0.54577178      -1.20037088       1.58447170
12
Frame=12 idx=001687 GeodesicLength=0.6976215953059229 rxn_smarts="[N:1]1([H:7])[C@@:2]2([H:8])[C@:3]3([H:9])[N:4]([H:10])[C@@:5]2([H:11])[C@:6]13[H:12]>>[N+:1]12([H:7])[C@:2]3([H:8])[C-:3]1[C@@:6]2([H:12])[C@:5]3([N:4]([H:9])[H:10])[H:11]"
N        0.52727623      -1.41892755      -0.68124894
C       -0.00918246      -0.09726768      -1.10082212
C       -1.01917387      -0.32720301       0.02481763
N       -0.43798986       1.49444304       0.50984806
C        0.67427272       0.64697170       0.04953774
C        0.32838665      -0.74214193       0.62499117
H       -0.15489154      -2.16752893      -0.82977123
H       -0.17149972       0.19318141      -2.13427296
H       -1.67791477       0.86584073       0.47413387
H       -0.30069816       1.72712667       1.48903188
H        1.69219685       1.03027362      -0.01013358
H        0.54921793      -1.20476806       1.58388848
12
Frame=13 idx=001687 GeodesicLength=0.7557215156215858 rxn_smarts="[N:1]1([H:7])[C@@:2]2([H:8])[C@:3]3([H:9])[N:4]([H:10])[C@@:5]2([H:11])[C@:6]13[H:12]>>[N+:1]12([H:7])[C@:2]3([H:8])[C-:3]1[C@@:6]2([H:12])[C@:5]3([N:4]([H:9])[H:10])[H:11]"
N        0.52373413      -1.41967026      -0.68155638
C       -0.00541101      -0.09598169      -1.10206950
C       -1.01442022      -0.33796785       0.02034896
N       -0.44111042       1.48970153       0.51081490
C        0.67440197       0.64784637       0.05149107
C        0.33222245      -0.74364648       0.62578766
H       -0.16031634      -2.16682188      -0.83038632
H       -0.16731781       0.19423845      -2.13559713
H       -1.68948711       0.87027965       0.48085101
H       -0.29658911       1.73987120       1.48419740
H        1.69167593       1.03146471      -0.00713488
H        0.55261755      -1.20931374       1.58325321
12
Frame=14 idx=001687 GeodesicLength=0.8138268384628078 rxn_smarts="[N:1]1([H:7])[C@@:2]2([H:8])[C@:3]3([H:9])[N:4]([H:10])[C@@:5]2([H:11])[C@:6]13[H:12]>>[N+:1]12([H:7])[C@:2]3([H:8])[C-:3]1[C@@:6]2([H:12])[C@:5]3([N:4]([H:9])[H:10])[H:11]"
N        0.52039179      -1.42038909      -0.68191824
C       -0.00172854      -0.09476591      -1.10326428
C       -1.00965461      -0.34883157       0.01588640
N       -0.44423397       1.48481724       0.51197822
C        0.67445874       0.64862295       0.05350278
C        0.33599045      -0.74528735       0.62656355
H       -0.16535836      -2.16623405      -0.83116516
H       -0.16323935       0.19529022      -2.13685294
H       -1.70128040       0.87530893       0.48775372
H       -0.29239915       1.75290495       1.47903043
H        1.69107718       1.03258133      -0.00408856
H        0.55597622      -1.21401765       1.58257409
12
Frame=15 idx=001687 GeodesicLength=0.8719209652720996 rxn_smarts="[N:1]1([H:7])[C@@:2]2([H:8])[C@:3]3([H:9])[N:4]([H:10])[C@@:5]2([H:11])[C@:6]13[H:12]>>[N+:1]12([H:7])[C@:2]3([H:8])[C-:3]1[C@@:6]2([H:12])[C@:5]3([N:4]([H:9])[H:10])[H:11]"
N        0.51725833      -1.42107983      -0.68233405
C        0.00186622      -0.09361925      -1.10439331
C       -1.00487166      -0.35979872       0.01142812
N       -0.44737252       1.47976664       0.51334451
C        0.67443677       0.64928715       0.05557889
C        0.33969472      -0.74706847       0.62731170
H       -0.17000567      -2.16575137      -0.83211134
H       -0.15926343       0.19634282      -2.13801434
H       -1.71330061       0.88095808       0.49486834
H       -0.28813322       1.76624806       1.47347428
H        1.69039016       1.03360310      -0.00098217
H        0.55930092      -1.21888821       1.58182938
12
Frame=16 idx=001687 GeodesicLength=0.9300224360091282 rxn_smarts="[N:1]1([H:7])[C@@:2]2([H:8])[C@:3]3([H:9])[N:4]([H:10])[C@@:5]2([H:11])[C@:6]13[H:12]>>[N+:1]12([H:7])[C@:2]3([H:8])[C-:3]1[C@@:6]2([H:12])[C@:5]3([N:4]([H:9])[H:10])[H:11]"
N        0.51433793      -1.42175344      -0.68281330
C        0.00537099      -0.09254170      -1.10546312
C       -1.00007028      -0.37089052       0.00697665
N       -0.45052697       1.47454558       0.51493590
C        0.67433727       0.64984393       0.05772653
C        0.34334062      -0.74900077       0.62804028
H       -0.17425625      -2.16539700      -0.83323696
H       -0.15539859       0.19740203      -2.13909598
H       -1.72555564       0.88727145       0.50219062
H       -0.28379786       1.77991388       1.46751634
H        1.68961727       1.03454797       0.00218917
H        0.56260151      -1.22394140       1.58103388
