18
Frame=0 idx=004105 GeodesicLength=0.0 rxn_smarts="[C:1]([C:2]([O:3][C:4]([C:5]([H:13])([H:14])[H:15])([C:6]([H:16])([H:17])[H:18])[H:12])([H:10])[H:11])([H:7])([H:8])[H:9]>>[C:1]([C:2]([O:3][C:4]([C:5]([H:12])([H:13])[H:15])=[C:6]([H:16])[H:18])([H:10])[H:11])([H:7])([H:8])[H:9].[H:14][H:17]"
C        2.78183148       0.00823366       0.05377990
C        1.38827909       0.43815266       0.44743296
O        0.46760508      -0.31473528      -0.32376322
C       -0.84625239       0.09411738      -0.30549349
C       -1.65290857      -0.64726810      -1.26044618
C       -1.47076851       0.52952819       0.87832221
H        2.96490812       0.20958744      -1.00241969
H        2.91547721      -1.06001712       0.22852994
H        3.52214850       0.55026589       0.64445221
H        1.22025525       0.25433778       1.51398697
H        1.23918681       1.50893375       0.26240269
H       -1.07130890       0.82805509      -1.23037962
H       -2.67786710      -0.32772896      -1.39512437
H       -2.18471785      -1.63216202       0.19569266
H       -1.15281904      -1.11359439      -2.10187013
H       -0.88777477       0.89538862       1.71196641
H       -2.08808898      -1.16405583       0.89663799
H       -2.46718542       0.94296118       0.78629273
18
Frame=1 idx=004105 GeodesicLength=0.07458699352893895 rxn_smarts="[C:1]([C:2]([O:3][C:4]([C:5]([H:13])([H:14])[H:15])([C:6]([H:16])([H:17])[H:18])[H:12])([H:10])[H:11])([H:7])([H:8])[H:9]>>[C:1]([C:2]([O:3][C:4]([C:5]([H:12])([H:13])[H:15])=[C:6]([H:16])[H:18])([H:10])[H:11])([H:7])([H:8])[H:9].[H:14][H:17]"
C        2.78363460       0.01030456       0.05368601
C        1.38994728       0.44005008       0.44723641
O        0.46908163      -0.31216759      -0.32354907
C       -0.84428806       0.09899358      -0.30451682
C       -1.65397048      -0.64373254      -1.26068661
C       -1.47059225       0.51921534       0.88538296
H        2.96650315       0.21184606      -1.00250869
H        2.91747515      -1.05796597       0.22820690
H        3.52398786       0.55217322       0.64447329
H        1.22177378       0.25529036       1.51373844
H        1.24145892       1.51127018       0.26382336
H       -1.07276769       0.82368346      -1.25144641
H       -2.67783458      -0.32026387      -1.39710063
H       -2.19606966      -1.63358778       0.18447632
H       -1.15261503      -1.12684052      -2.09184382
H       -0.88659329       0.88799089       1.71725504
H       -2.09685055      -1.16064732       0.90163133
H       -2.46228077       0.94438785       0.79174197
18
Frame=2 idx=004105 GeodesicLength=0.14903553366113356 rxn_smarts="[C:1]([C:2]([O:3][C:4]([C:5]([H:13])([H:14])[H:15])([C:6]([H:16])([H:17])[H:18])[H:12])([H:10])[H:11])([H:7])([H:8])[H:9]>>[C:1]([C:2]([O:3][C:4]([C:5]([H:12])([H:13])[H:15])=[C:6]([H:16])[H:18])([H:10])[H:11])([H:7])([H:8])[H:9].[H:14][H:17]"
C        2.78536526       0.01235055       0.05361550
C        1.39157054       0.44200545       0.44706835
O        0.47046656      -0.30944350      -0.32334475
C       -0.84239566       0.10418253      -0.30362157
C       -1.65503458      -0.64014349      -1.26091567
C       -1.47039603       0.50891802       0.89234045
H        2.96805032       0.21411274      -1.00256370
H        2.91932363      -1.05595675       0.22786230
H        3.52578786       0.55397738       0.64454824
H        1.22321630       0.25625875       1.51350522
H        1.24376358       1.51368119       0.26532367
H       -1.07387052       0.81897033      -1.27307391
H       -2.67780190      -0.31276515      -1.39901615
H       -2.20729481      -1.63509670       0.17297291
H       -1.15266228      -1.13995318      -2.08154584
H       -0.88544943       0.88051925       1.72251291
H       -2.10531290      -1.15724019       0.90694873
H       -2.45732594       0.94562277       0.79738330
18
Frame=3 idx=004105 GeodesicLength=0.22340329551195096 rxn_smarts="[C:1]([C:2]([O:3][C:4]([C:5]([H:13])([H:14])[H:15])([C:6]([H:16])([H:17])[H:18])[H:12])([H:10])[H:11])([H:7])([H:8])[H:9]>>[C:1]([C:2]([O:3][C:4]([C:5]([H:12])([H:13])[H:15])=[C:6]([H:16])[H:18])([H:10])[H:11])([H:7])([H:8])[H:9].[H:14][H:17]"
C        2.78702261       0.01437242       0.05356530
C        1.39314921       0.44402106       0.44692815
O        0.47175763      -0.30656846      -0.32314004
C       -0.84057674       0.10967883      -0.30279768
C       -1.65609911      -0.63649939      -1.26113139
C       -1.47017795       0.49863897       0.89919442
H        2.96954360       0.21637850      -1.00259056
H        2.92102442      -1.05398669       0.22750271
H        3.52754939       0.55568624       0.64466500
H        1.22458711       0.25725455       1.51328875
H        1.24609953       1.51616692       0.26689470
H       -1.07459978       0.81387915      -1.29525635
H       -2.67776063      -0.30521385      -1.40087931
H       -2.21841655      -1.63669852       0.16115230
H       -1.15295368      -1.15290530      -2.07098073
H       -0.88434174       0.87297509       1.72774190
H       -2.11347542      -1.15383381       0.91262187
H       -2.45233192       0.94665428       0.80322094
18
Frame=4 idx=004105 GeodesicLength=0.29773671426087506 rxn_smarts="[C:1]([C:2]([O:3][C:4]([C:5]([H:13])([H:14])[H:15])([C:6]([H:16])([H:17])[H:18])[H:12])([H:10])[H:11])([H:7])([H:8])[H:9]>>[C:1]([C:2]([O:3][C:4]([C:5]([H:12])([H:13])[H:15])=[C:6]([H:16])[H:18])([H:10])[H:11])([H:7])([H:8])[H:9].[H:14][H:17]"
C        2.78860640       0.01637181       0.05353232
C        1.39468383       0.44609894       0.44681502
O        0.47295358      -0.30354827      -0.32292576
C       -0.83883246       0.11547462      -0.30203418
C       -1.65716178      -0.63279839      -1.26133243
C       -1.46993589       0.48838058       0.90594419
H        2.97097803       0.21863650      -1.00259475
H        2.92258040      -1.05205227       0.22713357
H        3.52927337       0.55730824       0.64481254
H        1.22589064       0.25828833       1.51309020
H        1.24846524       1.51872733       0.26852798
H       -1.07493726       0.80837300      -1.31798721
H       -2.67770103      -0.29758947      -1.40269996
H       -2.22946383      -1.63840035       0.14898445
H       -1.15348458      -1.16567208      -2.06015295
H       -0.88326851       0.86535960       1.73294348
H       -2.12133629      -1.15042917       0.91868461
H       -2.44730985       0.94747107       0.80925889
18
Frame=5 idx=004105 GeodesicLength=0.37208167563309086 rxn_smarts="[C:1]([C:2]([O:3][C:4]([C:5]([H:13])([H:14])[H:15])([C:6]([H:16])([H:17])[H:18])[H:12])([H:10])[H:11])([H:7])([H:8])[H:9]>>[C:1]([C:2]([O:3][C:4]([C:5]([H:12])([H:13])[H:15])=[C:6]([H:16])[H:18])([H:10])[H:11])([H:7])([H:8])[H:9].[H:14][H:17]"
C        2.79011600       0.01834938       0.05351401
C        1.39617459       0.44824054       0.44672806
O        0.47405297      -0.30038867      -0.32269356
C       -0.83716446       0.12156054      -0.30132000
C       -1.65822217      -0.62904152      -1.26151531
C       -1.46966827       0.47814678       0.91258916
H        2.97234874       0.22087991      -1.00258105
H        2.92399332      -1.05015124       0.22675990
H        3.53096033       0.55884981       0.64498148
H        1.22713044       0.25937000       1.51291064
H        1.25085906       1.52136197       0.27021450
H       -1.07486871       0.80241598      -1.34125360
H       -2.67761476      -0.28987459      -1.40448582
H       -2.24046140      -1.64021043       0.13643653
H       -1.15424687      -1.17822513      -2.04907742
H       -0.88222803       0.85767921       1.73811727
H       -2.12888992      -1.14702448       0.92517601
H       -2.44227085       0.94806194       0.81549921
18
Frame=6 idx=004105 GeodesicLength=0.4464841447500266 rxn_smarts="[C:1]([C:2]([O:3][C:4]([C:5]([H:13])([H:14])[H:15])([C:6]([H:16])([H:17])[H:18])[H:12])([H:10])[H:11])([H:7])([H:8])[H:9]>>[C:1]([C:2]([O:3][C:4]([C:5]([H:12])([H:13])[H:15])=[C:6]([H:16])[H:18])([H:10])[H:11])([H:7])([H:8])[H:9].[H:14][H:17]"
C        2.79155090       0.02030570       0.05350781
C        1.39762196       0.45044773       0.44666613
O        0.47505454      -0.29709396      -0.32243629
C       -0.83557395       0.12792880      -0.30064506
C       -1.65927906      -0.62522529      -1.26167951
C       -1.46937315       0.46794111       0.91912902
H        2.97365184       0.22310200      -1.00255396
H        2.92526442      -1.04828151       0.22638633
H        3.53261088       0.56031666       0.64516294
H        1.22830998       0.26050933       1.51275071
H        1.25328023       1.52407099       0.27194571
H       -1.07438097       0.79596897      -1.36503912
H       -2.67749287      -0.28204808      -1.40624625
H       -2.25143653      -1.64213993       0.12346920
H       -1.15523507      -1.19054042      -2.03776226
H       -0.88121859       0.84994300       1.74326153
H       -2.13612579      -1.14361978       0.93213898
H       -2.43722879       0.94841468       0.82194409
18
Frame=7 idx=004105 GeodesicLength=0.5209454751371492 rxn_smarts="[C:1]([C:2]([O:3][C:4]([C:5]([H:13])([H:14])[H:15])([C:6]([H:16])([H:17])[H:18])[H:12])([H:10])[H:11])([H:7])([H:8])[H:9]>>[C:1]([C:2]([O:3][C:4]([C:5]([H:12])([H:13])[H:15])=[C:6]([H:16])[H:18])([H:10])[H:11])([H:7])([H:8])[H:9].[H:14][H:17]"
C        2.79291197       0.02224256       0.05351118
C        1.39902713       0.45272249       0.44662781
O        0.47595871      -0.29367010      -0.32214653
C       -0.83406114       0.13456757      -0.29999696
C       -1.66033027      -0.62134696      -1.26182430
C       -1.46904757       0.45776431       0.92556507
H        2.97488444       0.22529685      -1.00251822
H        2.92639742      -1.04643969       0.22601821
H        3.53422664       0.56171675       0.64534769
H        1.22943395       0.26171697       1.51261110
H        1.25572726       1.52685425       0.27371171
H       -1.07346607       0.78899019      -1.38932572
H       -2.67732381      -0.27408567      -1.40799289
H       -2.26242556      -1.64418947       0.11004844
H       -1.15644267      -1.20259579      -2.02621921
H       -0.88023730       0.84215871       1.74837635
H       -2.14303626      -1.14022129       0.93961132
H       -2.43219688       0.94851832       0.82859494
18
Frame=8 idx=004105 GeodesicLength=0.5955070068057957 rxn_smarts="[C:1]([C:2]([O:3][C:4]([C:5]([H:13])([H:14])[H:15])([C:6]([H:16])([H:17])[H:18])[H:12])([H:10])[H:11])([H:7])([H:8])[H:9]>>[C:1]([C:2]([O:3][C:4]([C:5]([H:12])([H:13])[H:15])=[C:6]([H:16])[H:18])([H:10])[H:11])([H:7])([H:8])[H:9].[H:14][H:17]"
C        2.79419989       0.02416115       0.05352213
C        1.40039085       0.45506590       0.44661139
O        0.47676593      -0.29012349      -0.32181820
C       -0.83262655       0.14146165      -0.29936234
C       -1.66137555      -0.61740364      -1.26194871
C       -1.46868946       0.44761904       0.93189820
H        2.97604438       0.22745847      -1.00247768
H        2.92739557      -1.04462309       0.22566096
H        3.53580839       0.56305707       0.64552805
H        1.23050604       0.26300253       1.51249208
H        1.25819828       1.52971102       0.27550229
H       -1.07211599       0.78144109      -1.41409113
H       -2.67709806      -0.26596575      -1.40973484
H       -2.27346194      -1.64636776       0.09612989
H       -1.15786318      -1.21436586      -2.01446632
H       -0.87928244       0.83433852       1.75345865
H       -2.14960818      -1.13682893       0.94764451
H       -2.42718797       0.94836209       0.83545108
18
Frame=9 idx=004105 GeodesicLength=0.6702003019658725 rxn_smarts="[C:1]([C:2]([O:3][C:4]([C:5]([H:13])([H:14])[H:15])([C:6]([H:16])([H:17])[H:18])[H:12])([H:10])[H:11])([H:7])([H:8])[H:9]>>[C:1]([C:2]([O:3][C:4]([C:5]([H:12])([H:13])[H:15])=[C:6]([H:16])[H:18])([H:10])[H:11])([H:7])([H:8])[H:9].[H:14][H:17]"
C        2.79541422       0.02606044       0.05353934
C        1.40171359       0.45747875       0.44661508
O        0.47747592      -0.28645919      -0.32144612
C       -0.83127095       0.14859909      -0.29873066
C       -1.66241682      -0.61339357      -1.26204947
C       -1.46829717       0.43751069       0.93813024
H        2.97712896       0.22957920      -1.00243530
H        2.92825938      -1.04283111       0.22532004
H        3.53735626       0.56434094       0.64569786
H        1.23152877       0.26437537       1.51239379
H        1.26069280       1.53264026       0.27730696
H       -1.07033087       0.77329040      -1.43930018
H       -2.67680854      -0.25767360      -1.41147757
H       -2.28457536      -1.64868056       0.08165252
H       -1.15948702      -1.22583078      -2.00252228
H       -0.87835162       0.82650524       1.75850351
H       -2.15581545      -1.13344718       0.95629355
H       -2.42221609       0.94793561       0.84250868
18
Frame=10 idx=004105 GeodesicLength=0.7449833386820153 rxn_smarts="[C:1]([C:2]([O:3][C:4]([C:5]([H:13])([H:14])[H:15])([C:6]([H:16])([H:17])[H:18])[H:12])([H:10])[H:11])([H:7])([H:8])[H:9]>>[C:1]([C:2]([O:3][C:4]([C:5]([H:12])([H:13])[H:15])=[C:6]([H:16])[H:18])([H:10])[H:11])([H:7])([H:8])[H:9].[H:14][H:17]"
C        2.79655730       0.02794306       0.05356134
C        1.40299688       0.45996214       0.44663649
O        0.47809159      -0.28268243      -0.32102811
C       -0.82999334       0.15596243      -0.29808983
C       -1.66345090      -0.60931425      -1.26213000
C       -1.46786818       0.42743907       0.94426041
H        2.97813947       0.23165685      -1.00239371
H        2.92899388      -1.04106022       0.22499905
H        3.53887185       0.56557552       0.64585246
H        1.23250557       0.26584285       1.51231530
H        1.26320928       1.53564151       0.27911677
H       -1.06811140       0.76449943      -1.46492497
H       -2.67644155      -0.24918193      -1.41323702
H       -2.29581093      -1.65112433       0.06658708
H       -1.16131055      -1.23697183      -1.99040277
H       -0.87744371       0.81866864       1.76350654
H       -2.16164163      -1.13008211       0.96560523
H       -2.41729365       0.94722560       0.84976575
18
Frame=11 idx=004105 GeodesicLength=0.8198416465736723 rxn_smarts="[C:1]([C:2]([O:3][C:4]([C:5]([H:13])([H:14])[H:15])([C:6]([H:16])([H:17])[H:18])[H:12])([H:10])[H:11])([H:7])([H:8])[H:9]>>[C:1]([C:2]([O:3][C:4]([C:5]([H:12])([H:13])[H:15])=[C:6]([H:16])[H:18])([H:10])[H:11])([H:7])([H:8])[H:9].[H:14][H:17]"
C        2.79763129       0.02981013       0.05358715
C        1.40424243       0.46251704       0.44667319
O        0.47861585      -0.27879953      -0.32056081
C       -0.82879280       0.16353257      -0.29742560
C       -1.66447660      -0.60516075      -1.26219057
C       -1.46739964       0.41740484       0.95029171
H        2.97907649       0.23368600      -1.00235538
H        2.92960352      -1.03930790       0.22470403
H        3.54035690       0.56676726       0.64598656
H        1.23344033       0.26741450       1.51225616
H        1.26574630       1.53871388       0.28092003
H       -1.06546370       0.75503225      -1.49093168
H       -2.67598559      -0.24046970      -1.41502320
H       -2.30721147      -1.65369494       0.05088167
H       -1.16332773      -1.24777143      -1.97812748
H       -0.87655665       0.81084751       1.76846346
H       -2.16706413      -1.12674334       0.97563317
H       -2.41243478       0.94622160       0.85721758
18
Frame=12 idx=004105 GeodesicLength=0.8947585151808641 rxn_smarts="[C:1]([C:2]([O:3][C:4]([C:5]([H:13])([H:14])[H:15])([C:6]([H:16])([H:17])[H:18])[H:12])([H:10])[H:11])([H:7])([H:8])[H:9]>>[C:1]([C:2]([O:3][C:4]([C:5]([H:12])([H:13])[H:15])=[C:6]([H:16])[H:18])([H:10])[H:11])([H:7])([H:8])[H:9].[H:14][H:17]"
C        2.79863850       0.03166205       0.05361663
C        1.40545183       0.46514397       0.44672227
O        0.47905200      -0.27481645      -0.32004276
C       -0.82766799       0.17129002      -0.29672521
C       -1.66549322      -0.60093036      -1.26223292
C       -1.46688945       0.40740854       0.95622718
H        2.97994203       0.23566028      -1.00232181
H        2.93009225      -1.03757231       0.22444196
H        3.54181267       0.56792167       0.64609647
H        1.23433579       0.26909905       1.51221524
H        1.26830297       1.54185619       0.28270508
H       -1.06239597       0.74485818      -1.51728271
H       -2.67542975      -0.23151417      -1.41684645
H       -2.31882269      -1.65639017       0.03448239
H       -1.16553378      -1.25821023      -1.96571825
H       -0.87568963       0.80306675       1.77336711
H       -2.17204984      -1.12344351       0.98643968
H       -2.40765572       0.94491049       0.86485611
18
Frame=13 idx=004105 GeodesicLength=0.9696952643029805 rxn_smarts="[C:1]([C:2]([O:3][C:4]([C:5]([H:13])([H:14])[H:15])([C:6]([H:16])([H:17])[H:18])[H:12])([H:10])[H:11])([H:7])([H:8])[H:9]>>[C:1]([C:2]([O:3][C:4]([C:5]([H:12])([H:13])[H:15])=[C:6]([H:16])[H:18])([H:10])[H:11])([H:7])([H:8])[H:9].[H:14][H:17]"
C        2.79958144       0.03349975       0.05365010
C        1.40662685       0.46784336       0.44678084
O        0.47940409      -0.27073928      -0.31947332
C       -0.82661692       0.17921474      -0.29597565
C       -1.66650051      -0.59661794      -1.26225903
C       -1.46633524       0.39745032       0.96207026
H        2.98073857       0.23757384      -1.00229406
H        2.93046474      -1.03585102       0.22422047
H        3.54324016       0.56904511       0.64617912
H        1.23519478       0.27090474       1.51219144
H        1.27087817       1.54506706       0.28446045
H       -1.05892385       0.73394506      -1.54393893
H       -2.67476262      -0.22229477      -1.41871765
H       -2.33069212      -1.65919719       0.01733182
H       -1.16792358      -1.26827579      -1.95319508
H       -0.87484180       0.79534852       1.77821157
H       -2.17656310      -1.12019625       0.99808357
H       -2.40296907       0.94327974       0.87267409
18
Frame=14 idx=004105 GeodesicLength=1.044599466623058 rxn_smarts="[C:1]([C:2]([O:3][C:4]([C:5]([H:13])([H:14])[H:15])([C:6]([H:16])([H:17])[H:18])[H:12])([H:10])[H:11])([H:7])([H:8])[H:9]>>[C:1]([C:2]([O:3][C:4]([C:5]([H:12])([H:13])[H:15])=[C:6]([H:16])[H:18])([H:10])[H:11])([H:7])([H:8])[H:9].[H:14][H:17]"
C        2.80046317       0.03532364       0.05368843
C        1.40776932       0.47061546       0.44684549
O        0.47967684      -0.26657349      -0.31885397
C       -0.82563736       0.18728545      -0.29516518
C       -1.66749710      -0.59222008      -1.26227222
C       -1.46573488       0.38753012       0.96782315
H        2.98147026       0.23942105      -1.00227223
H        2.93072545      -1.03414235       0.22404698
H        3.54464082       0.57014268       0.64623324
H        1.23601924       0.27283926       1.51218281
H        1.27347124       1.54834527       0.28617432
H       -1.05506766       0.72226846      -1.57085568
H       -2.67397095      -0.21279020      -1.42065008
H       -2.34287069      -1.66210223      -0.00062556
H       -1.17049264      -1.27795786      -1.94057822
H       -0.87401365       0.78771814       1.78298851
H       -2.18056208      -1.11701701       1.01062832
H       -2.39838932       0.94131372       0.88066191
18
Frame=15 idx=004105 GeodesicLength=1.1194204161088446 rxn_smarts="[C:1]([C:2]([O:3][C:4]([C:5]([H:13])([H:14])[H:15])([C:6]([H:16])([H:17])[H:18])[H:12])([H:10])[H:11])([H:7])([H:8])[H:9]>>[C:1]([C:2]([O:3][C:4]([C:5]([H:12])([H:13])[H:15])=[C:6]([H:16])[H:18])([H:10])[H:11])([H:7])([H:8])[H:9].[H:14][H:17]"
C        2.80128700       0.03713318       0.05373346
C        1.40888149       0.47346107       0.44691273
O        0.47987523      -0.26232230      -0.31818742
C       -0.82472672       0.19548354      -0.29428215
C       -1.66848149      -0.58773106      -1.26227754
C       -1.46508578       0.37764755       0.97349052
H        2.98214272       0.24119558      -1.00225516
H        2.93087765      -1.03244595       0.22392951
H        3.54601648       0.57121714       0.64625949
H        1.23681080       0.27491077       1.51218733
H        1.27608285       1.55169030       0.28783497
H       -1.05085117       0.70979766      -1.59799206
H       -2.67304293      -0.20297848      -1.42265420
H       -2.35541032      -1.66509018      -0.01945012
H       -1.17323849      -1.28724288      -1.92788951
H       -0.87320643       0.78020729       1.78768951
H       -2.18399549      -1.11392920       1.02414330
H       -2.39393539       0.93899597       0.88880733
18
Frame=16 idx=004105 GeodesicLength=1.1941029818742375 rxn_smarts="[C:1]([C:2]([O:3][C:4]([C:5]([H:13])([H:14])[H:15])([C:6]([H:16])([H:17])[H:18])[H:12])([H:10])[H:11])([H:7])([H:8])[H:9]>>[C:1]([C:2]([O:3][C:4]([C:5]([H:12])([H:13])[H:15])=[C:6]([H:16])[H:18])([H:10])[H:11])([H:7])([H:8])[H:9].[H:14][H:17]"
C        2.80205639       0.03892765       0.05378779
C        1.40996543       0.47638078       0.44697862
O        0.48000493      -0.25798986      -0.31747767
C       -0.82388210       0.20378816      -0.29331474
C       -1.66945286      -0.58314537      -1.26227968
C       -1.46438568       0.36780072       0.97907732
H        2.98276233       0.24288960      -1.00224120
H        2.93092490      -1.03076133       0.22387831
H        3.54736844       0.57227213       0.64625906
H        1.23757045       0.27712777       1.51220263
H        1.27871336       1.55510140       0.28942954
H       -1.04630276       0.69651101      -1.62530670
H       -2.67196576      -0.19283891      -1.42474164
H       -2.36836557      -1.66813860      -0.03920600
H       -1.17615877      -1.29612299      -1.91514952
H       -0.87242247       0.77284815       1.79230545
H       -2.18680514      -1.11095759       1.03870047
H       -2.38962513       0.93630729       0.89709796
