15
Frame=0 idx=006430 GeodesicLength=0.0 rxn_smarts="[C:1]([O:2][C:3](=[O:4])[C@@:5]([C:6]([H:12])([H:13])[H:14])([O:7][H:15])[H:11])([H:8])([H:9])[H:10]>>[C:1]([C:6]([C@:5]([C:3]([O:2][H:12])=[O:4])([O:7][H:15])[H:11])([H:13])[H:14])([H:8])([H:9])[H:10]"
C        1.91102716       0.89051032      -0.13124597
O        1.04214018      -0.74225557       1.07719249
C       -0.12440821      -1.17903443       0.93779948
O       -0.60459320      -2.24995508       1.28713563
C       -1.17914947      -0.20346346       0.24812752
C       -0.57846442       0.58177052      -0.86117079
O       -2.24221946      -0.98026576      -0.19892297
H        2.56446247       0.04179901      -0.25380829
H        1.86170361       1.31778581       0.85688178
H        1.88759620       1.60133359      -0.95350420
H       -1.48444911       0.46228536       1.06882311
H        0.56980481       0.51792914      -0.64640046
H       -0.78180104       1.64971070      -0.88403572
H       -0.71493610       0.11102499      -1.83370955
H       -2.12671342      -1.81917514       0.28683790
15
Frame=1 idx=006430 GeodesicLength=0.14197578659316765 rxn_smarts="[C:1]([O:2][C:3](=[O:4])[C@@:5]([C:6]([H:12])([H:13])[H:14])([O:7][H:15])[H:11])([H:8])([H:9])[H:10]>>[C:1]([C:6]([C@:5]([C:3]([O:2][H:12])=[O:4])([O:7][H:15])[H:11])([H:13])[H:14])([H:8])([H:9])[H:10]"
C        1.95648176       0.85689255      -0.15370694
O        1.00526156      -0.64896523       1.12828303
C       -0.13546826      -1.14901791       0.94739496
O       -0.56431140      -2.25046447       1.26057875
C       -1.21126475      -0.21153532       0.24656244
C       -0.60969785       0.60717586      -0.84139886
O       -2.23685589      -1.01937946      -0.23164769
H        2.55437813      -0.03400758      -0.26109645
H        1.97038546       1.34632572       0.80699254
H        1.93266142       1.52330526      -1.01255717
H       -1.55981526       0.43703424       1.06368424
H        0.52850426       0.60458307      -0.50824388
H       -0.84267959       1.66850222      -0.86061813
H       -0.69281218       0.13432557      -1.81847698
H       -2.09476741      -1.86477451       0.23425016
15
Frame=2 idx=006430 GeodesicLength=0.27983993439524835 rxn_smarts="[C:1]([O:2][C:3](=[O:4])[C@@:5]([C:6]([H:12])([H:13])[H:14])([O:7][H:15])[H:11])([H:8])([H:9])[H:10]>>[C:1]([C:6]([C@:5]([C:3]([O:2][H:12])=[O:4])([O:7][H:15])[H:11])([H:13])[H:14])([H:8])([H:9])[H:10]"
C        1.98203250       0.81262794      -0.18026514
O        0.96866780      -0.55764099       1.17958807
C       -0.14494796      -1.11545315       0.96323541
O       -0.51993913      -2.24436288       1.23939948
C       -1.23688597      -0.21821767       0.24349367
C       -0.62747610       0.63432489      -0.81789741
O       -2.21927877      -1.05686746      -0.27098562
H        2.52760938      -0.11363020      -0.26990988
H        2.08083014       1.35446552       0.74781295
H        1.96137243       1.43624539      -1.07093102
H       -1.63271100       0.41120370       1.05396081
H        0.48196978       0.71873423      -0.35049745
H       -0.91125282       1.68301557      -0.84445558
H       -0.65940728       0.16264270      -1.79848387
H       -2.05058300      -1.90708760       0.17593557
15
Frame=3 idx=006430 GeodesicLength=0.4180252727829835 rxn_smarts="[C:1]([O:2][C:3](=[O:4])[C@@:5]([C:6]([H:12])([H:13])[H:14])([O:7][H:15])[H:11])([H:8])([H:9])[H:10]>>[C:1]([C:6]([C@:5]([C:3]([O:2][H:12])=[O:4])([O:7][H:15])[H:11])([H:13])[H:14])([H:8])([H:9])[H:10]"
C        1.98468697       0.76905206      -0.20268362
O        0.93722333      -0.47962038       1.22258892
C       -0.15164064      -1.08522731       0.97879234
O       -0.47484833      -2.23647280       1.21716714
C       -1.25240946      -0.22180559       0.24059174
C       -0.63106474       0.65830188      -0.79524436
O       -2.19778699      -1.08276411      -0.30445148
H        2.49812140      -0.17795630      -0.26930744
H        2.16381667       1.35151123       0.68907733
H        1.97502879       1.35333927      -1.11962219
H       -1.68737841       0.39114852       1.04345697
H        0.44196466       0.81494408      -0.21078116
H       -0.96823364       1.69051226      -0.83347360
H       -0.63219794       0.19213981      -1.77916621
H       -2.00528166      -1.93710262       0.12305563
15
Frame=4 idx=006430 GeodesicLength=0.558024826815283 rxn_smarts="[C:1]([O:2][C:3](=[O:4])[C@@:5]([C:6]([H:12])([H:13])[H:14])([O:7][H:15])[H:11])([H:8])([H:9])[H:10]>>[C:1]([C:6]([C@:5]([C:3]([O:2][H:12])=[O:4])([O:7][H:15])[H:11])([H:13])[H:14])([H:8])([H:9])[H:10]"
C        1.97656915       0.73031865      -0.21935035
O        0.91054126      -0.41394109       1.25665232
C       -0.15603514      -1.06021083       0.99062083
O       -0.43023464      -2.22910674       1.19234940
C       -1.26194620      -0.22320666       0.23860440
C       -0.62914352       0.67915298      -0.77518755
O       -2.17915636      -1.09904312      -0.32964815
H        2.47437019      -0.22736859      -0.25834767
H        2.22038243       1.34783636       0.63381034
H        1.98349567       1.27498172      -1.16028698
H       -1.72626550       0.37668564       1.03477072
H        0.40923067       0.88748371      -0.09329412
H       -1.01363961       1.69431235      -0.82474424
H       -0.61398495       0.21974310      -1.76259150
H       -1.96418347      -1.95763749       0.07664254
15
Frame=5 idx=006430 GeodesicLength=0.6988381138253136 rxn_smarts="[C:1]([O:2][C:3](=[O:4])[C@@:5]([C:6]([H:12])([H:13])[H:14])([O:7][H:15])[H:11])([H:8])([H:9])[H:10]>>[C:1]([C:6]([C@:5]([C:3]([O:2][H:12])=[O:4])([O:7][H:15])[H:11])([H:13])[H:14])([H:8])([H:9])[H:10]"
C        1.96343735       0.69523042      -0.23201378
O        0.88711598      -0.35653463       1.28452356
C       -0.15880384      -1.03872062       0.99938842
O       -0.38565554      -2.22148412       1.16540880
C       -1.26813874      -0.22327975       0.23723433
C       -0.62528120       0.69835662      -0.75724483
O       -2.16316779      -1.10962348      -0.34935351
H        2.45532946      -0.26721946      -0.24108494
H        2.25963508       1.34475404       0.58112233
H        1.99037204       1.19800522      -1.19568016
H       -1.75539848       0.36563692       1.02777322
H        0.38022443       0.94559278       0.01066852
H       -1.05223353       1.69599033      -0.81730567
H       -0.60095892       0.24540874      -1.74800034
H       -1.92647631      -1.97211302       0.03456406
15
Frame=6 idx=006430 GeodesicLength=0.8401857624751421 rxn_smarts="[C:1]([O:2][C:3](=[O:4])[C@@:5]([C:6]([H:12])([H:13])[H:14])([O:7][H:15])[H:11])([H:8])([H:9])[H:10]>>[C:1]([C:6]([C@:5]([C:3]([O:2][H:12])=[O:4])([O:7][H:15])[H:11])([H:13])[H:14])([H:8])([H:9])[H:10]"
C        1.94757201       0.66272595      -0.24210090
O        0.86626131      -0.30545939       1.30771077
C       -0.16031864      -1.01985978       1.00562831
O       -0.34126522      -2.21309553       1.13701832
C       -1.27214284      -0.22241905       0.23633995
C       -0.62051577       0.71658693      -0.74071960
O       -2.14921938      -1.11634245      -0.36533307
H        2.44026263      -0.30014062      -0.21952774
H        2.28636449       1.34273387       0.52976276
H        1.99640499       1.12034012      -1.22730643
H       -1.77791654       0.35687807       1.02225263
H        0.35298369       0.99459950       0.10674688
H       -1.08650362       1.69614658      -0.81088197
H       -0.59076936       0.26950894      -1.73460951
H       -1.89119777      -1.98220314      -0.00498040
15
Frame=7 idx=006430 GeodesicLength=0.9819347057063538 rxn_smarts="[C:1]([O:2][C:3](=[O:4])[C@@:5]([C:6]([H:12])([H:13])[H:14])([O:7][H:15])[H:11])([H:8])([H:9])[H:10]>>[C:1]([C:6]([C@:5]([C:3]([O:2][H:12])=[O:4])([O:7][H:15])[H:11])([H:13])[H:14])([H:8])([H:9])[H:10]"
C        1.93014989       0.63215906      -0.25051636
O        0.84768434      -0.25959752       1.32716685
C       -0.16076462      -1.00312592       1.00971997
O       -0.29734155      -2.20376649       1.10770697
C       -1.27453799      -0.22085274       0.23578734
C       -0.61517604       0.73417960      -0.72526708
O       -2.13688583      -1.12024602      -0.37865780
H        2.42864688      -0.32748645      -0.19499348
H        2.30344420       1.34185074       0.47895768
H        2.00169032       1.04133260      -1.25566338
H       -1.79554130       0.34979039       1.01798051
H        0.32637798       1.03727364       0.19809079
H       -1.11762105       1.69503759      -0.80545373
H       -0.58213936       0.29227413      -1.72203507
H       -1.85798586      -1.98882260      -0.04282320
15
Frame=8 idx=006430 GeodesicLength=1.124044807204324 rxn_smarts="[C:1]([O:2][C:3](=[O:4])[C@@:5]([C:6]([H:12])([H:13])[H:14])([O:7][H:15])[H:11])([H:8])([H:9])[H:10]>>[C:1]([C:6]([C@:5]([C:3]([O:2][H:12])=[O:4])([O:7][H:15])[H:11])([H:13])[H:14])([H:8])([H:9])[H:10]"
C        1.91189835       0.60300429      -0.25787787
O        0.83117981      -0.21810065       1.34357485
C       -0.16026892      -0.98812998       1.01197672
O       -0.25405380      -2.19342947       1.07780691
C       -1.27566595      -0.21870954       0.23547654
C       -0.60937041       0.75133597      -0.71065052
O       -2.12581997      -1.12198503      -0.39003265
H        2.42012537      -0.35010193      -0.16830578
H        2.31265742       1.34206216       0.42806222
H        2.00607453       0.96071917      -1.28092090
H       -1.80938757       0.34399443       1.01474560
H        0.29968846       1.07512317       0.28665712
H       -1.14616741       1.69284232      -0.80097912
H       -0.57432089       0.31391883      -1.71004121
H       -1.82656903      -1.99254374      -0.07949192
15
Frame=9 idx=006430 GeodesicLength=1.2665085045957025 rxn_smarts="[C:1]([O:2][C:3](=[O:4])[C@@:5]([C:6]([H:12])([H:13])[H:14])([O:7][H:15])[H:11])([H:8])([H:9])[H:10]>>[C:1]([C:6]([C@:5]([C:3]([O:2][H:12])=[O:4])([O:7][H:15])[H:11])([H:13])[H:14])([H:8])([H:9])[H:10]"
C        1.89330467       0.57481110      -0.26462332
O        0.81657424      -0.18023304       1.35744108
C       -0.15893447      -0.97452434       1.01269335
O       -0.21148091      -2.18203515       1.04759050
C       -1.27574658      -0.21607293       0.23531518
C       -0.60312687       0.76820032      -0.69670543
O       -2.11569186      -1.12203218      -0.39998481
H        2.41435781      -0.36859557      -0.14010266
H        2.31527423       1.34314577       0.37656089
H        2.00936144       0.87852350      -1.30310358
H       -1.82027121       0.33922067       1.01232485
H        0.27236179       1.10901539       0.37378353
H       -1.17244137       1.68971514      -0.79739660
H       -0.56683617       0.33464088      -1.69848320
H       -1.79670475      -1.99377956      -0.11530979
15
Frame=10 idx=006430 GeodesicLength=1.4094324374161937 rxn_smarts="[C:1]([O:2][C:3](=[O:4])[C@@:5]([C:6]([H:12])([H:13])[H:14])([O:7][H:15])[H:11])([H:8])([H:9])[H:10]>>[C:1]([C:6]([C@:5]([C:3]([O:2][H:12])=[O:4])([O:7][H:15])[H:11])([H:13])[H:14])([H:8])([H:9])[H:10]"
C        1.87468918       0.54705102      -0.27104265
O        0.80365826      -0.14527564       1.36921150
C       -0.15687814      -0.96195965       1.01219064
O       -0.16947468      -2.16950228       1.01709101
C       -1.27495014      -0.21296421       0.23526055
C       -0.59647440       0.78496490      -0.68322524
O       -2.10620026      -1.12070086      -0.40891653
H        2.41121407      -0.38338712      -0.11051348
H        2.31210209       1.34494702       0.32369250
H        2.01124883       0.79427697      -1.32231063
H       -1.82886439       0.33525513       1.01055385
H        0.24393553       1.13946648       0.46052780
H       -1.19667768       1.68586329      -0.79450939
H       -0.55941897       0.35476768      -1.68720725
H       -1.76790929      -1.99280273      -0.15080266
15
Frame=11 idx=006430 GeodesicLength=1.5527941215173702 rxn_smarts="[C:1]([O:2][C:3](=[O:4])[C@@:5]([C:6]([H:12])([H:13])[H:14])([O:7][H:15])[H:11])([H:8])([H:9])[H:10]>>[C:1]([C:6]([C@:5]([C:3]([O:2][H:12])=[O:4])([O:7][H:15])[H:11])([H:13])[H:14])([H:8])([H:9])[H:10]"
C        1.85628516       0.51947231      -0.27740689
O        0.79231737      -0.11260231       1.37909816
C       -0.15418227      -0.95012386       1.01076519
O       -0.12812189      -2.15572011       0.98683229
C       -1.27336605      -0.20944699       0.23519849
C       -0.58936845       0.80167990      -0.67016311
O       -2.09698410      -1.11835409      -0.41719800
H        2.41012786      -0.39493344      -0.08044537
H        2.30407096       1.34672211       0.26937583
H        2.01167496       0.70875998      -1.33843739
H       -1.83570210       0.33193067       1.00913237
H        0.21389939       1.16671662       0.54769601
H       -1.21889203       1.68140243      -0.79231066
H       -0.55179422       0.37439522      -1.67618520
H       -1.73996457      -1.98989846      -0.18595172
15
Frame=12 idx=006430 GeodesicLength=1.6966480676753102 rxn_smarts="[C:1]([O:2][C:3](=[O:4])[C@@:5]([C:6]([H:12])([H:13])[H:14])([O:7][H:15])[H:11])([H:8])([H:9])[H:10]>>[C:1]([C:6]([C@:5]([C:3]([O:2][H:12])=[O:4])([O:7][H:15])[H:11])([H:13])[H:14])([H:8])([H:9])[H:10]"
C        1.83822647       0.49178639      -0.28392100
O        0.78239141      -0.08152305       1.38728437
C       -0.15094543      -0.93867326       1.00875960
O       -0.08738194      -2.14053961       0.95728780
C       -1.27107199      -0.20554758       0.23505096
C       -0.58179904       0.81846230      -0.65741248
O       -2.08767000      -1.11528695      -0.42515502
H        2.41062839      -0.40368181      -0.05052171
H        2.29198577       1.34778767       0.21338509
H        2.01052007       0.62231101      -1.35156946
H       -1.84129751       0.32908441       1.00779561
H        0.18172384       1.19083865       0.63603294
H       -1.23913950       1.67651328      -0.79066460
H       -0.54381023       0.39375709      -1.66535744
H       -1.71236032      -1.98528852      -0.22099466
15
Frame=13 idx=006430 GeodesicLength=1.8410475999634657 rxn_smarts="[C:1]([O:2][C:3](=[O:4])[C@@:5]([C:6]([H:12])([H:13])[H:14])([O:7][H:15])[H:11])([H:8])([H:9])[H:10]>>[C:1]([C:6]([C@:5]([C:3]([O:2][H:12])=[O:4])([O:7][H:15])[H:11])([H:13])[H:14])([H:8])([H:9])[H:10]"
C        1.82057456       0.46379490      -0.29077402
O        0.77371626      -0.05131397       1.39385759
C       -0.14724569      -0.92726278       1.00650620
O       -0.04722395      -2.12380254       0.92905682
C       -1.26811528      -0.20129288       0.23472106
C       -0.57376301       0.83544904      -0.64487291
O       -2.07783037      -1.11178560      -0.43313861
H        2.41219086      -0.41009668      -0.02141280
H        2.27670917       1.34738958       0.15560017
H        2.00770474       0.53528932      -1.36188211
H       -1.84613060       0.32653208       1.00625069
H        0.14681627       1.21172881       0.72624033
H       -1.25746773       1.67140454      -0.78939387
H       -0.53536953       0.41313799      -1.65468421
H       -1.68456571      -1.97917179      -0.25607432
15
Frame=14 idx=006430 GeodesicLength=1.986121182504173 rxn_smarts="[C:1]([O:2][C:3](=[O:4])[C@@:5]([C:6]([H:12])([H:13])[H:14])([O:7][H:15])[H:11])([H:8])([H:9])[H:10]>>[C:1]([C:6]([C@:5]([C:3]([O:2][H:12])=[O:4])([O:7][H:15])[H:11])([H:13])[H:14])([H:8])([H:9])[H:10]"
C        1.80331762       0.43526643      -0.29812931
O        0.76609207      -0.02119944       1.39885502
C       -0.14315888      -0.91554036       1.00434658
O       -0.00750544      -2.10532026       0.90263950
C       -1.26453286      -0.19667606       0.23413588
C       -0.56528076       0.85283986      -0.63239478
O       -2.06703484      -1.10807107      -0.44147628
H        2.41445639      -0.41454196       0.00651063
H        2.25899509       1.34488199       0.09567441
H        2.00305193       0.44755788      -1.36962708
H       -1.85065234       0.32409183       1.00423927
H        0.10854224       1.22908663       0.81904716
H       -1.27396750       1.66633801      -0.78822535
H       -0.52644738       0.43293215      -1.64409480
H       -1.65587533      -1.97164561      -0.29150084
15
Frame=15 idx=006430 GeodesicLength=2.1318870552219624 rxn_smarts="[C:1]([O:2][C:3](=[O:4])[C@@:5]([C:6]([H:12])([H:13])[H:14])([O:7][H:15])[H:11])([H:8])([H:9])[H:10]>>[C:1]([C:6]([C@:5]([C:3]([O:2][H:12])=[O:4])([O:7][H:15])[H:11])([H:13])[H:14])([H:8])([H:9])[H:10]"
C        1.78640229       0.40616143      -0.30619591
O        0.75932914       0.00967309       1.40217230
C       -0.13872039      -0.90312711       1.00260905
O        0.03172878      -2.08492851       0.87896794
C       -1.26032085      -0.19170974       0.23317002
C       -0.55636840       0.87080884      -0.61989429
O       -2.05475611      -1.10441402      -0.45053927
H        2.41678458      -0.41759746       0.03243560
H        2.23991122       1.33944468       0.03365471
H        1.99642442       0.35954953      -1.37509676
H       -1.85528858       0.32157047       1.00140680
H        0.06622563       1.24235257       0.91513748
H       -1.28869167       1.66157819      -0.78693405
H       -0.51702860       0.45349507      -1.63357917
H       -1.62563146      -1.96285705      -0.32731445
15
Frame=16 idx=006430 GeodesicLength=2.2784830841687724 rxn_smarts="[C:1]([O:2][C:3](=[O:4])[C@@:5]([C:6]([H:12])([H:13])[H:14])([O:7][H:15])[H:11])([H:8])([H:9])[H:10]>>[C:1]([C:6]([C@:5]([C:3]([O:2][H:12])=[O:4])([O:7][H:15])[H:11])([H:13])[H:14])([H:8])([H:9])[H:10]"
C        1.76970416       0.37635028      -0.31515217
O        0.75315826       0.04220353       1.40366932
C       -0.13394415      -0.88966147       1.00156444
O        0.07062242      -2.06244889       0.85863727
C       -1.25546099      -0.18635088       0.23172167
C       -0.54706414       0.88962312      -0.60722987
O       -2.04048307      -1.10095781      -0.46069294
H        2.41888516      -0.41952671       0.05616699
H        2.22018934       1.33056090      -0.03092457
H        1.98753528       0.27080955      -1.37855764
H       -1.86039547       0.31878296       0.99746274
H        0.01926993       1.25062080       1.01526392
H       -1.30174737       1.65747244      -0.78517313
H       -0.50716130       0.47533697      -1.62308968
H       -1.59310807      -1.95281478      -0.36366637
