16
Frame=0 idx=005313 GeodesicLength=0.0 rxn_smarts="[C:1]([C:2]1([H:10])[C:3]([H:11])([H:12])[C:4]([H:13])=[C:5]([H:14])[C:6]1([H:15])[H:16])([H:7])([H:8])[H:9]>>[C:1]([C:2]1([H:10])[C:3]([H:12])=[C:4]([H:13])[C:5]([H:14])=[C:6]1[H:16])([H:7])([H:8])[H:9].[H:11][H:15]"
C        1.93634247      -0.22191742       0.05398787
C        0.47262698      -0.28429999       0.43741623
C       -0.47850944      -0.95892261      -0.52129942
C       -1.76789664      -0.51949734      -0.19123034
C       -1.65446361       0.68804121       0.48013386
C       -0.29270036       1.01187301       0.57307459
H        2.51153422       0.32936082       0.79989190
H        2.06739803       0.26964881      -0.91150284
H        2.35882483      -1.22639264      -0.01582761
H        0.36621027      -0.80606921       1.39971309
H       -0.12948455       0.28031684      -1.43177259
H       -0.26534725      -1.91335721      -0.99025296
H       -2.68759828      -0.96215373      -0.54908427
H       -2.47334063       1.34695698       0.73306314
H       -0.05554354       1.09484938      -0.97519661
H        0.09194751       1.87156309       1.10888603
16
Frame=1 idx=005313 GeodesicLength=0.07773476798209804 rxn_smarts="[C:1]([C:2]1([H:10])[C:3]([H:11])([H:12])[C:4]([H:13])=[C:5]([H:14])[C:6]1([H:15])[H:16])([H:7])([H:8])[H:9]>>[C:1]([C:2]1([H:10])[C:3]([H:12])=[C:4]([H:13])[C:5]([H:14])=[C:6]1[H:16])([H:7])([H:8])[H:9].[H:11][H:15]"
C        1.93632752      -0.22276903       0.05715882
C        0.47165640      -0.28435313       0.43918829
C       -0.47731013      -0.95800336      -0.52528617
C       -1.76775825      -0.52189600      -0.18696274
C       -1.65403796       0.68673588       0.48472638
C       -0.29102031       1.01625045       0.56780655
H        2.51095526       0.32811298       0.80382959
H        2.07048208       0.26989746      -0.90736368
H        2.35806668      -1.22737923      -0.01499490
H        0.36981045      -0.80602203       1.40182350
H       -0.13429940       0.27755911      -1.45436021
H       -0.26659691      -1.92072907      -0.97809183
H       -2.68726356      -0.95798231      -0.55351649
H       -2.47364057       1.34317078       0.74191864
H       -0.05601940       1.11160575      -0.99771871
H        0.09064810       1.86580174       1.12184298
16
Frame=2 idx=005313 GeodesicLength=0.15541878990562505 rxn_smarts="[C:1]([C:2]1([H:10])[C:3]([H:11])([H:12])[C:4]([H:13])=[C:5]([H:14])[C:6]1([H:15])[H:16])([H:7])([H:8])[H:9]>>[C:1]([C:2]1([H:10])[C:3]([H:12])=[C:4]([H:13])[C:5]([H:14])=[C:6]1[H:16])([H:7])([H:8])[H:9].[H:11][H:15]"
C        1.93626571      -0.22363270       0.06043021
C        0.47066291      -0.28454195       0.44117782
C       -0.47605535      -0.95704804      -0.52927567
C       -1.76754724      -0.52425322      -0.18275762
C       -1.65352515       0.68540916       0.48937862
C       -0.28930057       1.02053923       0.56268413
H        2.51035619       0.32678212       0.80789848
H        2.07341004       0.27026008      -0.90306508
H        2.35731306      -1.22834028      -0.01419768
H        0.37336610      -0.80618982       1.40407542
H       -0.13928519       0.27454227      -1.47720885
H       -0.26778887      -1.92764047      -0.96615286
H       -2.68684750      -0.95397000      -0.55750089
H       -2.47379974       1.33951576       0.75052891
H       -0.05656065       1.12875060      -1.02047152
H        0.08933626       1.85981727       1.13445659
16
Frame=3 idx=005313 GeodesicLength=0.233075814486008 rxn_smarts="[C:1]([C:2]1([H:10])[C:3]([H:11])([H:12])[C:4]([H:13])=[C:5]([H:14])[C:6]1([H:15])[H:16])([H:7])([H:8])[H:9]>>[C:1]([C:2]1([H:10])[C:3]([H:12])=[C:4]([H:13])[C:5]([H:14])=[C:6]1[H:16])([H:7])([H:8])[H:9].[H:11][H:15]"
C        1.93615799      -0.22451005       0.06380354
C        0.46964984      -0.28487237       0.44339505
C       -0.47474353      -0.95606163      -0.53325198
C       -1.76726373      -0.52657672      -0.17860050
C       -1.65292622       0.68405403       0.49410352
C       -0.28754025       1.02472854       0.55772546
H        2.50974036       0.32536966       0.81209566
H        2.07617417       0.27073521      -0.89860712
H        2.35656802      -1.22927499      -0.01343654
H        0.37688884      -0.80658011       1.40647963
H       -0.14445856       0.27123539      -1.50032274
H       -0.26892040      -1.93410264      -0.95444915
H       -2.68635285      -0.95009514      -0.56108863
H       -2.47382427       1.33598927       0.75889828
H       -0.05717475       1.14631503      -1.04344577
H        0.08802534       1.85364652       1.14670128
16
Frame=4 idx=005313 GeodesicLength=0.31071306320696634 rxn_smarts="[C:1]([C:2]1([H:10])[C:3]([H:11])([H:12])[C:4]([H:13])=[C:5]([H:14])[C:6]1([H:15])[H:16])([H:7])([H:8])[H:9]>>[C:1]([C:2]1([H:10])[C:3]([H:12])=[C:4]([H:13])[C:5]([H:14])=[C:6]1[H:16])([H:7])([H:8])[H:9].[H:11][H:15]"
C        1.93600558      -0.22540328       0.06728095
C        0.46861962      -0.28534938       0.44584835
C       -0.47337293      -0.95504595      -0.53720376
C       -1.76690790      -0.52887159      -0.17448180
C       -1.65224250       0.68266606       0.49890941
C       -0.28573825       1.02880922       0.55294611
H        2.50911089       0.32387505       0.81642036
H        2.07876940       0.27132046      -0.89398864
H        2.35583432      -1.23018385      -0.01271083
H        0.38038687      -0.80720049       1.40904433
H       -0.14983460       0.26761106      -1.52370850
H       -0.26998795      -1.94012703      -0.94299470
H       -2.68577992      -0.94634479      -0.56431444
H       -2.47372070       1.33258956       0.76702990
H       -0.05787055       1.16433038      -1.06663686
H        0.08672864       1.84732458       1.15856011
16
Frame=5 idx=005313 GeodesicLength=0.3883557845005827 rxn_smarts="[C:1]([C:2]1([H:10])[C:3]([H:11])([H:12])[C:4]([H:13])=[C:5]([H:14])[C:6]1([H:15])[H:16])([H:7])([H:8])[H:9]>>[C:1]([C:2]1([H:10])[C:3]([H:12])=[C:4]([H:13])[C:5]([H:14])=[C:6]1[H:16])([H:7])([H:8])[H:9].[H:11][H:15]"
C        1.93580954      -0.22631291       0.07086259
C        0.46757486      -0.28597782       0.44854554
C       -0.47194209      -0.95400371      -0.54111885
C       -1.76647997      -0.53114384      -0.17039065
C       -1.65147564       0.68124035       0.50380514
C       -0.28389402       1.03277225       0.54836128
H        2.50847099       0.32230006       0.82086907
H        2.08118907       0.27201536      -0.88921085
H        2.35511560      -1.23106509      -0.01202200
H        0.38387015      -0.80805744       1.41177708
H       -0.15542883       0.26363152      -1.54737631
H       -0.27098907      -1.94573029      -0.93179596
H       -2.68513253      -0.94270234      -0.56721804
H       -2.47349492       1.32931773       0.77492104
H       -0.05865212       1.18283488      -1.09004028
H        0.08545899       1.84088131       1.17003120
16
Frame=6 idx=005313 GeodesicLength=0.46600353931478433 rxn_smarts="[C:1]([C:2]1([H:10])[C:3]([H:11])([H:12])[C:4]([H:13])=[C:5]([H:14])[C:6]1([H:15])[H:16])([H:7])([H:8])[H:9]>>[C:1]([C:2]1([H:10])[C:3]([H:12])=[C:4]([H:13])[C:5]([H:14])=[C:6]1[H:16])([H:7])([H:8])[H:9].[H:11][H:15]"
C        1.93557133      -0.22724108       0.07455038
C        0.46651770      -0.28676063       0.45149134
C       -0.47044911      -0.95293565      -0.54498876
C       -1.76597994      -0.53339666      -0.16632151
C       -1.65062749       0.67977542       0.50879318
C       -0.28200612       1.03661091       0.54398288
H        2.50782362       0.32064408       0.82544140
H        2.08343137       0.27281656      -0.88427314
H        2.35441402      -1.23191942      -0.01136794
H        0.38734550      -0.80915559       1.41468254
H       -0.16125746       0.25926399      -1.57133722
H       -0.27192148      -1.95092491      -0.92086249
H       -2.68441049      -0.93915925      -0.56982409
H       -2.47315368       1.32617197       0.78257463
H       -0.05952521       1.20186536      -1.11365510
H        0.08422743       1.83434491       1.18111390
16
Frame=7 idx=005313 GeodesicLength=0.5437115884658632 rxn_smarts="[C:1]([C:2]1([H:10])[C:3]([H:11])([H:12])[C:4]([H:13])=[C:5]([H:14])[C:6]1([H:15])[H:16])([H:7])([H:8])[H:9]>>[C:1]([C:2]1([H:10])[C:3]([H:12])=[C:4]([H:13])[C:5]([H:14])=[C:6]1[H:16])([H:7])([H:8])[H:9].[H:11][H:15]"
C        1.93529226      -0.22818793       0.07834314
C        0.46544966      -0.28769910       0.45468772
C       -0.46889250      -0.95184299      -0.54880594
C       -1.76540862      -0.53562858      -0.16227607
C       -1.64969960       0.67827280       0.51387060
C       -0.28007361       1.04032084       0.53981893
H        2.50717087       0.31890945       0.83013323
H        2.08549323       0.27372137      -0.87917875
H        2.35373159      -1.23274568      -0.01074795
H        0.39081884      -0.81049637       1.41776307
H       -0.16733298       0.25444888      -1.59561403
H       -0.27278499      -1.95573242      -0.91019025
H       -2.68361554      -0.93570712      -0.57215760
H       -2.47270308       1.32314949       0.78999714
H       -0.06048777       1.22148250      -1.13746906
H        0.08304224       1.82773486       1.19182582
16
Frame=8 idx=005313 GeodesicLength=0.6214433069104849 rxn_smarts="[C:1]([C:2]1([H:10])[C:3]([H:11])([H:12])[C:4]([H:13])=[C:5]([H:14])[C:6]1([H:15])[H:16])([H:7])([H:8])[H:9]>>[C:1]([C:2]1([H:10])[C:3]([H:12])=[C:4]([H:13])[C:5]([H:14])=[C:6]1[H:16])([H:7])([H:8])[H:9].[H:11][H:15]"
C        1.93497370      -0.22915519       0.08224280
C        0.46437213      -0.28879537       0.45813866
C       -0.46727054      -0.95072537      -0.55256334
C       -1.76476616      -0.53784294      -0.15824778
C       -1.64869372       0.67673102       0.51904063
C       -0.27809502       1.04389721       0.53587851
H        2.50651575       0.31709633       0.83494410
H        2.08737378       0.27472608      -0.87392778
H        2.35307029      -1.23354416      -0.01015876
H        0.39429612      -0.81208292       1.42102251
H       -0.17367165       0.24915665      -1.62021764
H       -0.27357765      -1.96016441      -0.89978706
H       -2.68274837      -0.93233831      -0.57423970
H       -2.47214905       1.32024889       0.79719044
H       -0.06154137       1.24171957      -1.16149197
H        0.08191175       1.82107292       1.20217638
16
Frame=9 idx=005313 GeodesicLength=0.6992396263733636 rxn_smarts="[C:1]([C:2]1([H:10])[C:3]([H:11])([H:12])[C:4]([H:13])=[C:5]([H:14])[C:6]1([H:15])[H:16])([H:7])([H:8])[H:9]>>[C:1]([C:2]1([H:10])[C:3]([H:12])=[C:4]([H:13])[C:5]([H:14])=[C:6]1[H:16])([H:7])([H:8])[H:9].[H:11][H:15]"
C        1.93461700      -0.23014254       0.08624831
C        0.46328720      -0.29004973       0.46184427
C       -0.46558133      -0.94958190      -0.55625589
C       -1.76405256      -0.54003860      -0.15423722
C       -1.64761203       0.67515173       0.52430078
C       -0.27606895       1.04733652       0.53217266
H        2.50586043       0.31520576       0.83987131
H        2.08907171       0.27582975      -0.86852198
H        2.35243163      -1.23431322      -0.00960061
H        0.39778345      -0.81391752       1.42446028
H       -0.18028951       0.24332043      -1.64517238
H       -0.27429925      -1.96423937      -0.88964622
H       -2.68181176      -0.92904703      -0.57608993
H       -2.47149684       1.31747075       0.80415452
H       -0.06268177       1.26264226      -1.18571900
H        0.08084259       1.81437270       1.21219110
16
Frame=10 idx=005313 GeodesicLength=0.7770811671153854 rxn_smarts="[C:1]([C:2]1([H:10])[C:3]([H:11])([H:12])[C:4]([H:13])=[C:5]([H:14])[C:6]1([H:15])[H:16])([H:7])([H:8])[H:9]>>[C:1]([C:2]1([H:10])[C:3]([H:12])=[C:4]([H:13])[C:5]([H:14])=[C:6]1[H:16])([H:7])([H:8])[H:9].[H:11][H:15]"
C        1.93422402      -0.23115127       0.09036002
C        0.46219556      -0.29146216       0.46580479
C       -0.46382301      -0.94841200      -0.55987936
C       -1.76326847      -0.54221345      -0.15024729
C       -1.64645605       0.67353957       0.52964305
C       -0.27399305       1.05063812       0.52870252
H        2.50520744       0.31323974       0.84491233
H        2.09058812       0.27702604      -0.86296417
H        2.35181715      -1.23505344      -0.00906802
H        0.40128387      -0.81599826       1.42807696
H       -0.18720175       0.23688990      -1.67049881
H       -0.27494884      -1.96797528      -0.87976686
H       -2.68080450      -0.92583023      -0.57772070
H       -2.47075155       1.31481158       0.81089773
H       -0.06390841       1.28430676      -1.21014627
H        0.07983948       1.80764438       1.22189408
16
Frame=11 idx=005313 GeodesicLength=0.8549697105173475 rxn_smarts="[C:1]([C:2]1([H:10])[C:3]([H:11])([H:12])[C:4]([H:13])=[C:5]([H:14])[C:6]1([H:15])[H:16])([H:7])([H:8])[H:9]>>[C:1]([C:2]1([H:10])[C:3]([H:12])=[C:4]([H:13])[C:5]([H:14])=[C:6]1[H:16])([H:7])([H:8])[H:9].[H:11][H:15]"
C        1.93379629      -0.23218060       0.09457655
C        0.46109822      -0.29303124       0.47001918
C       -0.46199390      -0.94721426      -0.56342911
C       -1.76241458      -0.54436454      -0.14628045
C       -1.64522836       0.67189779       0.53506327
C       -0.27186586       1.05380052       0.52547636
H        2.50455931       0.31120066       0.85006360
H        2.09192272       0.27831248      -0.85725823
H        2.35122824      -1.23576299      -0.00855937
H        0.40480233      -0.81832500       1.43187123
H       -0.19442129       0.22979568      -1.69622227
H       -0.27552703      -1.97138996      -0.87014078
H       -2.67972965      -0.92268198      -0.57915030
H       -2.46991857       1.31226951       0.81742549
H       -0.06521432       1.30677697      -1.23477396
H        0.07890644       1.80089694       1.23131879
16
Frame=12 idx=005313 GeodesicLength=0.9328927220278043 rxn_smarts="[C:1]([C:2]1([H:10])[C:3]([H:11])([H:12])[C:4]([H:13])=[C:5]([H:14])[C:6]1([H:15])[H:16])([H:7])([H:8])[H:9]>>[C:1]([C:2]1([H:10])[C:3]([H:12])=[C:4]([H:13])[C:5]([H:14])=[C:6]1[H:16])([H:7])([H:8])[H:9].[H:11][H:15]"
C        1.93333535      -0.23323064       0.09889711
C        0.45999657      -0.29475618       0.47448600
C       -0.46009194      -0.94598666      -0.56690237
C       -1.76149078      -0.54648944      -0.14233890
C       -1.64393065       0.67023040       0.54055555
C       -0.26968514       1.05682362       0.52249875
H        2.50391747       0.30909038       0.85532256
H        2.09307642       0.27968497      -0.85140660
H        2.35066629      -1.23644103      -0.00807128
H        0.40834245      -0.82089685       1.43584124
H       -0.20196478       0.22196838      -1.72236785
H       -0.27603390      -1.97449959      -0.86076165
H       -2.67858730      -0.91959955      -0.58039029
H       -2.46900158       1.30984428       0.82374047
H       -0.06659470       1.33012372      -1.25959997
H        0.07804621       1.79413419       1.24049721
16
Frame=13 idx=005313 GeodesicLength=1.0108277288409981 rxn_smarts="[C:1]([C:2]1([H:10])[C:3]([H:11])([H:12])[C:4]([H:13])=[C:5]([H:14])[C:6]1([H:15])[H:16])([H:7])([H:8])[H:9]>>[C:1]([C:2]1([H:10])[C:3]([H:12])=[C:4]([H:13])[C:5]([H:14])=[C:6]1[H:16])([H:7])([H:8])[H:9].[H:11][H:15]"
C        1.93284307      -0.23430099       0.10332085
C        0.45889109      -0.29663566       0.47920324
C       -0.45811524      -0.94472803      -0.57029622
C       -1.76049780      -0.54858452      -0.13842651
C       -1.64256500       0.66854191       0.54611312
C       -0.26744862       1.05970778       0.51977428
H        2.50328471       0.30691106       0.86068641
H        2.09405068       0.28114002      -0.84541276
H        2.35013256      -1.23708644      -0.00760047
H        0.41190789      -0.82371204       1.43998447
H       -0.20984961       0.21333383      -1.74896087
H       -0.27647001      -1.97731941      -0.85162200
H       -2.67737983      -0.91658134      -0.58145149
H       -2.46800479       1.30753440       0.82984722
H       -0.06803891       1.35442122      -1.28462165
H        0.07725983       1.78735822       1.24946240
16
Frame=14 idx=005313 GeodesicLength=1.0887688876693362 rxn_smarts="[C:1]([C:2]1([H:10])[C:3]([H:11])([H:12])[C:4]([H:13])=[C:5]([H:14])[C:6]1([H:15])[H:16])([H:7])([H:8])[H:9]>>[C:1]([C:2]1([H:10])[C:3]([H:12])=[C:4]([H:13])[C:5]([H:14])=[C:6]1[H:16])([H:7])([H:8])[H:9].[H:11][H:15]"
C        1.93232113      -0.23539066       0.10784576
C        0.45778307      -0.29866710       0.48416738
C       -0.45606134      -0.94343596      -0.57360881
C       -1.75943571      -0.55064415      -0.13454970
C       -1.64113375       0.66683821       0.55172747
C       -0.26515359       1.06245385       0.51731059
H        2.50266330       0.30466452       0.86615182
H        2.09484704       0.28267532      -0.83928030
H        2.34962798      -1.23769747      -0.00714540
H        0.41550231      -0.82676947       1.44429627
H       -0.21809191       0.20379619      -1.77603235
H       -0.27683719      -1.97986533      -0.84270837
H       -2.67610900      -0.91362535      -0.58234539
H       -2.46693187       1.30533925       0.83575016
H       -0.06953771       1.37976064      -1.30982955
H        0.07654725       1.78056751       1.25825041
16
Frame=15 idx=005313 GeodesicLength=1.1666876885573962 rxn_smarts="[C:1]([C:2]1([H:10])[C:3]([H:11])([H:12])[C:4]([H:13])=[C:5]([H:14])[C:6]1([H:15])[H:16])([H:7])([H:8])[H:9]>>[C:1]([C:2]1([H:10])[C:3]([H:12])=[C:4]([H:13])[C:5]([H:14])=[C:6]1[H:16])([H:7])([H:8])[H:9].[H:11][H:15]"
C        1.93177126      -0.23649882       0.11247005
C        0.45667327      -0.30084815       0.48937412
C       -0.45392821      -0.94210910      -0.57683844
C       -1.75830497      -0.55266347      -0.13071418
C       -1.63963931       0.66512496       0.55738987
C       -0.26279736       1.06506358       0.51511310
H        2.50205533       0.30235250       0.87171594
H        2.09546778       0.28428798      -0.83301279
H        2.34915331      -1.23827272      -0.00670360
H        0.41912892      -0.83006670       1.44877196
H       -0.22670971       0.19326019      -1.80361140
H       -0.27713730      -1.98215165      -0.83400925
H       -2.67477598      -0.91073042      -0.58308128
H       -2.46578654       1.30325725       0.84145466
H       -0.07107777       1.40623516      -1.33521388
H        0.07590728       1.77375940       1.26689513
16
Frame=16 idx=005313 GeodesicLength=1.2445484010282817 rxn_smarts="[C:1]([C:2]1([H:10])[C:3]([H:11])([H:12])[C:4]([H:13])=[C:5]([H:14])[C:6]1([H:15])[H:16])([H:7])([H:8])[H:9]>>[C:1]([C:2]1([H:10])[C:3]([H:12])=[C:4]([H:13])[C:5]([H:14])=[C:6]1[H:16])([H:7])([H:8])[H:9].[H:11][H:15]"
C        1.93119519      -0.23762432       0.11719186
C        0.45556253      -0.30317623       0.49481933
C       -0.45171337      -0.94074513      -0.57998419
C       -1.75710579      -0.55463689      -0.12692619
C       -1.63808393       0.66340776       0.56309234
C       -0.26037716       1.06753882       0.51318794
H        2.50146299       0.29997680       0.87737595
H        2.09591506       0.28597557      -0.82661370
H        2.34870951      -1.23881035      -0.00627295
H        0.42279074      -0.83360186       1.45340617
H       -0.23572162       0.18162195      -1.83172790
H       -0.27737218      -1.98419191      -0.82551187
H       -2.67338267      -0.90789515      -0.58366905
H       -2.46457183       1.30128749       0.84696557
H       -0.07264609       1.43394412      -1.36076557
H        0.07533859       1.76692933       1.27543224
