11
Frame=0 idx=004450 GeodesicLength=0.0 rxn_smarts="[N:1]1([H:7])[C@@:2]2([H:8])[C@:3]1([H:9])[C@@:4]1([H:10])[O:5][C@@:6]21[H:11]>>[N:1]1([H:7])[C:2]([H:8])([H:9])[C@@:6]2([H:11])[C@@:4]([H:10])([C:3]1)[O:5]2"
N        1.23387659       0.19475901       0.90891615
C        0.28773469       0.98953661       0.15239425
C        1.18781366      -0.45659216      -0.38254426
C       -0.25186322      -1.07231586      -0.49001961
O       -1.01202453      -0.97926022       0.72599073
C       -0.96907028       0.13299813      -0.13402581
H        0.70843692      -0.34023564       1.59788366
H        0.33226187       2.06701063       0.26875854
H        0.90597304       0.79972015      -0.92156283
H       -0.52538310      -1.84817206      -1.18763067
H       -1.89775568       0.51255145      -0.53816016
11
Frame=1 idx=004450 GeodesicLength=0.06240228501501933 rxn_smarts="[N:1]1([H:7])[C@@:2]2([H:8])[C@:3]1([H:9])[C@@:4]1([H:10])[O:5][C@@:6]21[H:11]>>[N:1]1([H:7])[C:2]([H:8])([H:9])[C@@:6]2([H:11])[C@@:4]([H:10])([C:3]1)[O:5]2"
N        1.23277821       0.19294670       0.90316583
C        0.28671622       0.98925363       0.14778714
C        1.18462310      -0.46336478      -0.37923883
C       -0.25484224      -1.07417033      -0.48964152
O       -1.01640118      -0.97773428       0.72427212
C       -0.97052998       0.13418265      -0.13677699
H        0.72533004      -0.33388399       1.61021196
H        0.31935359       2.06450031       0.28417229
H        0.92108761       0.80470787      -0.93290768
H       -0.52984956      -1.84961122      -1.18737088
H       -1.89826581       0.51317344      -0.54367344
11
Frame=2 idx=004450 GeodesicLength=0.12486385361610292 rxn_smarts="[N:1]1([H:7])[C@@:2]2([H:8])[C@:3]1([H:9])[C@@:4]1([H:10])[O:5][C@@:6]21[H:11]>>[N:1]1([H:7])[C:2]([H:8])([H:9])[C@@:6]2([H:11])[C@@:4]([H:10])([C:3]1)[O:5]2"
N        1.23150889       0.19111475       0.89749911
C        0.28561405       0.98900953       0.14315521
C        1.18131876      -0.47012203      -0.37586065
C       -0.25793278      -1.07601650      -0.48927301
O       -1.02095183      -0.97620470       0.72250834
C       -0.97209801       0.13537692      -0.13958091
H        0.74290746      -0.32718382       1.62248494
H        0.30626197       2.06152908       0.29969461
H        0.93662723       0.80970038      -0.94416051
H       -0.53439436      -1.85101680      -1.18716214
H       -1.89886139       0.51381320      -0.54930499
11
Frame=3 idx=004450 GeodesicLength=0.18716280959328557 rxn_smarts="[N:1]1([H:7])[C@@:2]2([H:8])[C@:3]1([H:9])[C@@:4]1([H:10])[O:5][C@@:6]21[H:11]>>[N:1]1([H:7])[C:2]([H:8])([H:9])[C@@:6]2([H:11])[C@@:4]([H:10])([C:3]1)[O:5]2"
N        1.22998910       0.18927488       0.89188665
C        0.28440209       0.98879461       0.13851701
C        1.17783110      -0.47687436      -0.37240586
C       -0.26112879      -1.07784611      -0.48891961
O       -1.02563660      -0.97463247       0.72064938
C       -0.97373350       0.13658620      -0.14242520
H        0.76118469      -0.32010924       1.63465388
H        0.29299104       2.05807503       0.31529684
H        0.95254180       0.81464070      -0.95523761
H       -0.53898914      -1.85238125      -1.18700422
H       -1.89945177       0.51447201      -0.55501125
11
Frame=4 idx=004450 GeodesicLength=0.24961507123264914 rxn_smarts="[N:1]1([H:7])[C@@:2]2([H:8])[C@:3]1([H:9])[C@@:4]1([H:10])[O:5][C@@:6]21[H:11]>>[N:1]1([H:7])[C:2]([H:8])([H:9])[C@@:6]2([H:11])[C@@:4]([H:10])([C:3]1)[O:5]2"
N        1.22830064       0.18739858       0.88639977
C        0.28308392       0.98862438       0.13386963
C        1.17425445      -0.48360564      -0.36886044
C       -0.26444439      -1.07966653      -0.48858021
O       -1.03054788      -0.97309082       0.71875466
C       -0.97552239       0.13780493      -0.14532571
H        0.78024693      -0.31269684       1.64679180
H        0.27955435       2.05416082       0.33092630
H        0.96892704       0.81960826      -0.96620269
H       -0.54365485      -1.85369909      -1.18692369
H       -1.90019782       0.51516195      -0.56084943
11
Frame=5 idx=004450 GeodesicLength=0.3119018934977658 rxn_smarts="[N:1]1([H:7])[C@@:2]2([H:8])[C@:3]1([H:9])[C@@:4]1([H:10])[O:5][C@@:6]21[H:11]>>[N:1]1([H:7])[C:2]([H:8])([H:9])[C@@:6]2([H:11])[C@@:4]([H:10])([C:3]1)[O:5]2"
N        1.22634147       0.18549936       0.88099906
C        0.28165308       0.98846946       0.12926107
C        1.17046480      -0.49033805      -0.36521327
C       -0.26788113      -1.08148221      -0.48826245
O       -1.03561061      -0.97153724       0.71674541
C       -0.97737451       0.13901929      -0.14825390
H        0.80002562      -0.30479976       1.65872355
H        0.26597189       2.04975979       0.34661618
H        0.98571905       0.82453880      -0.97695525
H       -0.54838628      -1.85498113      -1.18692218
H       -1.90092338       0.51585171      -0.56673822
11
Frame=6 idx=004450 GeodesicLength=0.37423659032238266 rxn_smarts="[N:1]1([H:7])[C@@:2]2([H:8])[C@:3]1([H:9])[C@@:4]1([H:10])[O:5][C@@:6]21[H:11]>>[N:1]1([H:7])[C:2]([H:8])([H:9])[C@@:6]2([H:11])[C@@:4]([H:10])([C:3]1)[O:5]2"
N        1.22415443       0.18356273       0.87573718
C        0.28008301       0.98834913       0.12467169
C        1.16654288      -0.49704333      -0.36144808
C       -0.27144657      -1.08327417      -0.48795422
O       -1.04090655      -0.96999148       0.71466673
C       -0.97937998       0.14024433      -0.15124171
H        0.82070130      -0.29654958       1.67054874
H        0.25222388       2.04485503       0.36228315
H        1.00298538       0.82947961      -0.98750662
H       -0.55318116      -1.85620103      -1.18698601
H       -1.90177662       0.51656875      -0.57277086
11
Frame=7 idx=004450 GeodesicLength=0.4366755465154789 rxn_smarts="[N:1]1([H:7])[C@@:2]2([H:8])[C@:3]1([H:9])[C@@:4]1([H:10])[O:5][C@@:6]21[H:11]>>[N:1]1([H:7])[C:2]([H:8])([H:9])[C@@:6]2([H:11])[C@@:4]([H:10])([C:3]1)[O:5]2"
N        1.22176161       0.18156813       0.87064099
C        0.27838870       0.98825008       0.12012772
C        1.16249516      -0.50373261      -0.35756259
C       -0.27515498      -1.08506123      -0.48767312
O       -1.04646605      -0.96850230       0.71252115
C       -0.98155035       0.14145964      -0.15427809
H        0.84227099      -0.28785105       1.68226247
H        0.23833022       2.03948701       0.37791245
H        1.02077005       0.83444429      -0.99785805
H       -0.55806189      -1.85736184      -1.18716912
H       -1.90278347       0.51729988      -0.57892381
11
Frame=8 idx=004450 GeodesicLength=0.4988848920363207 rxn_smarts="[N:1]1([H:7])[C@@:2]2([H:8])[C@:3]1([H:9])[C@@:4]1([H:10])[O:5][C@@:6]21[H:11]>>[N:1]1([H:7])[C:2]([H:8])([H:9])[C@@:6]2([H:11])[C@@:4]([H:10])([C:3]1)[O:5]2"
N        1.21899655       0.17953212       0.86565272
C        0.27650982       0.98816508       0.11565995
C        1.15818155      -0.51042554      -0.35354424
C       -0.27899432      -1.08683912      -0.48740706
O       -1.05220621      -0.96699163       0.71022092
C       -0.98380406       0.14268003      -0.15734771
H        0.86476690      -0.27868130       1.69369337
H        0.22431000       2.03362841       0.39350657
H        1.03896768       0.83936566      -1.00785724
H       -0.56297923      -1.85848249      -1.18741679
H       -1.90374868       0.51804879      -0.58516050
11
Frame=9 idx=004450 GeodesicLength=0.5611841674711143 rxn_smarts="[N:1]1([H:7])[C@@:2]2([H:8])[C@:3]1([H:9])[C@@:4]1([H:10])[O:5][C@@:6]21[H:11]>>[N:1]1([H:7])[C:2]([H:8])([H:9])[C@@:6]2([H:11])[C@@:4]([H:10])([C:3]1)[O:5]2"
N        1.21597174       0.17742213       0.86086430
C        0.27446828       0.98809457       0.11127018
C        1.15371308      -0.51710505      -0.34937911
C       -0.28299078      -1.08861293      -0.48716553
O       -1.05824302      -0.96553963       0.70783575
C       -0.98624260       0.14388967      -0.16047164
H        0.88830303      -0.26903799       1.70493470
H        0.21015413       2.02730322       0.40901407
H        1.05771239       0.84431598      -1.01757114
H       -0.56797894      -1.85954482      -1.18778461
H       -1.90486732       0.51881485      -0.59154698
11
Frame=10 idx=004450 GeodesicLength=0.6234951737156502 rxn_smarts="[N:1]1([H:7])[C@@:2]2([H:8])[C@:3]1([H:9])[C@@:4]1([H:10])[O:5][C@@:6]21[H:11]>>[N:1]1([H:7])[C:2]([H:8])([H:9])[C@@:6]2([H:11])[C@@:4]([H:10])([C:3]1)[O:5]2"
N        1.21263576       0.17523200       0.85628145
C        0.27224342       0.98802828       0.10698209
C        1.14904795      -0.52377891      -0.34505207
C       -0.28715179      -1.09038528      -0.48694973
O       -1.06457641      -0.96414045       0.70533631
C       -0.98885600       0.14508476      -0.16364662
H        0.91293855      -0.25887758       1.71591249
H        0.19587325       2.02051398       0.42441801
H        1.07700192       0.84928090      -1.02692973
H       -0.57305640      -1.86055108      -1.18827425
H       -1.90610025       0.51959338      -0.59807793
11
Frame=11 idx=004450 GeodesicLength=0.6858835271896807 rxn_smarts="[N:1]1([H:7])[C@@:2]2([H:8])[C@:3]1([H:9])[C@@:4]1([H:10])[O:5][C@@:6]21[H:11]>>[N:1]1([H:7])[C:2]([H:8])([H:9])[C@@:6]2([H:11])[C@@:4]([H:10])([C:3]1)[O:5]2"
N        1.20898558       0.17294622       0.85194414
C        0.26982093       0.98796001       0.10281058
C        1.14419686      -0.53044750      -0.34054831
C       -0.29149251      -1.09215979      -0.48676411
O       -1.07125282      -0.96281375       0.70272892
C       -0.99167927       0.14625889      -0.16688100
H        0.93878081      -0.24817517       1.72661406
H        0.18147213       2.01327252       0.43969139
H        1.09688396       0.85427452      -1.03590500
H       -0.57822180      -1.86149842      -1.18890658
H       -1.90749390       0.52038247      -0.60478408
11
Frame=12 idx=004450 GeodesicLength=0.7481251686788277 rxn_smarts="[N:1]1([H:7])[C@@:2]2([H:8])[C@:3]1([H:9])[C@@:4]1([H:10])[O:5][C@@:6]21[H:11]>>[N:1]1([H:7])[C:2]([H:8])([H:9])[C@@:6]2([H:11])[C@@:4]([H:10])([C:3]1)[O:5]2"
N        1.20491530       0.17054684       0.84782735
C        0.26718054       0.98787045       0.09879044
C        1.13906459      -0.53713738      -0.33584311
C       -0.29601132      -1.09394215      -0.48660535
O       -1.07822593      -0.96154046       0.69993891
C       -0.99465267       0.14741239      -0.17015992
H        0.96584325      -0.23684167       1.73686181
H        0.16694807       2.00558577       0.45482566
H        1.11731180       0.85925069      -1.04436301
H       -0.58345371      -1.86239286      -1.18966056
H       -1.90891991       0.52118838      -0.61161221
11
Frame=13 idx=004450 GeodesicLength=0.8103183585403001 rxn_smarts="[N:1]1([H:7])[C@@:2]2([H:8])[C@:3]1([H:9])[C@@:4]1([H:10])[O:5][C@@:6]21[H:11]>>[N:1]1([H:7])[C:2]([H:8])([H:9])[C@@:6]2([H:11])[C@@:4]([H:10])([C:3]1)[O:5]2"
N        1.20042902       0.16800500       0.84398695
C        0.26430052       0.98774074       0.09494591
C        1.13367716      -0.54386170      -0.33091848
C       -0.30071090      -1.09572948      -0.48647467
O       -1.08554757      -0.96032723       0.69698707
C       -0.99781837       0.14854475      -0.17348222
H        0.99420286      -0.22483901       1.74658127
H        0.15229280       1.99745634       0.46979853
H        1.13834933       0.86421034      -1.05228953
H       -0.58873360      -1.86322277      -1.19055706
H       -1.91044125       0.52202304      -0.61857778
11
Frame=14 idx=004450 GeodesicLength=0.8727879266253574 rxn_smarts="[N:1]1([H:7])[C@@:2]2([H:8])[C@:3]1([H:9])[C@@:4]1([H:10])[O:5][C@@:6]21[H:11]>>[N:1]1([H:7])[C:2]([H:8])([H:9])[C@@:6]2([H:11])[C@@:4]([H:10])([C:3]1)[O:5]2"
N        1.19565173       0.16530340       0.84054379
C        0.26121129       0.98758469       0.09125961
C        1.12815270      -0.55058696      -0.32575984
C       -0.30565222      -1.09754027      -0.48640100
O       -1.09337891      -0.95928311       0.69394371
C       -1.00130881       0.14962522      -0.17690051
H        1.02409117      -0.21213294       1.75594283
H        0.13752596       1.98891966       0.48458373
H        1.16017541       0.86924900      -1.05973399
H       -0.59416395      -1.86399240      -1.19168311
H       -1.91230435       0.52285371      -0.62579521
11
Frame=15 idx=004450 GeodesicLength=0.9348157381844099 rxn_smarts="[N:1]1([H:7])[C@@:2]2([H:8])[C@:3]1([H:9])[C@@:4]1([H:10])[O:5][C@@:6]21[H:11]>>[N:1]1([H:7])[C:2]([H:8])([H:9])[C@@:6]2([H:11])[C@@:4]([H:10])([C:3]1)[O:5]2"
N        1.19016299       0.16242564       0.83733848
C        0.25779891       0.98735147       0.08782503
C        1.12213157      -0.55739915      -0.32032425
C       -0.31079858      -1.09937512      -0.48633517
O       -1.10150163      -0.95822355       0.69057254
C       -1.00488634       0.15068744      -0.18036035
H        1.05554918      -0.19857015       1.76437566
H        0.12260367       1.97994664       0.49926080
H        1.18251308       0.87417319      -1.06629342
H       -0.59961933      -1.86473021      -1.19288348
H       -1.91395353       0.52371380      -0.63317583
11
Frame=16 idx=004450 GeodesicLength=0.9970255952021022 rxn_smarts="[N:1]1([H:7])[C@@:2]2([H:8])[C@:3]1([H:9])[C@@:4]1([H:10])[O:5][C@@:6]21[H:11]>>[N:1]1([H:7])[C:2]([H:8])([H:9])[C@@:6]2([H:11])[C@@:4]([H:10])([C:3]1)[O:5]2"
N        1.18422439       0.15931514       0.83459109
C        0.25411636       0.98704662       0.08461518
C        1.11588072      -0.56426971      -0.31459007
C       -0.31620842      -1.10124624      -0.48631644
O       -1.11018308      -0.95730757       0.68704233
C       -1.00878721       0.15170036      -0.18392165
H        1.08882665      -0.18410512       1.77211762
H        0.10750832       1.97055989       0.51378004
H        1.20568321       0.87911372      -1.07214997
H       -0.60520304      -1.86540593      -1.19431059
H       -1.91585791       0.52459884      -0.64085756
