13
Frame=0 idx=000505 GeodesicLength=0.0 rxn_smarts="[C:1]([n:2]1[c:3]([H:10])[c:4]([H:11])[c:5]([H:12])[c:6]1[H:13])([H:7])([H:8])[H:9]>>[C:1]([N+:2]1([H:13])[C:3]([H:10])=[C:4]([H:11])[C:5]([H:12])=[C-:6]1)([H:7])([H:8])[H:9]"
C       -1.82156852       0.34829313       0.10479445
N       -0.41380274       0.10627217      -0.17843361
C        0.25019998      -1.04964081       0.20618455
C        1.57325868      -0.75395985       0.26756920
C        1.74447448       0.61121099      -0.08881257
C        0.54980568       1.27172112      -0.29834161
H       -1.95536331       0.49264056       1.17564710
H       -2.42429448      -0.49484757      -0.23376908
H       -2.11824962       1.25767933      -0.41358659
H       -0.28280114      -1.97428920       0.36542589
H        2.35428682      -1.46038067       0.51047842
H        2.70258530       1.10278352      -0.18006070
H       -0.15853119       0.54251722      -1.23709550
13
Frame=1 idx=000505 GeodesicLength=0.044160099627540465 rxn_smarts="[C:1]([n:2]1[c:3]([H:10])[c:4]([H:11])[c:5]([H:12])[c:6]1[H:13])([H:7])([H:8])[H:9]>>[C:1]([N+:2]1([H:13])[C:3]([H:10])=[C:4]([H:11])[C:5]([H:12])=[C-:6]1)([H:7])([H:8])[H:9]"
C       -1.81982133       0.34640359       0.10525584
N       -0.41349027       0.10607831      -0.18709051
C        0.25018134      -1.05173170       0.19745392
C        1.57201623      -0.75517226       0.27159900
C        1.74460147       0.61239951      -0.07892860
C        0.54924978       1.26776521      -0.29278405
H       -1.94787923       0.49325647       1.17651967
H       -2.42291309      -0.49879102      -0.22752209
H       -2.12298316       1.25298059      -0.41426807
H       -0.28410910      -1.97323356       0.37002565
H        2.35193716      -1.46160822       0.51782860
H        2.70318989       1.09942662      -0.18730454
H       -0.15997970       0.56222645      -1.25078480
13
Frame=2 idx=000505 GeodesicLength=0.08831987197497593 rxn_smarts="[C:1]([n:2]1[c:3]([H:10])[c:4]([H:11])[c:5]([H:12])[c:6]1[H:13])([H:7])([H:8])[H:9]>>[C:1]([N+:2]1([H:13])[C:3]([H:10])=[C:4]([H:11])[C:5]([H:12])=[C-:6]1)([H:7])([H:8])[H:9]"
C       -1.81798156       0.34449393       0.10575680
N       -0.41313989       0.10586034      -0.19574221
C        0.25021356      -1.05381291       0.18887559
C        1.57072401      -0.75639919       0.27569050
C        1.74472301       0.61340929      -0.06954848
C        0.54871545       1.26362214      -0.28779006
H       -1.94026981       0.49391046       1.17739060
H       -2.42140647      -0.50275301      -0.22118427
H       -2.12768295       1.24820983      -0.41486720
H       -0.28530686      -1.97209470       0.37439549
H        2.34951044      -1.46282323       0.52536899
H        2.70354436       1.09603603      -0.19401404
H       -0.16164328       0.58234103      -1.26433172
13
Frame=3 idx=000505 GeodesicLength=0.13247325700844828 rxn_smarts="[C:1]([n:2]1[c:3]([H:10])[c:4]([H:11])[c:5]([H:12])[c:6]1[H:13])([H:7])([H:8])[H:9]>>[C:1]([N+:2]1([H:13])[C:3]([H:10])=[C:4]([H:11])[C:5]([H:12])=[C-:6]1)([H:7])([H:8])[H:9]"
C       -1.81608041       0.34258676       0.10624156
N       -0.41275904       0.10560205      -0.20430023
C        0.25027816      -1.05581188       0.18082319
C        1.56937034      -0.75756132       0.28013839
C        1.74482389       0.61427978      -0.06056568
C        0.54819611       1.25928295      -0.28342425
H       -1.93265329       0.49480110       1.17816868
H       -2.41977302      -0.50676444      -0.21472884
H       -2.13234711       1.24330571      -0.41560267
H       -0.28639617      -1.97086772       0.37870530
H        2.34713963      -1.46423845       0.53215286
H        2.70367798       1.09271654      -0.19989576
H       -0.16347708       0.60266892      -1.27771256
13
Frame=4 idx=000505 GeodesicLength=0.17660784828437207 rxn_smarts="[C:1]([n:2]1[c:3]([H:10])[c:4]([H:11])[c:5]([H:12])[c:6]1[H:13])([H:7])([H:8])[H:9]>>[C:1]([N+:2]1([H:13])[C:3]([H:10])=[C:4]([H:11])[C:5]([H:12])=[C-:6]1)([H:7])([H:8])[H:9]"
C       -1.81413491       0.34069464       0.10668685
N       -0.41235115       0.10528919      -0.21271556
C        0.25036129      -1.05769799       0.17349648
C        1.56795522      -0.75864272       0.28503005
C        1.74489465       0.61502611      -0.05192854
C        0.54768838       1.25474427      -0.27969338
H       -1.92509801       0.49601075       1.17881422
H       -2.41801726      -0.51082583      -0.20815923
H       -2.13696793       1.23825084      -0.41656015
H       -0.28738665      -1.96957621       0.38298487
H        2.34489748      -1.46590387       0.53782467
H        2.70362647       1.08950775      -0.20487159
H       -0.16546758       0.62312305      -1.29090868
13
Frame=5 idx=000505 GeodesicLength=0.22074364667843527 rxn_smarts="[C:1]([n:2]1[c:3]([H:10])[c:4]([H:11])[c:5]([H:12])[c:6]1[H:13])([H:7])([H:8])[H:9]>>[C:1]([N+:2]1([H:13])[C:3]([H:10])=[C:4]([H:11])[C:5]([H:12])=[C-:6]1)([H:7])([H:8])[H:9]"
C       -1.81214323       0.33881612       0.10711472
N       -0.41192399       0.10491151      -0.22101546
C        0.25045803      -1.05949971       0.16681216
C        1.56648837      -0.75968055       0.29023747
C        1.74493820       0.61564248      -0.04366820
C        0.54719805       1.25001347      -0.27658635
H       -1.91757064       0.49749838       1.17935919
H       -2.41615636      -0.51491873      -0.20146769
H       -2.14154892       1.23306974      -0.41767220
H       -0.28829352      -1.96828706       0.38712641
H        2.34276399      -1.46773109       0.54273616
H        2.70343858       1.08640160      -0.20904133
H       -0.16764856       0.64376384      -1.30393487
13
Frame=6 idx=000505 GeodesicLength=0.2648175821441161 rxn_smarts="[C:1]([n:2]1[c:3]([H:10])[c:4]([H:11])[c:5]([H:12])[c:6]1[H:13])([H:7])([H:8])[H:9]>>[C:1]([N+:2]1([H:13])[C:3]([H:10])=[C:4]([H:11])[C:5]([H:12])=[C-:6]1)([H:7])([H:8])[H:9]"
C       -1.81009126       0.33693363       0.10755655
N       -0.41147813       0.10446030      -0.22924622
C        0.25057026      -1.06125405       0.16059408
C        1.56498513      -0.76072110       0.29554020
C        1.74496020       0.61612228      -0.03584580
C        0.54673140       1.24510163      -0.27405734
H       -1.91001945       0.49914851       1.17984666
H       -2.41419623      -0.51901781      -0.19467392
H       -2.14608397       1.22778752      -0.41880764
H       -0.28912821      -1.96702979       0.39098052
H        2.34065016      -1.46957169       0.54750073
H        2.70314806       1.08332889      -0.21262934
H       -0.17004797       0.66471167      -1.31675847
13
Frame=7 idx=000505 GeodesicLength=0.3089147820641056 rxn_smarts="[C:1]([n:2]1[c:3]([H:10])[c:4]([H:11])[c:5]([H:12])[c:6]1[H:13])([H:7])([H:8])[H:9]>>[C:1]([N+:2]1([H:13])[C:3]([H:10])=[C:4]([H:11])[C:5]([H:12])=[C-:6]1)([H:7])([H:8])[H:9]"
C       -1.80797763       0.33503940       0.10802566
N       -0.41101737       0.10394398      -0.23742745
C        0.25070272      -1.06298666       0.15473240
C        1.56343907      -0.76176851       0.30094336
C        1.74496395       0.61647557      -0.02841101
C        0.54629332       1.24003048      -0.27205300
H       -1.90241705       0.50090858       1.18030345
H       -2.41214005      -0.52312343      -0.18779134
H       -2.15058665       1.22242392      -0.41991234
H       -0.28989333      -1.96588127       0.39441724
H        2.33853150      -1.47137138       0.55245379
H        2.70279889       1.08023464      -0.21589869
H       -0.17269735       0.68607468      -1.32938208
13
Frame=8 idx=000505 GeodesicLength=0.3529928547457709 rxn_smarts="[C:1]([n:2]1[c:3]([H:10])[c:4]([H:11])[c:5]([H:12])[c:6]1[H:13])([H:7])([H:8])[H:9]>>[C:1]([N+:2]1([H:13])[C:3]([H:10])=[C:4]([H:11])[C:5]([H:12])=[C-:6]1)([H:7])([H:8])[H:9]"
C       -1.80582124       0.33313668       0.10846973
N       -0.41053963       0.10334456      -0.24551830
C        0.25084641      -1.06467589       0.14939053
C        1.56185230      -0.76279302       0.30655964
C        1.74493767       0.61674118      -0.02125151
C        0.54588025       1.23480544      -0.27056349
H       -1.89484951       0.50284601       1.18066093
H       -2.40998615      -0.52724901      -0.18086046
H       -2.15504603       1.21694918      -0.42110674
H       -0.29060844      -1.96479543       0.39769769
H        2.33649090      -1.47324778       0.55702054
H        2.70238949       1.07715138      -0.21873450
H       -0.17554602       0.70778671      -1.34176406
13
Frame=9 idx=000505 GeodesicLength=0.39705550073793855 rxn_smarts="[C:1]([n:2]1[c:3]([H:10])[c:4]([H:11])[c:5]([H:12])[c:6]1[H:13])([H:7])([H:8])[H:9]>>[C:1]([N+:2]1([H:13])[C:3]([H:10])=[C:4]([H:11])[C:5]([H:12])=[C-:6]1)([H:7])([H:8])[H:9]"
C       -1.80363527       0.33123234       0.10884651
N       -0.41004348       0.10264839      -0.25349703
C        0.25098799      -1.06629329       0.14471721
C        1.56022807      -0.76378624       0.31247055
C        1.74487259       0.61691420      -0.01430334
C        0.54548436       1.22939988      -0.26954885
H       -1.88737981       0.50499840       1.18085999
H       -2.40773885      -0.53138641      -0.17392687
H       -2.15945012       1.21135701      -0.42246565
H       -0.29129069      -1.96375231       0.40101483
H        2.33460578      -1.47524537       0.56077972
H        2.70191608       1.07411658      -0.22106047
H       -0.17855665       0.72979682      -1.35388658
13
Frame=10 idx=000505 GeodesicLength=0.4410848477073762 rxn_smarts="[C:1]([n:2]1[c:3]([H:10])[c:4]([H:11])[c:5]([H:12])[c:6]1[H:13])([H:7])([H:8])[H:9]>>[C:1]([N+:2]1([H:13])[C:3]([H:10])=[C:4]([H:11])[C:5]([H:12])=[C-:6]1)([H:7])([H:8])[H:9]"
C       -1.80139446       0.32930280       0.10920967
N       -0.40953135       0.10185315      -0.26144379
C        0.25114234      -1.06791568       0.14038520
C        1.55858797      -0.76481478       0.31837636
C        1.74478307       0.61699482      -0.00764278
C        0.54512277       1.22384502      -0.26900746
H       -1.87989382       0.50723346       1.18098560
H       -2.40540480      -0.53552851      -0.16697207
H       -2.16380808       1.20567846      -0.42382224
H       -0.29193542      -1.96279646       0.40416444
H        2.33272205      -1.47720473       0.56462610
H        2.70141212       1.07105486      -0.22312702
H       -0.18180239       0.75229759      -1.36573203
13
Frame=11 idx=000505 GeodesicLength=0.48511296835231676 rxn_smarts="[C:1]([n:2]1[c:3]([H:10])[c:4]([H:11])[c:5]([H:12])[c:6]1[H:13])([H:7])([H:8])[H:9]>>[C:1]([N+:2]1([H:13])[C:3]([H:10])=[C:4]([H:11])[C:5]([H:12])=[C-:6]1)([H:7])([H:8])[H:9]"
C       -1.79910720       0.32734488       0.10953447
N       -0.40900474       0.10095109      -0.26936768
C        0.25130611      -1.06954472       0.13639804
C        1.55692174      -0.76585534       0.32437298
C        1.74466656       0.61699292      -0.00121233
C        0.54479545       1.21813785      -0.26891368
H       -1.87240624       0.50957996       1.18100567
H       -2.40298844      -0.53969102      -0.15999147
H       -2.16813121       1.19989007      -0.42523064
H       -0.29255723      -1.96191335       0.40726026
H        2.33088753      -1.47917738       0.56836229
H        2.70088623       1.06796489      -0.22493254
H       -0.18526855       0.77532014      -1.37728536
13
Frame=12 idx=000505 GeodesicLength=0.5291465279453242 rxn_smarts="[C:1]([n:2]1[c:3]([H:10])[c:4]([H:11])[c:5]([H:12])[c:6]1[H:13])([H:7])([H:8])[H:9]>>[C:1]([N+:2]1([H:13])[C:3]([H:10])=[C:4]([H:11])[C:5]([H:12])=[C-:6]1)([H:7])([H:8])[H:9]"
C       -1.79675700       0.32534667       0.10982006
N       -0.40846014       0.09993653      -0.27730945
C        0.25148344      -1.07120227       0.13265607
C        1.55521817      -0.76693095       0.33038919
C        1.74451013       0.61689786       0.00497538
C        0.54449658       1.21227314      -0.26925641
H       -1.86487021       0.51199591       1.18092214
H       -2.40047675      -0.54387696      -0.15298215
H       -2.17241736       1.19399103      -0.42666013
H       -0.29315580      -1.96108849       0.41032548
H        2.32905758      -1.48112037       0.57217294
H        2.70033982       1.06482353      -0.22653560
H       -0.18896847       0.79895437      -1.38851752
13
Frame=13 idx=000505 GeodesicLength=0.573163407979546 rxn_smarts="[C:1]([n:2]1[c:3]([H:10])[c:4]([H:11])[c:5]([H:12])[c:6]1[H:13])([H:7])([H:8])[H:9]>>[C:1]([N+:2]1([H:13])[C:3]([H:10])=[C:4]([H:11])[C:5]([H:12])=[C-:6]1)([H:7])([H:8])[H:9]"
C       -1.79434722       0.32331759       0.11006347
N       -0.40790242       0.09879270      -0.28525728
C        0.25166711      -1.07288205       0.12923361
C        1.55348855      -0.76802283       0.33648117
C        1.74431650       0.61672029       0.01093434
C        0.54423699       1.20624090      -0.27007916
H       -1.85729656       0.51452060       1.18072610
H       -2.39788150      -0.54807339      -0.14593917
H       -2.17665263       1.18798406      -0.42813560
H       -0.29373173      -1.96035005       0.41333855
H        2.32725744      -1.48305389       0.57593508
H        2.69976516       1.06165739      -0.22788269
H       -0.19291970       0.82314869      -1.39941844
13
Frame=14 idx=000505 GeodesicLength=0.6171789110931766 rxn_smarts="[C:1]([n:2]1[c:3]([H:10])[c:4]([H:11])[c:5]([H:12])[c:6]1[H:13])([H:7])([H:8])[H:9]>>[C:1]([N+:2]1([H:13])[C:3]([H:10])=[C:4]([H:11])[C:5]([H:12])=[C-:6]1)([H:7])([H:8])[H:9]"
C       -1.79186960       0.32124118       0.11028362
N       -0.40733091       0.09752193      -0.29325743
C        0.25187039      -1.07461403       0.12596829
C        1.55172176      -0.76913479       0.34260806
C        1.74409658       0.61645304       0.01662388
C        0.54401915       1.20004779      -0.27136061
H       -1.84963430       0.51708111       1.18044953
H       -2.39520497      -0.55228712      -0.13886053
H       -2.18085367       1.18187545      -0.42958056
H       -0.29428455      -1.95972602       0.41617328
H        2.32541798      -1.48489276       0.58007434
H        2.69919390       1.05839360      -0.22918039
H       -0.19714176       0.84804061      -1.40994146
13
Frame=15 idx=000505 GeodesicLength=0.661198579775063 rxn_smarts="[C:1]([n:2]1[c:3]([H:10])[c:4]([H:11])[c:5]([H:12])[c:6]1[H:13])([H:7])([H:8])[H:9]>>[C:1]([N+:2]1([H:13])[C:3]([H:10])=[C:4]([H:11])[C:5]([H:12])=[C-:6]1)([H:7])([H:8])[H:9]"
C       -1.78930810       0.31910986       0.11049394
N       -0.40674597       0.09612301      -0.30134354
C        0.25209937      -1.07641211       0.12277563
C        1.54990758      -0.77026609       0.34876306
C        1.74385116       0.61609114       0.02201849
C        0.54384882       1.19369116      -0.27311451
H       -1.84183100       0.51966142       1.18010626
H       -2.39243755      -0.55652171      -0.13171685
H       -2.18502324       1.17565814      -0.43096416
H       -0.29480457      -1.95924740       0.41871352
H        2.32348874      -1.48659277       0.58484259
H        2.69862323       1.05499532      -0.23052760
H       -0.20166849       0.87371003      -1.42004685
13
Frame=16 idx=000505 GeodesicLength=0.7052185526926235 rxn_smarts="[C:1]([n:2]1[c:3]([H:10])[c:4]([H:11])[c:5]([H:12])[c:6]1[H:13])([H:7])([H:8])[H:9]>>[C:1]([N+:2]1([H:13])[C:3]([H:10])=[C:4]([H:11])[C:5]([H:12])=[C-:6]1)([H:7])([H:8])[H:9]"
C       -1.78666546       0.31692579       0.11067672
N       -0.40614986       0.09457981      -0.30951574
C        0.25235258      -1.07827926       0.11968789
C        1.54804247      -0.77140677       0.35497563
C        1.74357111       0.61564399       0.02714424
C        0.54372554       1.18715952      -0.27537163
H       -1.83389798       0.52227117       1.17967576
H       -2.38958297      -0.56077335      -0.12452597
H       -2.18914989       1.16933821      -0.43230788
H       -0.29529561      -1.95890207       0.42105230
H        2.32149402      -1.48817827       0.59008925
H        2.69805133       1.05147911      -0.23187428
H       -0.20649528       0.90014211      -1.42970629
