15
Frame=0 idx=009893 GeodesicLength=0.0 rxn_smarts="[C:1]([C@@:2]1([H:11])[C@:3]([C:4]#[N:5])([H:12])[N:6]1[C:7]([H:13])([H:14])[H:15])([H:8])([H:9])[H:10]>>[C:1]([C@@:2]1([H:11])[C:3]([H:12])=[C:4]=[N:5][N:6]1[C:7]([H:13])([H:14])[H:15])([H:8])([H:9])[H:10]"
C       -1.50890507       0.09628607       0.25293063
C       -0.29044053      -0.08953936      -0.64089909
C        0.01733611       1.00951772      -1.63826361
C        0.47881639       1.96731501      -0.80851902
N        0.89210805       1.98986340       0.31776981
N        1.05622638      -0.06944057       0.02729751
C        1.20996180      -1.07128880       1.04079627
H       -1.44296353       1.01998873       0.82715660
H       -2.40937745       0.13101152      -0.36255678
H       -1.61772053      -0.73661714       0.94936507
H       -0.36909337      -1.06029344      -1.15021373
H        0.20442552       0.89423418      -2.69215350
H        1.09357529      -2.06086692       0.57404216
H        0.47000552      -1.00362567       1.84802187
H        2.21604548      -1.01654479       1.45522585
15
Frame=1 idx=009893 GeodesicLength=0.07816366168127421 rxn_smarts="[C:1]([C@@:2]1([H:11])[C@:3]([C:4]#[N:5])([H:12])[N:6]1[C:7]([H:13])([H:14])[H:15])([H:8])([H:9])[H:10]>>[C:1]([C@@:2]1([H:11])[C:3]([H:12])=[C:4]=[N:5][N:6]1[C:7]([H:13])([H:14])[H:15])([H:8])([H:9])[H:10]"
C       -1.52713481       0.09682597       0.24807640
C       -0.30235439      -0.09342219      -0.63364833
C        0.04132340       0.99607705      -1.62395618
C        0.47968874       1.97968641      -0.80705165
N        0.88965639       1.99839247       0.32569335
N        1.03645669      -0.05248286       0.03979038
C        1.22020430      -1.06935276       1.03338988
H       -1.46482830       1.02200825       0.82026872
H       -2.42133682       0.13327506      -0.37626679
H       -1.64023524      -0.73436883       0.94593227
H       -0.37604995      -1.06382128      -1.14371728
H        0.23286860       0.87343213      -2.67638126
H        1.07960541      -2.05740206       0.57092494
H        0.51053387      -1.00073656       1.86657305
H        2.24160211      -1.02811079       1.41037250
15
Frame=2 idx=009893 GeodesicLength=0.15634563112050642 rxn_smarts="[C:1]([C@@:2]1([H:11])[C@:3]([C:4]#[N:5])([H:12])[N:6]1[C:7]([H:13])([H:14])[H:15])([H:8])([H:9])[H:10]>>[C:1]([C@@:2]1([H:11])[C:3]([H:12])=[C:4]=[N:5][N:6]1[C:7]([H:13])([H:14])[H:15])([H:8])([H:9])[H:10]"
C       -1.54560939       0.09733004       0.24260203
C       -0.31400806      -0.09726793      -0.62620707
C        0.06493368       0.98278106      -1.60847308
C        0.48162286       1.99154528      -0.80584110
N        0.88750219       2.00701593       0.33364428
N        1.01610037      -0.03575097       0.05365410
C        1.23055071      -1.06734125       1.02600974
H       -1.48700692       1.02394425       0.81282497
H       -2.43312015       0.13558820      -0.39099360
H       -1.66374146      -0.73228457       0.94156448
H       -0.38246499      -1.06727238      -1.13709157
H        0.26027425       0.85273804      -2.65950441
H        1.06508029      -2.05390190       0.56947556
H        0.55359306      -0.99766913       1.88520811
H        2.26629355      -1.03945466       1.36312756
15
Frame=3 idx=009893 GeodesicLength=0.2345286873290952 rxn_smarts="[C:1]([C@@:2]1([H:11])[C@:3]([C:4]#[N:5])([H:12])[N:6]1[C:7]([H:13])([H:14])[H:15])([H:8])([H:9])[H:10]>>[C:1]([C@@:2]1([H:11])[C:3]([H:12])=[C:4]=[N:5][N:6]1[C:7]([H:13])([H:14])[H:15])([H:8])([H:9])[H:10]"
C       -1.56437331       0.09781873       0.23648589
C       -0.32545409      -0.10109376      -0.61854588
C        0.08814595       0.96960290      -1.59180650
C        0.48469025       2.00283263      -0.80478638
N        0.88566189       2.01562938       0.34173409
N        0.99508830      -0.01929109       0.06889872
C        1.24102012      -1.06521194       1.01861301
H       -1.50955873       1.02582466       0.80479165
H       -2.44473755       0.13796945      -0.40677460
H       -1.68829287      -0.73032487       0.93624731
H       -0.38840300      -1.07067154      -1.13028409
H        0.28675933       0.83211273      -2.64149596
H        1.05010693      -2.05033239       0.56980472
H        0.59941335      -0.99442144       1.90376640
H        2.28993344      -1.05044343       1.31335160
15
Frame=4 idx=009893 GeodesicLength=0.3126971669142522 rxn_smarts="[C:1]([C@@:2]1([H:11])[C@:3]([C:4]#[N:5])([H:12])[N:6]1[C:7]([H:13])([H:14])[H:15])([H:8])([H:9])[H:10]>>[C:1]([C@@:2]1([H:11])[C:3]([H:12])=[C:4]=[N:5][N:6]1[C:7]([H:13])([H:14])[H:15])([H:8])([H:9])[H:10]"
C       -1.58347311       0.09830698       0.22970029
C       -0.33674828      -0.10492216      -0.61063805
C        0.11094217       0.95651327      -1.57393910
C        0.48896504       2.01348415      -0.80376773
N        0.88416049       2.02411026       0.35008737
N        0.97335077      -0.00316130       0.08552458
C        1.25162986      -1.06291080       1.01115595
H       -1.53254536       1.02767209       0.79612935
H       -2.45619873       0.14043083      -0.42365309
H       -1.71394578      -0.72845478       0.92995844
H       -0.39392940      -1.07404890      -1.12324655
H        0.31244548       0.81152292      -2.62231744
H        1.03477824      -2.04665296       0.57205088
H        0.64825297      -0.99093991       1.92206203
H        2.31231563      -1.06094971       1.26089305
15
Frame=5 idx=009893 GeodesicLength=0.39083656417201634 rxn_smarts="[C:1]([C@@:2]1([H:11])[C@:3]([C:4]#[N:5])([H:12])[N:6]1[C:7]([H:13])([H:14])[H:15])([H:8])([H:9])[H:10]>>[C:1]([C@@:2]1([H:11])[C:3]([H:12])=[C:4]=[N:5][N:6]1[C:7]([H:13])([H:14])[H:15])([H:8])([H:9])[H:10]"
C       -1.60295214       0.09880008       0.22220935
C       -0.34794725      -0.10878155      -0.60246263
C        0.13330276       0.94348487      -1.55484399
C        0.49452621       2.02342864      -0.80264279
N        0.88303604       2.03231015       0.35884333
N        0.95082193       0.01256417       0.10351359
C        1.26239352      -1.06037105       1.00359785
H       -1.55602244       1.02949507       0.78679396
H       -2.46750708       0.14297719      -0.44167805
H       -1.74075615      -0.72665057       0.92266109
H       -0.39910788      -1.07743859      -1.11593847
H        0.33744589       0.79095328      -2.60191990
H        1.01916608      -2.04281465       0.57639868
H        0.70039889      -0.98709680       1.93987772
H        2.33320162      -1.07086024       1.20559026
15
Frame=6 idx=009893 GeodesicLength=0.4689322400022965 rxn_smarts="[C:1]([C@@:2]1([H:11])[C@:3]([C:4]#[N:5])([H:12])[N:6]1[C:7]([H:13])([H:14])[H:15])([H:8])([H:9])[H:10]>>[C:1]([C@@:2]1([H:11])[C:3]([H:12])=[C:4]=[N:5][N:6]1[C:7]([H:13])([H:14])[H:15])([H:8])([H:9])[H:10]"
C       -1.62284398       0.09929601       0.21397046
C       -0.35910260      -0.11270578      -0.59400388
C        0.15520215       0.93049086      -1.53448764
C        0.50145275       2.03258982      -0.80124977
N        0.88234155       2.04006146       0.36815227
N        0.92744893       0.02779836       0.12282970
C        1.27331846      -1.05751296       0.99589957
H       -1.58002998       1.03128984       0.77674558
H       -2.47865416       0.14561681      -0.46090361
H       -1.76877504      -0.72490378       0.91429824
H       -0.40399232      -1.08087977      -1.10832712
H        0.36183586       0.77040294      -2.58025532
H        1.00333824      -2.03875031       0.58307131
H        0.75615384      -0.98270149       1.95694505
H        2.35230629      -1.08009203       1.14731515
15
Frame=7 idx=009893 GeodesicLength=0.5469767352653332 rxn_smarts="[C:1]([C@@:2]1([H:11])[C@:3]([C:4]#[N:5])([H:12])[N:6]1[C:7]([H:13])([H:14])[H:15])([H:8])([H:9])[H:10]>>[C:1]([C@@:2]1([H:11])[C:3]([H:12])=[C:4]=[N:5][N:6]1[C:7]([H:13])([H:14])[H:15])([H:8])([H:9])[H:10]"
C       -1.64317245       0.09978161       0.20493603
C       -0.37026281      -0.11673455      -0.58525532
C        0.17660415       0.91751144      -1.51283568
C        0.50982851       2.04088667      -0.79940625
N        0.88215327       2.04717062       0.37817742
N        0.90319813       0.04243907       0.14340705
C        1.28440474      -1.05424773       0.98802994
H       -1.60458895       1.03303146       0.76595278
H       -2.48962245       0.14835792      -0.48138207
H       -1.79804926      -0.72322435       0.90479268
H       -0.40863180      -1.08441569      -1.10039189
H        0.38565871       0.74989863      -2.55728224
H        0.98736296      -2.03437899       0.59234277
H        0.81582369      -0.97748512       1.97293944
H        2.36929357      -1.08859099       1.08597533
15
Frame=8 idx=009893 GeodesicLength=0.6249696085214773 rxn_smarts="[C:1]([C@@:2]1([H:11])[C@:3]([C:4]#[N:5])([H:12])[N:6]1[C:7]([H:13])([H:14])[H:15])([H:8])([H:9])[H:10]>>[C:1]([C@@:2]1([H:11])[C:3]([H:12])=[C:4]=[N:5][N:6]1[C:7]([H:13])([H:14])[H:15])([H:8])([H:9])[H:10]"
C       -1.66394448       0.10023686       0.19505893
C       -0.38146810      -0.12091146      -0.57621728
C        0.19745797       0.90453178      -1.48985728
C        0.51972637       2.04823880      -0.79691486
N        0.88256312       2.05342857       0.38908588
N        0.87806024       0.05637352       0.16515182
C        1.29564368      -1.05047837       0.97996446
H       -1.62969512       1.03468041       0.75440092
H       -2.50037910       0.15121614      -0.50315746
H       -1.82861198      -0.72163914       0.89405102
H       -0.41306233      -1.08809386      -1.09211998
H        0.40892247       0.72948259      -2.53296963
H        0.97132675      -2.02959276       0.60451751
H        0.87968719      -0.97112242       1.98745440
H        2.38377332      -1.09635066       1.02155157
15
Frame=9 idx=009893 GeodesicLength=0.7029199529646992 rxn_smarts="[C:1]([C@@:2]1([H:11])[C@:3]([C:4]#[N:5])([H:12])[N:6]1[C:7]([H:13])([H:14])[H:15])([H:8])([H:9])[H:10]>>[C:1]([C@@:2]1([H:11])[C:3]([H:12])=[C:4]=[N:5][N:6]1[C:7]([H:13])([H:14])[H:15])([H:8])([H:9])[H:10]"
C       -1.68514516       0.10062971       0.18429466
C       -0.39275025      -0.12528305      -0.56690089
C        0.21769287       0.89155388      -1.46553667
C        0.53121038       2.05457248      -0.79357216
N        0.88368833       2.05860335       0.40104032
N        0.85205847       0.06947472       0.18793013
C        1.30701650      -1.04610669       0.97169764
H       -1.65530939       1.03616932       0.74209578
H       -2.51087210       0.15421380      -0.52625953
H       -1.86047872      -0.72019964       0.88196477
H       -0.41731149      -1.09196149      -1.08350821
H        0.43159017       0.70924019      -2.50731033
H        0.95534220      -2.02426270       0.61994176
H        0.94797169      -0.96322821       2.00000574
H        2.39529650      -1.10341567       0.95411700
15
Frame=10 idx=009893 GeodesicLength=0.7808520091218121 rxn_smarts="[C:1]([C@@:2]1([H:11])[C@:3]([C:4]#[N:5])([H:12])[N:6]1[C:7]([H:13])([H:14])[H:15])([H:8])([H:9])[H:10]>>[C:1]([C@@:2]1([H:11])[C:3]([H:12])=[C:4]=[N:5][N:6]1[C:7]([H:13])([H:14])[H:15])([H:8])([H:9])[H:10]"
C       -1.70672416       0.10092819       0.17261139
C       -0.40412448      -0.12989549      -0.55732331
C        0.23720959       0.87858497      -1.43987312
C        0.54431391       2.05981862      -0.78917582
N        0.88566062       2.06246181       0.41418248
N        0.82525940       0.08161838       0.21156294
C        1.31849040      -1.04103505       0.96322509
H       -1.68134506       1.03742166       0.72907822
H       -2.52102302       0.15739288      -0.55068638
H       -1.89362310      -0.71897059       0.86841068
H       -0.42138784      -1.09606606      -1.07456006
H        0.45354784       0.68926574      -2.48032000
H        0.93959361      -2.01821977       0.63892885
H        1.02077072      -0.95340440       2.00998591
H        2.40338157      -1.10990089       0.88395314
15
Frame=11 idx=009893 GeodesicLength=0.8588157496012407 rxn_smarts="[C:1]([C@@:2]1([H:11])[C@:3]([C:4]#[N:5])([H:12])[N:6]1[C:7]([H:13])([H:14])[H:15])([H:8])([H:9])[H:10]>>[C:1]([C@@:2]1([H:11])[C:3]([H:12])=[C:4]=[N:5][N:6]1[C:7]([H:13])([H:14])[H:15])([H:8])([H:9])[H:10]"
C       -1.72860747       0.10108515       0.16000094
C       -0.41559205      -0.13479271      -0.54751566
C        0.25589105       0.86565866      -1.41291041
C        0.55905493       2.06393658      -0.78354417
N        0.88864022       2.06478894       0.42863889
N        0.79778811       0.09269656       0.23582906
C        1.33001874      -1.03517746       0.95456826
H       -1.70768150       1.03833512       0.71543981
H       -2.53074681       0.16078889      -0.57639715
H       -1.92798637      -0.71804502       0.85327489
H       -0.42529051      -1.10045429      -1.06530234
H        0.47464047       0.66969323      -2.45208135
H        0.92431320      -2.01127793       0.66176654
H        1.09800850      -0.94122361       2.01673197
H        2.40754950      -1.11601210       0.81150072
15
Frame=12 idx=009893 GeodesicLength=0.9368770528072606 rxn_smarts="[C:1]([C@@:2]1([H:11])[C@:3]([C:4]#[N:5])([H:12])[N:6]1[C:7]([H:13])([H:14])[H:15])([H:8])([H:9])[H:10]>>[C:1]([C@@:2]1([H:11])[C:3]([H:12])=[C:4]=[N:5][N:6]1[C:7]([H:13])([H:14])[H:15])([H:8])([H:9])[H:10]"
C       -1.75068994       0.10106553       0.14648808
C       -0.42713876      -0.14000846      -0.53750574
C        0.27359873       0.85281277      -1.38472330
C        0.57540033       2.06689512      -0.77653737
N        0.89278137       2.06537977       0.44447711
N        0.76980950       0.10261534       0.26047787
C        1.34154919      -1.02846214       0.94574969
H       -1.73416671       1.03881259       0.70131034
H       -2.53994161       0.16446090      -0.60329457
H       -1.96345732      -0.71750638       0.83646852
H       -0.42900499      -1.10515719      -1.05575267
H        0.49468649       0.65064769      -2.42270273
H        0.90984117      -2.00321398       0.68861426
H        1.17935309      -0.92635449       2.01948654
H        2.40737947      -1.12198705       0.73744398
15
Frame=13 idx=009893 GeodesicLength=1.0151270145683977 rxn_smarts="[C:1]([C@@:2]1([H:11])[C@:3]([C:4]#[N:5])([H:12])[N:6]1[C:7]([H:13])([H:14])[H:15])([H:8])([H:9])[H:10]>>[C:1]([C@@:2]1([H:11])[C:3]([H:12])=[C:4]=[N:5][N:6]1[C:7]([H:13])([H:14])[H:15])([H:8])([H:9])[H:10]"
C       -1.77283767       0.10083204       0.13212111
C       -0.43874506      -0.14556461      -0.52732828
C        0.29017358       0.84010527      -1.35542972
C        0.59328290       2.06868788      -0.76806629
N        0.89825845       2.06404948       0.46171240
N        0.74152960       0.11130439       0.28523867
C        1.35302422      -1.02084386       0.93681672
H       -1.76060767       1.03874159       0.68685025
H       -2.54849906       0.16847248      -0.63124267
H       -1.99987161      -0.71744503       0.81792008
H       -0.43253174      -1.11018549      -1.04593784
H        0.51346689       0.63227721      -2.39233466
H        0.89657986      -1.99379763       0.71952041
H        1.26423634      -0.90854534       2.01751142
H        2.40254097      -1.12808838       0.66264842
15
Frame=14 idx=009893 GeodesicLength=1.0936818170306133 rxn_smarts="[C:1]([C@@:2]1([H:11])[C@:3]([C:4]#[N:5])([H:12])[N:6]1[C:7]([H:13])([H:14])[H:15])([H:8])([H:9])[H:10]>>[C:1]([C@@:2]1([H:11])[C:3]([H:12])=[C:4]=[N:5][N:6]1[C:7]([H:13])([H:14])[H:15])([H:8])([H:9])[H:10]"
C       -1.79489597       0.10035025       0.11700105
C       -0.45036622      -0.15146715      -0.51701927
C        0.30547288       0.82760797      -1.32519336
C        0.61259312       2.06934939      -0.75810856
N        0.90521531       2.06069714       0.48029104
N        0.71319219       0.11875737       0.30981713
C        1.36437324      -1.01230366       0.92780359
H       -1.78681046       1.03802521       0.67227572
H       -2.55631064       0.17286929      -0.66002402
H       -2.03700807      -0.71794686       0.79761586
H       -0.43584138      -1.11553979      -1.03590168
H        0.53076886       0.61471335      -2.36117854
H        0.88496204      -1.98281060       0.75434542
H        1.35176301      -0.88765095       2.01011466
H        2.39289210      -1.13465095       0.58816095
15
Frame=15 idx=009893 GeodesicLength=1.1726539672066674 rxn_smarts="[C:1]([C@@:2]1([H:11])[C@:3]([C:4]#[N:5])([H:12])[N:6]1[C:7]([H:13])([H:14])[H:15])([H:8])([H:9])[H:10]>>[C:1]([C@@:2]1([H:11])[C:3]([H:12])=[C:4]=[N:5][N:6]1[C:7]([H:13])([H:14])[H:15])([H:8])([H:9])[H:10]"
C       -1.81670419       0.09958604       0.10125227
C       -0.46195651      -0.15770588      -0.50661816
C        0.31937150       0.81541045      -1.29422044
C        0.63319702       2.06895667      -0.74671321
N        0.91378430       2.05528384       0.50011227
N        0.68504587       0.12501115       0.33395166
C        1.37552767      -1.00285889       0.91876757
H       -1.81258358       1.03657264       0.65781743
H       -2.56327978       0.17768224      -0.68940198
H       -2.07460977      -0.71909624       0.77558893
H       -0.43891982      -1.12120210      -1.02570317
H        0.54640198       0.59809227      -2.32948257
H        0.87540941      -1.97007181       0.79281371
H        1.44086357      -0.86365041       1.99678859
H        2.37845232      -1.14200997       0.51504710
15
Frame=16 idx=009893 GeodesicLength=1.252173429673201 rxn_smarts="[C:1]([C@@:2]1([H:11])[C@:3]([C:4]#[N:5])([H:12])[N:6]1[C:7]([H:13])([H:14])[H:15])([H:8])([H:9])[H:10]>>[C:1]([C@@:2]1([H:11])[C:3]([H:12])=[C:4]=[N:5][N:6]1[C:7]([H:13])([H:14])[H:15])([H:8])([H:9])[H:10]"
C       -1.83810947       0.09851451       0.08501016
C       -0.47346437      -0.16424937      -0.49615268
C        0.33178247       0.80359148      -1.26271005
C        0.65493134       2.06758178      -0.73397699
N        0.92405058       2.04779820       0.52101953
N        0.65731319       0.13014487       0.35742496
C        1.38642167      -0.99254198       0.90973648
H       -1.83777197       1.03430212       0.64368700
H       -2.56932246       0.18293143      -0.71912076
H       -2.11239623      -0.72094728       0.75190149
H       -0.44174417      -1.12711538      -1.01539152
H        0.56024176       0.58251251      -2.29746033
H        0.86826824      -1.95538860       0.83455280
H        1.53039116      -0.83668307       1.97716466
H        2.35940826      -1.15045120       0.44431525
