14
Frame=0 idx=011724 GeodesicLength=0.0 rxn_smarts="[C:1]([c:2]1[c:3]([H:11])[o:4][c:5]([H:12])[c:6]1[N:7]([H:13])[H:14])([H:8])([H:9])[H:10]>>[C:1]([N+:7]([C:6]1=[C:2]=[C:3]([H:11])[O:4][C-:5]1[H:12])([H:13])[H:14])([H:8])([H:9])[H:10]"
C       -1.48643820       1.04735516       0.96698862
C       -0.56919881      -0.83437579      -0.18270215
C       -0.20775518      -1.98337952      -0.80176597
O        1.10827482      -1.94923313      -1.21924278
C        1.59171523      -0.74429284      -0.85534511
C        0.60671348      -0.05683819      -0.23310009
N        0.50656750       1.22865932       0.35495749
H       -1.62704135       0.31985289       1.74951214
H       -2.21287358       0.97837274       0.17440129
H       -1.30953209       2.05611279       1.32160674
H       -0.71406312      -2.90653335      -1.03525654
H        2.62075092      -0.54399223      -1.10651387
H        0.58968953       2.00364514      -0.29220413
H        1.10319088       1.38464698       1.15866438
14
Frame=1 idx=011724 GeodesicLength=0.05219734473343318 rxn_smarts="[C:1]([c:2]1[c:3]([H:11])[o:4][c:5]([H:12])[c:6]1[N:7]([H:13])[H:14])([H:8])([H:9])[H:10]>>[C:1]([N+:7]([C:6]1=[C:2]=[C:3]([H:11])[O:4][C-:5]1[H:12])([H:13])[H:14])([H:8])([H:9])[H:10]"
C       -1.47295087       1.02881202       0.97271250
C       -0.58212802      -0.80882508      -0.22483896
C       -0.21036978      -1.97590088      -0.80258315
O        1.11761499      -1.96340833      -1.17963190
C        1.59759782      -0.74940120      -0.84149209
C        0.60307788      -0.04294266      -0.25704879
N        0.50254589       1.24309929       0.33100143
H       -1.65985322       0.26815193       1.71387746
H       -2.20850373       1.04002592       0.18438836
H       -1.28344288       2.00299175       1.40933213
H       -0.71701518      -2.90229774      -1.02242480
H        2.63691015      -0.56465550      -1.06004579
H        0.54540218       2.01007718      -0.32964136
H        1.13111478       1.41427328       1.10639495
14
Frame=2 idx=011724 GeodesicLength=0.10434972471774853 rxn_smarts="[C:1]([c:2]1[c:3]([H:11])[o:4][c:5]([H:12])[c:6]1[N:7]([H:13])[H:14])([H:8])([H:9])[H:10]>>[C:1]([N+:7]([C:6]1=[C:2]=[C:3]([H:11])[O:4][C-:5]1[H:12])([H:13])[H:14])([H:8])([H:9])[H:10]"
C       -1.45828682       1.00932476       0.97864872
C       -0.59125150      -0.78757426      -0.25736166
C       -0.21133911      -1.97081812      -0.79550854
O        1.12616749      -1.97760525      -1.13511616
C        1.60410343      -0.75582159      -0.82228146
C        0.60079263      -0.03029888      -0.27786644
N        0.49785047       1.25858386       0.30491042
H       -1.69126239       0.22223167       1.67911856
H       -2.20131440       1.09628787       0.20081503
H       -1.25509450       1.94420404       1.48972077
H       -0.72654446      -2.88853372      -1.03138645
H        2.65117886      -0.58398701      -1.01229625
H        0.49794620       2.01395035      -0.37050406
H        1.15705413       1.45005628       1.04910752
14
Frame=3 idx=011724 GeodesicLength=0.1577890566387457 rxn_smarts="[C:1]([c:2]1[c:3]([H:11])[o:4][c:5]([H:12])[c:6]1[N:7]([H:13])[H:14])([H:8])([H:9])[H:10]>>[C:1]([N+:7]([C:6]1=[C:2]=[C:3]([H:11])[O:4][C-:5]1[H:12])([H:13])[H:14])([H:8])([H:9])[H:10]"
C       -1.44366140       0.98861791       0.98176459
C       -0.60142100      -0.76286404      -0.29763062
C       -0.21481638      -1.96164641      -0.79494750
O        1.13086943      -1.98710906      -1.09699838
C        1.60905584      -0.75992332      -0.80585677
C        0.59824511      -0.01565629      -0.30246731
N        0.49383786       1.27360270       0.28079315
H       -1.72725252       0.17695922       1.63515875
H       -2.19103157       1.15766195       0.22044970
H       -1.22211838       1.87447045       1.56792448
H       -0.73040486      -2.88297847      -1.01523003
H        2.66375809      -0.60210099      -0.96274947
H        0.45363071       2.01942440      -0.40415572
H        1.18130906       1.48154195       0.99394513
14
Frame=4 idx=011724 GeodesicLength=0.21072307136209212 rxn_smarts="[C:1]([c:2]1[c:3]([H:11])[o:4][c:5]([H:12])[c:6]1[N:7]([H:13])[H:14])([H:8])([H:9])[H:10]>>[C:1]([N+:7]([C:6]1=[C:2]=[C:3]([H:11])[O:4][C-:5]1[H:12])([H:13])[H:14])([H:8])([H:9])[H:10]"
C       -1.42849407       0.96779298       0.98451693
C       -0.60870353      -0.74230982      -0.32910067
C       -0.21801904      -1.95294926      -0.79325203
O        1.13363504      -1.99429521      -1.06232613
C        1.61434731      -0.76494028      -0.78421277
C        0.59663675      -0.00237814      -0.32428882
N        0.48935588       1.28880682       0.25600779
H       -1.76218829       0.13897024       1.59247546
H       -2.17833407       1.21415941       0.24562424
H       -1.18746083       1.80104004       1.63716599
H       -0.73677087      -2.87355198      -1.00923527
H        2.67477628      -0.61900055      -0.91077883
H        0.40814551       2.02224478      -0.43881468
H        1.20307392       1.51641096       0.93621878
14
Frame=5 idx=011724 GeodesicLength=0.2639610462577925 rxn_smarts="[C:1]([c:2]1[c:3]([H:11])[o:4][c:5]([H:12])[c:6]1[N:7]([H:13])[H:14])([H:8])([H:9])[H:10]>>[C:1]([N+:7]([C:6]1=[C:2]=[C:3]([H:11])[O:4][C-:5]1[H:12])([H:13])[H:14])([H:8])([H:9])[H:10]"
C       -1.41294813       0.94685469       0.98635689
C       -0.61496252      -0.72333271      -0.35768258
C       -0.22103196      -1.94468719      -0.78981087
O        1.13522400      -2.00007272      -1.02857139
C        1.61900099      -0.76958860      -0.76021328
C        0.59520477       0.01065485      -0.34594817
N        0.48450301       1.30407475       0.23084833
H       -1.79673748       0.10624170       1.54837912
H       -2.16314293       1.26896342       0.27599272
H       -1.15023310       1.72210636       1.69999713
H       -0.74369775      -2.86285484      -1.00689151
H        2.68395942      -0.63436041      -0.85691831
H        0.36250814       2.02385974      -0.47245825
H        1.22235355       1.55214096       0.87692016
14
Frame=6 idx=011724 GeodesicLength=0.3185981736933545 rxn_smarts="[C:1]([c:2]1[c:3]([H:11])[o:4][c:5]([H:12])[c:6]1[N:7]([H:13])[H:14])([H:8])([H:9])[H:10]>>[C:1]([N+:7]([C:6]1=[C:2]=[C:3]([H:11])[O:4][C-:5]1[H:12])([H:13])[H:14])([H:8])([H:9])[H:10]"
C       -1.39711561       0.92501649       0.98679624
C       -0.62103083      -0.70437166      -0.38697550
C       -0.22425101      -1.93600436      -0.78582717
O        1.13613464      -2.00519336      -0.99174886
C        1.62244738      -0.77296408      -0.73565945
C        0.59350196       0.02439572      -0.36978875
N        0.47920395       1.31927656       0.20539573
H       -1.83186788       0.07776323       1.50140323
H       -2.14515301       1.32404192       0.31250926
H       -1.10919172       1.63530260       1.75675685
H       -0.75017415      -2.85206203      -1.00399985
H        2.69095553      -0.64778832      -0.80122745
H        0.31710890       2.02540260      -0.50387281
H        1.23943186       1.58718468       0.81623851
14
Frame=7 idx=011724 GeodesicLength=0.3738532102087002 rxn_smarts="[C:1]([c:2]1[c:3]([H:11])[o:4][c:5]([H:12])[c:6]1[N:7]([H:13])[H:14])([H:8])([H:9])[H:10]>>[C:1]([N+:7]([C:6]1=[C:2]=[C:3]([H:11])[O:4][C-:5]1[H:12])([H:13])[H:14])([H:8])([H:9])[H:10]"
C       -1.38116151       0.90317554       0.98590678
C       -0.62660105      -0.68639477      -0.41493404
C       -0.22784073      -1.92673342      -0.78351166
O        1.13580960      -2.00857475      -0.95679423
C        1.62493673      -0.77552682      -0.70933408
C        0.59189392       0.03799487      -0.39402635
N        0.47361059       1.33429095       0.17996117
H       -1.86609088       0.05467409       1.45337146
H       -2.12435398       1.37737092       0.35457849
H       -1.06613099       1.54305992       1.80599774
H       -0.75626836      -2.84182789      -0.99983753
H        2.69596540      -0.65965995      -0.74262088
H        0.27216553       2.02609288      -0.53358924
H        1.25406573       1.62205845       0.75483239
14
Frame=8 idx=011724 GeodesicLength=0.43005762885231824 rxn_smarts="[C:1]([c:2]1[c:3]([H:11])[o:4][c:5]([H:12])[c:6]1[N:7]([H:13])[H:14])([H:8])([H:9])[H:10]>>[C:1]([N+:7]([C:6]1=[C:2]=[C:3]([H:11])[O:4][C-:5]1[H:12])([H:13])[H:14])([H:8])([H:9])[H:10]"
C       -1.36516756       0.88129654       0.98282082
C       -0.63199852      -0.66789608      -0.44455639
C       -0.23204636      -1.91602672      -0.78410940
O        1.13394309      -2.00961358      -0.92528210
C        1.62610986      -0.77648991      -0.68354810
C        0.59054384       0.05197588      -0.41927531
N        0.46827112       1.34895980       0.15542591
H       -1.89869194       0.03588998       1.40263737
H       -2.10050781       1.42849514       0.40147323
H       -1.02249614       1.44458551       1.84737600
H       -0.76208199      -2.83338320      -0.98651435
H        2.69859247      -0.66993985      -0.68117877
H        0.22896655       2.02689201      -0.56001572
H        1.26656338       1.65525446       0.69474680
14
Frame=9 idx=011724 GeodesicLength=0.4879189481477053 rxn_smarts="[C:1]([c:2]1[c:3]([H:11])[o:4][c:5]([H:12])[c:6]1[N:7]([H:13])[H:14])([H:8])([H:9])[H:10]>>[C:1]([N+:7]([C:6]1=[C:2]=[C:3]([H:11])[O:4][C-:5]1[H:12])([H:13])[H:14])([H:8])([H:9])[H:10]"
C       -1.34952315       0.85921116       0.97766522
C       -0.63702597      -0.64960809      -0.47458188
C       -0.23625473      -1.90481691      -0.78561438
O        1.13129972      -2.00913308      -0.89488701
C        1.62614905      -0.77615660      -0.65709175
C        0.58944036       0.06608289      -0.44532908
N        0.46290578       1.36319724       0.13164778
H       -1.93139827       0.02226711       1.34985242
H       -2.07289408       1.47806041       0.45398799
H       -0.97794874       1.33964252       1.88003453
H       -0.76771641      -2.82552324      -0.96811875
H        2.69872693      -0.67784289      -0.61911448
H        0.18716043       2.02745187      -0.58380697
H        1.27707908       1.68716761       0.63535636
14
Frame=10 idx=011724 GeodesicLength=0.5453549918635094 rxn_smarts="[C:1]([c:2]1[c:3]([H:11])[o:4][c:5]([H:12])[c:6]1[N:7]([H:13])[H:14])([H:8])([H:9])[H:10]>>[C:1]([N+:7]([C:6]1=[C:2]=[C:3]([H:11])[O:4][C-:5]1[H:12])([H:13])[H:14])([H:8])([H:9])[H:10]"
C       -1.33413721       0.83901167       0.97181318
C       -0.64119489      -0.63410647      -0.49921742
C       -0.23986950      -1.89481018      -0.78601879
O        1.12823998      -2.00702409      -0.87032393
C        1.62520319      -0.77545862      -0.62874693
C        0.58858695       0.07856738      -0.46874805
N        0.45748760       1.37668473       0.10864292
H       -1.96083410       0.01521187       1.30059477
H       -2.04289458       1.52224585       0.50951844
H       -0.93574002       1.23658201       1.90309614
H       -0.77329396      -2.81704352      -0.95466177
H        2.69653299      -0.68410454      -0.55560658
H        0.14644245       2.02566855      -0.60667218
H        1.28547111       1.71857535       0.57633023
14
Frame=11 idx=011724 GeodesicLength=0.603880169337017 rxn_smarts="[C:1]([c:2]1[c:3]([H:11])[o:4][c:5]([H:12])[c:6]1[N:7]([H:13])[H:14])([H:8])([H:9])[H:10]>>[C:1]([N+:7]([C:6]1=[C:2]=[C:3]([H:11])[O:4][C-:5]1[H:12])([H:13])[H:14])([H:8])([H:9])[H:10]"
C       -1.31908371       0.82004765       0.96527710
C       -0.64507959      -0.62057831      -0.52053291
C       -0.24291369      -1.88627283      -0.78286299
O        1.12532492      -2.00466630      -0.84465712
C        1.62310986      -0.77408406      -0.59883802
C        0.58765954       0.08993426      -0.49097063
N        0.45177525       1.38957463       0.08589599
H       -1.98897434       0.01410237       1.25346957
H       -2.00931770       1.56317780       0.56955711
H       -0.89446785       1.13289959       1.91756011
H       -0.77837964      -2.80777538      -0.94903696
H        2.69205125      -0.68786221      -0.49265614
H        0.10628735       2.02213134      -0.62867587
H        1.29200838       1.74937147       0.51647074
14
Frame=12 idx=011724 GeodesicLength=0.663395355988385 rxn_smarts="[C:1]([c:2]1[c:3]([H:11])[o:4][c:5]([H:12])[c:6]1[N:7]([H:13])[H:14])([H:8])([H:9])[H:10]>>[C:1]([N+:7]([C:6]1=[C:2]=[C:3]([H:11])[O:4][C-:5]1[H:12])([H:13])[H:14])([H:8])([H:9])[H:10]"
C       -1.30495839       0.80182655       0.95691651
C       -0.64866851      -0.60722190      -0.54206689
C       -0.24587861      -1.87728336      -0.78111056
O        1.12216829      -2.00111279      -0.82112262
C        1.62005782      -0.77132742      -0.57043344
C        0.58712632       0.10103653      -0.51255237
N        0.44672189       1.40165476       0.06533886
H       -2.01666883       0.01762883       1.20526194
H       -1.97194246       1.60024397       0.63233800
H       -0.85699364       1.02742540       1.92358415
H       -0.78306171      -2.79981466      -0.93575835
H        2.68569546      -0.68914272      -0.43286765
H        0.06888483       2.01844278      -0.64702011
H        1.29751754       1.77764404       0.45949254
14
Frame=13 idx=011724 GeodesicLength=0.723707667642354 rxn_smarts="[C:1]([c:2]1[c:3]([H:11])[o:4][c:5]([H:12])[c:6]1[N:7]([H:13])[H:14])([H:8])([H:9])[H:10]>>[C:1]([N+:7]([C:6]1=[C:2]=[C:3]([H:11])[O:4][C-:5]1[H:12])([H:13])[H:14])([H:8])([H:9])[H:10]"
C       -1.29075505       0.78452413       0.94777319
C       -0.65208238      -0.59418192      -0.56319801
C       -0.24894531      -1.86808236      -0.77995711
O        1.11859458      -1.99689218      -0.79783357
C        1.61606736      -0.76732555      -0.54407546
C        0.58677646       0.11182558      -0.53366992
N        0.44213667       1.41329417       0.04576867
H       -2.04122406       0.02470768       1.15844688
H       -1.93163085       1.63114798       0.69748970
H       -0.82293663       0.92286562       1.92193400
H       -0.78803137      -2.79172488      -0.92086203
H        2.67696052      -0.68894615      -0.37214938
H        0.03304618       2.01436646      -0.66315351
H        1.30202388       1.80442142       0.40348656
14
Frame=14 idx=011724 GeodesicLength=0.786285799718601 rxn_smarts="[C:1]([c:2]1[c:3]([H:11])[o:4][c:5]([H:12])[c:6]1[N:7]([H:13])[H:14])([H:8])([H:9])[H:10]>>[C:1]([N+:7]([C:6]1=[C:2]=[C:3]([H:11])[O:4][C-:5]1[H:12])([H:13])[H:14])([H:8])([H:9])[H:10]"
C       -1.27737434       0.76716805       0.93682079
C       -0.65513662      -0.58063177      -0.58600693
C       -0.25195898      -1.85826767      -0.77922964
O        1.11475518      -1.99159026      -0.77560607
C        1.61144158      -0.76199768      -0.51925886
C        0.58694676       0.12281297      -0.55470910
N        0.43826028       1.42435060       0.02832373
H       -2.06604852       0.03589877       1.10934985
H       -1.88664556       1.65714564       0.76549250
H       -0.79339536       0.81562241       1.91221003
H       -0.79321728      -2.78397386      -0.89649982
H        2.66681049      -0.68641049      -0.31526988
H       -0.00033223       2.01072720      -0.67568935
H        1.30589460       1.82914609       0.35007275
14
Frame=15 idx=011724 GeodesicLength=0.8494220685629982 rxn_smarts="[C:1]([c:2]1[c:3]([H:11])[o:4][c:5]([H:12])[c:6]1[N:7]([H:13])[H:14])([H:8])([H:9])[H:10]>>[C:1]([N+:7]([C:6]1=[C:2]=[C:3]([H:11])[O:4][C-:5]1[H:12])([H:13])[H:14])([H:8])([H:9])[H:10]"
C       -1.26332596       0.75107069       0.92636684
C       -0.65811576      -0.56815506      -0.60658778
C       -0.25503601      -1.84898514      -0.77728352
O        1.11055634      -1.98623028      -0.75226385
C        1.60610061      -0.75603329      -0.49538239
C        0.58706652       0.13301289      -0.57463511
N        0.43462828       1.43513635       0.01103370
H       -2.08656331       0.05016512       1.06450200
H       -1.83952089       1.67551853       0.83419147
H       -0.76694031       0.71319119       1.89648105
H       -0.79871454      -2.77519438      -0.87848068
H        2.65421790      -0.68279125      -0.25630022
H       -0.03312336       2.00599877      -0.68739267
H        1.30877050       1.85329588       0.29575117
14
Frame=16 idx=011724 GeodesicLength=0.9137642513204406 rxn_smarts="[C:1]([c:2]1[c:3]([H:11])[o:4][c:5]([H:12])[c:6]1[N:7]([H:13])[H:14])([H:8])([H:9])[H:10]>>[C:1]([N+:7]([C:6]1=[C:2]=[C:3]([H:11])[O:4][C-:5]1[H:12])([H:13])[H:14])([H:8])([H:9])[H:10]"
C       -1.25000199       0.73553303       0.91537816
C       -0.66074501      -0.55627812      -0.62621398
C       -0.25784710      -1.83990862      -0.77458197
O        1.10640717      -1.98035735      -0.72962665
C        1.60042197      -0.74942607      -0.47213331
C        0.58746915       0.14268938      -0.59302868
N        0.43161040       1.44522698      -0.00414402
H       -2.10665852       0.06870182       1.02001325
H       -1.78900976       1.68785540       0.90256593
H       -0.74603510       0.61291718       1.87502376
H       -0.80407367      -2.76645207      -0.85765293
H        2.64119473      -0.67703964      -0.20277190
H       -0.06377357       2.00085938      -0.69626369
H        1.31104130       1.87567870       0.24343601
