13
Frame=0 idx=008546 GeodesicLength=0.0 rxn_smarts="[C:1]([c:2]1[n:3][o:4][c:5]([N:6]([H:11])[H:12])[c:7]1[H:13])([H:8])([H:9])[H:10]>>[C:1]([C:2]1=[C:7]=[C:5]([N:6]([H:11])[H:12])[O:4][N:3]1[H:13])([H:8])([H:9])[H:10]"
C       -2.17895058       0.48241924       0.00964775
C       -0.76414686      -0.01693965       0.04534164
N       -0.37654607      -0.90457121      -1.01335223
O        0.93921589      -0.94357902      -0.90617466
C        1.35720532      -0.10669024       0.09860689
N        2.71035565      -0.09842064       0.26783573
C        0.33863141       0.51518490       0.77929978
H       -2.84322203      -0.22199140      -0.49106509
H       -2.52820934       0.66909063       1.02286361
H       -2.19956651       1.42664756      -0.53454800
H        3.03241248       0.63692628       0.87195358
H        3.28200962      -0.27566863      -0.54026836
H       -0.76918900      -1.16240781       0.38985934
13
Frame=1 idx=008546 GeodesicLength=0.10180804811847642 rxn_smarts="[C:1]([c:2]1[n:3][o:4][c:5]([N:6]([H:11])[H:12])[c:7]1[H:13])([H:8])([H:9])[H:10]>>[C:1]([C:2]1=[C:7]=[C:5]([N:6]([H:11])[H:12])[O:4][N:3]1[H:13])([H:8])([H:9])[H:10]"
C       -2.18159132       0.48645068       0.00473076
C       -0.76600716      -0.00707162       0.03339507
N       -0.38166592      -0.91413200      -1.00147071
O        0.94091066      -0.93093961      -0.92022735
C        1.35766609      -0.09136293       0.07990887
N        2.70824878      -0.09540576       0.26270883
C        0.33465415       0.49261524       0.78783063
H       -2.84664996      -0.22010535      -0.49201542
H       -2.52931833       0.67280057       1.01858912
H       -2.20796549       1.43044469      -0.53984896
H        3.03191884       0.62340212       0.88536682
H        3.28672670      -0.27630036      -0.53947405
H       -0.74692704      -1.17039567       0.42050641
13
Frame=2 idx=008546 GeodesicLength=0.20361192346991794 rxn_smarts="[C:1]([c:2]1[n:3][o:4][c:5]([N:6]([H:11])[H:12])[c:7]1[H:13])([H:8])([H:9])[H:10]>>[C:1]([C:2]1=[C:7]=[C:5]([N:6]([H:11])[H:12])[O:4][N:3]1[H:13])([H:8])([H:9])[H:10]"
C       -2.18392984       0.49058279      -0.00024596
C       -0.76766911       0.00258954       0.02186980
N       -0.38629266      -0.92314582      -0.98919442
O        0.94232312      -0.91843074      -0.93367901
C        1.35778900      -0.07788454       0.06346121
N        2.70597284      -0.09213145       0.25738400
C        0.33086215       0.47072111       0.79478415
H       -2.84976523      -0.21800878      -0.49315812
H       -2.53018506       0.67662207       1.01423007
H       -2.21599230       1.43427205      -0.54527027
H        3.03086446       0.60931694       0.89870707
H        3.29035579      -0.27556476      -0.53968790
H       -0.72433316      -1.17893841       0.45079938
13
Frame=3 idx=008546 GeodesicLength=0.30541307256578637 rxn_smarts="[C:1]([c:2]1[n:3][o:4][c:5]([N:6]([H:11])[H:12])[c:7]1[H:13])([H:8])([H:9])[H:10]>>[C:1]([C:2]1=[C:7]=[C:5]([N:6]([H:11])[H:12])[O:4][N:3]1[H:13])([H:8])([H:9])[H:10]"
C       -2.18601412       0.49485174      -0.00531830
C       -0.76914143       0.01218538       0.01063581
N       -0.39050696      -0.93162391      -0.97654532
O        0.94343196      -0.90619298      -0.94646665
C        1.35763078      -0.06632130       0.04919865
N        2.70364542      -0.08855232       0.25189283
C        0.32713694       0.44941617       0.80050179
H       -2.85258497      -0.21563321      -0.49462193
H       -2.53089804       0.68044130       1.00976462
H       -2.22371085       1.43823909      -0.55072314
H        3.02937012       0.59489102       0.91175368
H        3.29305175      -0.27357641      -0.54086162
H       -0.70141059      -1.18812457       0.48078959
13
Frame=4 idx=008546 GeodesicLength=0.40721255099262 rxn_smarts="[C:1]([c:2]1[n:3][o:4][c:5]([N:6]([H:11])[H:12])[c:7]1[H:13])([H:8])([H:9])[H:10]>>[C:1]([C:2]1=[C:7]=[C:5]([N:6]([H:11])[H:12])[O:4][N:3]1[H:13])([H:8])([H:9])[H:10]"
C       -2.18793769       0.49922085      -0.01046878
C       -0.77042918       0.02193342      -0.00049924
N       -0.39438761      -0.93952579      -0.96357075
O        0.94422563      -0.89417952      -0.95867062
C        1.35724815      -0.05627696       0.03669024
N        2.70129881      -0.08473099       0.24633877
C        0.32339829       0.42882754       0.80507671
H       -2.85515175      -0.21309104      -0.49635558
H       -2.53149914       0.68411467       1.00524744
H       -2.23139013       1.44233544      -0.55613379
H        3.02755763       0.58010171       0.92448995
H        3.29504115      -0.27081260      -0.54268465
H       -0.67797415      -1.19791674       0.51054031
13
Frame=5 idx=008546 GeodesicLength=0.5090114420977148 rxn_smarts="[C:1]([c:2]1[n:3][o:4][c:5]([N:6]([H:11])[H:12])[c:7]1[H:13])([H:8])([H:9])[H:10]>>[C:1]([C:2]1=[C:7]=[C:5]([N:6]([H:11])[H:12])[O:4][N:3]1[H:13])([H:8])([H:9])[H:10]"
C       -2.18976848       0.50366714      -0.01568099
C       -0.77152934       0.03202573      -0.01171632
N       -0.39799664      -0.94680688      -0.95031406
O        0.94470594      -0.88237613      -0.97033571
C        1.35668051      -0.04740011       0.02556917
N        2.69893486      -0.08069902       0.24081190
C        0.31957841       0.40900170       0.80860229
H       -2.85749184      -0.21044950      -0.49833968
H       -2.53201452       0.68749509       1.00073142
H       -2.23924533       1.44657716      -0.56140279
H        3.02549843       0.56502393       0.93684861
H        3.29648977      -0.26775673      -0.54485755
H       -0.65384176      -1.20830236       0.54008373
13
Frame=6 idx=008546 GeodesicLength=0.610809894655367 rxn_smarts="[C:1]([c:2]1[n:3][o:4][c:5]([N:6]([H:11])[H:12])[c:7]1[H:13])([H:8])([H:9])[H:10]>>[C:1]([C:2]1=[C:7]=[C:5]([N:6]([H:11])[H:12])[O:4][N:3]1[H:13])([H:8])([H:9])[H:10]"
C       -2.19155097       0.50818367      -0.02095167
C       -0.77243124       0.04263459      -0.02318780
N       -0.40139503      -0.95345150      -0.93678408
O        0.94487673      -0.87082267      -0.98146955
C        1.35595373      -0.03941691       0.01553972
N        2.69654502      -0.07646907       0.23535502
C        0.31562152       0.38995351       0.81114566
H       -2.85962400      -0.20775962      -0.50054548
H       -2.53244521       0.69049478       0.99624731
H       -2.24744776       1.45097591      -0.56647367
H        3.02322588       0.54963265       0.94885571
H        3.29750391      -0.26468017      -0.54720026
H       -0.62883258      -1.21927517       0.56946909
13
Frame=7 idx=008546 GeodesicLength=0.7126069278234217 rxn_smarts="[C:1]([c:2]1[n:3][o:4][c:5]([N:6]([H:11])[H:12])[c:7]1[H:13])([H:8])([H:9])[H:10]>>[C:1]([C:2]1=[C:7]=[C:5]([N:6]([H:11])[H:12])[O:4][N:3]1[H:13])([H:8])([H:9])[H:10]"
C       -2.19330975       0.51277687      -0.02627911
C       -0.77311925       0.05391120      -0.03507656
N       -0.40464169      -0.95943713      -0.92298879
O        0.94474729      -0.85957603      -0.99206669
C        1.35507957      -0.03213428       0.00638733
N        2.69411203      -0.07202603       0.23000670
C        0.31146750       0.37164069       0.81277705
H       -2.86155799      -0.20503227      -0.50296860
H       -2.53278093       0.69302758       0.99182244
H       -2.25612360       1.45556552      -0.57127164
H        3.02074230       0.53400479       0.96048184
H        3.29815481      -0.26185638      -0.54954205
H       -0.60277030      -1.23086453       0.59871809
13
Frame=8 idx=008546 GeodesicLength=0.8144002816983174 rxn_smarts="[C:1]([c:2]1[n:3][o:4][c:5]([N:6]([H:11])[H:12])[c:7]1[H:13])([H:8])([H:9])[H:10]>>[C:1]([C:2]1=[C:7]=[C:5]([N:6]([H:11])[H:12])[O:4][N:3]1[H:13])([H:8])([H:9])[H:10]"
C       -2.19505467       0.51746359      -0.03166236
C       -0.77357463       0.06598975      -0.04753969
N       -0.40779959      -0.96474226      -0.90893104
O        0.94432677      -0.84870329      -1.00212046
C        1.35405751      -0.02541016      -0.00205167
N        2.69161107      -0.06733827       0.22480143
C        0.30704982       0.35398853       0.81355336
H       -2.86329938      -0.20225673      -0.50560576
H       -2.53299834       0.69502679       0.98747960
H       -2.26536936       1.46038718      -0.57572279
H        3.01802717       0.51825476       0.97168648
H        3.29848701      -0.25953137      -0.55172468
H       -0.57546338      -1.24312853       0.62783758
13
Frame=9 idx=008546 GeodesicLength=0.9161955739172482 rxn_smarts="[C:1]([c:2]1[n:3][o:4][c:5]([N:6]([H:11])[H:12])[c:7]1[H:13])([H:8])([H:9])[H:10]>>[C:1]([C:2]1=[C:7]=[C:5]([N:6]([H:11])[H:12])[O:4][N:3]1[H:13])([H:8])([H:9])[H:10]"
C       -2.19677680       0.52227119      -0.03710111
C       -0.77377753       0.07898078      -0.06071549
N       -0.41093784      -0.96932779      -0.89462015
O        0.94362183      -0.83826208      -1.01161971
C        1.35287132      -0.01915908      -0.00988514
N        2.68900699      -0.06235818       0.21977820
C        0.30228797       0.33686361       0.81355408
H       -2.86484814      -0.19937805      -0.50849047
H       -2.53306384       0.69641203       0.98323846
H       -2.27523183       1.46550786      -0.57972327
H        3.01503381       0.50266458       0.98235177
H        3.29852242      -0.25803035      -0.55357190
H       -0.54670836      -1.25618451       0.65680473
13
Frame=10 idx=008546 GeodesicLength=1.0179918851305276 rxn_smarts="[C:1]([c:2]1[n:3][o:4][c:5]([N:6]([H:11])[H:12])[c:7]1[H:13])([H:8])([H:9])[H:10]>>[C:1]([C:2]1=[C:7]=[C:5]([N:6]([H:11])[H:12])[O:4][N:3]1[H:13])([H:8])([H:9])[H:10]"
C       -2.19846258       0.52723421      -0.04262326
C       -0.77370982       0.09297702      -0.07474210
N       -0.41414501      -0.97324797      -0.87996087
O        0.94261583      -0.82838130      -1.02052858
C        1.35149493      -0.01328897      -0.01724194
N        2.68626551      -0.05700520       0.21487326
C        0.29710849       0.32022326       0.81277379
H       -2.86621403      -0.19638164      -0.51159103
H       -2.53292744       0.69723148       0.97907285
H       -2.28575054       1.47093811      -0.58330345
H        3.01170313       0.48699535       0.99269173
H        3.29824548      -0.25720207      -0.55513423
H       -0.51622395      -1.27009229       0.68571382
13
Frame=11 idx=008546 GeodesicLength=1.1197897571340232 rxn_smarts="[C:1]([c:2]1[n:3][o:4][c:5]([N:6]([H:11])[H:12])[c:7]1[H:13])([H:8])([H:9])[H:10]>>[C:1]([C:2]1=[C:7]=[C:5]([N:6]([H:11])[H:12])[O:4][N:3]1[H:13])([H:8])([H:9])[H:10]"
C       -2.20008151       0.53239955      -0.04825046
C       -0.77336021       0.10802539      -0.08972326
N       -0.41751513      -0.97652708      -0.86487929
O        0.94128388      -0.81915972      -1.02882118
C        1.34988066      -0.00774612      -0.02419923
N        2.68333528      -0.05116870       0.21005749
C        0.29141246       0.30393420       0.81125357
H       -2.86740152      -0.19318696      -0.51493222
H       -2.53254440       0.69750127       0.97496071
H       -2.29689558       1.47672995      -0.58643627
H        3.00795256       0.47128126       1.00273924
H        3.29762320      -0.25708816      -0.55636544
H       -0.48368970      -1.28499489       0.71459635
13
Frame=12 idx=008546 GeodesicLength=1.2215911905196402 rxn_smarts="[C:1]([c:2]1[n:3][o:4][c:5]([N:6]([H:11])[H:12])[c:7]1[H:13])([H:8])([H:9])[H:10]>>[C:1]([C:2]1=[C:7]=[C:5]([N:6]([H:11])[H:12])[O:4][N:3]1[H:13])([H:8])([H:9])[H:10]"
C       -2.20159583       0.53782360      -0.05401631
C       -0.77272919       0.12412045      -0.10572656
N       -0.42115471      -0.97921851      -0.84926131
O        0.93958017      -0.81069975      -1.03646527
C        1.34795921      -0.00247778      -0.03082592
N        2.68014993      -0.04469089       0.20526387
C        0.28508991       0.28785073       0.80903401
H       -2.86842296      -0.18969506      -0.51854465
H       -2.53187575       0.69728653       0.97085459
H       -2.30858221       1.48293226      -0.58913309
H        3.00368593       0.45545173       1.01258702
H        3.29659459      -0.25762992      -0.55727109
H       -0.44869909      -1.30105339       0.74350470
13
Frame=13 idx=008546 GeodesicLength=1.3233950264334209 rxn_smarts="[C:1]([c:2]1[n:3][o:4][c:5]([N:6]([H:11])[H:12])[c:7]1[H:13])([H:8])([H:9])[H:10]>>[C:1]([C:2]1=[C:7]=[C:5]([N:6]([H:11])[H:12])[O:4][N:3]1[H:13])([H:8])([H:9])[H:10]"
C       -2.20295566       0.54357975      -0.05993120
C       -0.77182988       0.14118322      -0.12274231
N       -0.42517064      -0.98132452      -0.83306388
O        0.93745650      -0.80302583      -1.04345957
C        1.34563442       0.00253943      -0.03712431
N        2.67661571      -0.03734992       0.20050341
C        0.27800092       0.27166688       0.80624005
H       -2.86928968      -0.18570229      -0.52256011
H       -2.53092014       0.69657209       0.96672831
H       -2.32061975       1.48967755      -0.59128338
H        2.99878394       0.43999516       1.02195649
H        3.29507660      -0.25924248      -0.55761067
H       -0.41078236      -1.31856904       0.77234716
13
Frame=14 idx=008546 GeodesicLength=1.4252059610236194 rxn_smarts="[C:1]([c:2]1[n:3][o:4][c:5]([N:6]([H:11])[H:12])[c:7]1[H:13])([H:8])([H:9])[H:10]>>[C:1]([C:2]1=[C:7]=[C:5]([N:6]([H:11])[H:12])[O:4][N:3]1[H:13])([H:8])([H:9])[H:10]"
C       -2.20412218       0.54974225      -0.06604447
C       -0.77070099       0.15906192      -0.14070597
N       -0.42968316      -0.98295391      -0.81611240
O        0.93482321      -0.79620024      -1.04976842
C        1.34278848       0.00738177      -0.04314046
N        2.67263451      -0.02881794       0.19562914
C        0.27001962       0.25517625       0.80294721
H       -2.87003839      -0.18106116      -0.52703925
H       -2.52968516       0.69551653       0.96248806
H       -2.33278593       1.49701904      -0.59297048
H        2.99311644       0.42470415       1.03096275
H        3.29294590      -0.26183062      -0.55740145
H       -0.36931233      -1.33773804       0.80115573
13
Frame=15 idx=008546 GeodesicLength=1.5270327100458638 rxn_smarts="[C:1]([c:2]1[n:3][o:4][c:5]([N:6]([H:11])[H:12])[c:7]1[H:13])([H:8])([H:9])[H:10]>>[C:1]([C:2]1=[C:7]=[C:5]([N:6]([H:11])[H:12])[O:4][N:3]1[H:13])([H:8])([H:9])[H:10]"
C       -2.20506943       0.55638813      -0.07241507
C       -0.76940877       0.17751121      -0.15946445
N       -0.43481138      -0.98425059      -0.79820197
O        0.93156910      -0.79026791      -1.05534966
C        1.33927955       0.01214241      -0.04891157
N        2.66809425      -0.01864215       0.19042227
C        0.26102598       0.23814735       0.79926423
H       -2.87072515      -0.17561094      -0.53206249
H       -2.52822353       0.69432875       0.95801588
H       -2.34478965       1.50500954      -0.59432920
H        2.98655764       0.40923983       1.03977018
H        3.29004553      -0.26528134      -0.55667972
H       -0.32354415      -1.35871429       0.82994157
13
Frame=16 idx=008546 GeodesicLength=1.6288871521161945 rxn_smarts="[C:1]([c:2]1[n:3][o:4][c:5]([N:6]([H:11])[H:12])[c:7]1[H:13])([H:8])([H:9])[H:10]>>[C:1]([C:2]1=[C:7]=[C:5]([N:6]([H:11])[H:12])[O:4][N:3]1[H:13])([H:8])([H:9])[H:10]"
C       -2.20579421       0.56358414      -0.07909482
C       -0.76804638       0.19619929      -0.17876748
N       -0.44065317      -0.98536013      -0.77914433
O        0.92758315      -0.78521287      -1.06016895
C        1.33495240       0.01694218      -0.05445439
N        2.66287273      -0.00622200       0.18462988
C        0.25091699       0.22031426       0.79534289
H       -2.87142235      -0.16919417      -0.53772193
H       -2.52664301       0.69323631       0.95319065
H       -2.35629628       1.51369661      -0.59551753
H        2.97898425       0.39321610       1.04845199
H        3.28618953      -0.26963489      -0.55537309
H       -0.27264366      -1.38156483       0.85862709
