11
Frame=0 idx=005090 GeodesicLength=0.0 rxn_smarts="[N:1]#[C:2][C:3]([C@@:4]1([H:9])[C:5]([H:10])([H:11])[O:6]1)([H:7])[H:8]>>[N:1]#[C:2][C:3]([C:4]([O+:6]=[C-:5][H:10])([H:9])[H:11])([H:7])[H:8]"
N        3.02078800       0.41219760       0.30778950
C        2.02363762      -0.09325994       0.05444233
C        0.73705148      -0.71340611      -0.24767001
C       -0.42444493       0.07692543       0.32842773
C       -1.92331949       0.67881061      -0.62265099
O       -1.64337711      -0.54719880      -0.01190360
H        0.71458663      -1.72134938       0.17069958
H        0.61075997      -0.79722820      -1.32832065
H       -0.36536310       0.30337691       1.39212154
H       -2.32800023       1.32007525       0.20344143
H       -0.42231880       1.08105665      -0.24637683
11
Frame=1 idx=005090 GeodesicLength=0.056277542020700115 rxn_smarts="[N:1]#[C:2][C:3]([C@@:4]1([H:9])[C:5]([H:10])([H:11])[O:6]1)([H:7])[H:8]>>[N:1]#[C:2][C:3]([C:4]([O+:6]=[C-:5][H:10])([H:9])[H:11])([H:7])[H:8]"
N        3.01996846       0.40929694       0.31786562
C        2.02412630      -0.09370613       0.05442549
C        0.73728948      -0.71327436      -0.24864204
C       -0.42359960       0.07758139       0.32826178
C       -1.92635939       0.67133662      -0.61414206
O       -1.64380142      -0.55054738      -0.00465397
H        0.71622069      -1.72263189       0.16679782
H        0.61152558      -0.79406154      -1.32979199
H       -0.36050406       0.29863842       1.39312219
H       -2.32502721       1.32762997       0.20114696
H       -0.42983883       1.08973796      -0.26438979
11
Frame=2 idx=005090 GeodesicLength=0.11255313459342497 rxn_smarts="[N:1]#[C:2][C:3]([C@@:4]1([H:9])[C:5]([H:10])([H:11])[O:6]1)([H:7])[H:8]>>[N:1]#[C:2][C:3]([C:4]([O+:6]=[C-:5][H:10])([H:9])[H:11])([H:7])[H:8]"
N        3.01908590       0.40644165       0.32782620
C        2.02459391      -0.09407909       0.05448194
C        0.73753631      -0.71313373      -0.24955093
C       -0.42276243       0.07817046       0.32824267
C       -1.92927156       0.66410715      -0.60539811
O       -1.64418040      -0.55384031       0.00251111
H        0.71791001      -1.72391341       0.16291243
H        0.61230471      -0.79086787      -1.33119319
H       -0.35570516       0.29360565       1.39427899
H       -2.32196150       1.33523767       0.19876678
H       -0.43754977       1.09827185      -0.28287788
11
Frame=3 idx=005090 GeodesicLength=0.16882719595139015 rxn_smarts="[N:1]#[C:2][C:3]([C@@:4]1([H:9])[C:5]([H:10])([H:11])[O:6]1)([H:7])[H:8]>>[N:1]#[C:2][C:3]([C:4]([O+:6]=[C-:5][H:10])([H:9])[H:11])([H:7])[H:8]"
N        3.01813285       0.40370524       0.33757474
C        2.02503484      -0.09439429       0.05464740
C        0.73778961      -0.71299819      -0.25037623
C       -0.42194012       0.07867218       0.32838984
C       -1.93201952       0.65716642      -0.59643512
O       -1.64452490      -0.55706551       0.00953932
H        0.71965021      -1.72520713       0.15906422
H        0.61310245      -0.78766072      -1.33250469
H       -0.35100114       0.28821973       1.39561786
H       -2.31878560       1.34291177       0.19629824
H       -0.44543868       1.10665049      -0.30181556
11
Frame=4 idx=005090 GeodesicLength=0.22510803824218467 rxn_smarts="[N:1]#[C:2][C:3]([C@@:4]1([H:9])[C:5]([H:10])([H:11])[O:6]1)([H:7])[H:8]>>[N:1]#[C:2][C:3]([C:4]([O+:6]=[C-:5][H:10])([H:9])[H:11])([H:7])[H:8]"
N        3.01710964       0.40114294       0.34703789
C        2.02544405      -0.09466282       0.05494811
C        0.73804741      -0.71287849      -0.25110190
C       -0.42113758       0.07906873       0.32872202
C       -1.93457333       0.65055028      -0.58726737
O       -1.64484570      -0.56021444       0.01638811
H        0.72143904      -1.72652338       0.15526879
H        0.61392121      -0.78444918      -1.33371081
H       -0.34641886       0.28243616       1.39716051
H       -2.31548748       1.35066068       0.19374120
H       -0.45349839       1.11486952      -0.32118655
11
Frame=5 idx=005090 GeodesicLength=0.28139341495934844 rxn_smarts="[N:1]#[C:2][C:3]([C@@:4]1([H:9])[C:5]([H:10])([H:11])[O:6]1)([H:7])[H:8]>>[N:1]#[C:2][C:3]([C:4]([O+:6]=[C-:5][H:10])([H:9])[H:11])([H:7])[H:8]"
N        3.01602243       0.39879037       0.35616502
C        2.02581669      -0.09489014       0.05540005
C        0.73830866      -0.71278152      -0.25171638
C       -0.42035543       0.07934641       0.32925921
C       -1.93690741       0.64428988      -0.57791068
O       -1.64515385      -0.56328253       0.02302406
H        0.72327658      -1.72786963       0.15153565
H        0.61476083      -0.78123723      -1.33480013
H       -0.34197443       0.27622592       1.39892945
H       -2.31206012       1.35848838       0.19109582
H       -0.46173396       1.12292009      -0.34098206
11
Frame=6 idx=005090 GeodesicLength=0.33769254723497955 rxn_smarts="[N:1]#[C:2][C:3]([C@@:4]1([H:9])[C:5]([H:10])([H:11])[O:6]1)([H:7])[H:8]>>[N:1]#[C:2][C:3]([C:4]([O+:6]=[C-:5][H:10])([H:9])[H:11])([H:7])[H:8]"
N        3.01489062       0.39667931       0.36491052
C        2.02615541      -0.09508123       0.05601853
C        0.73857317      -0.71271367      -0.25220975
C       -0.41958899       0.07949203       0.33002327
C       -1.93899693       0.63841149      -0.56838718
O       -1.64546939      -0.56626757       0.02941888
H        0.72515847      -1.72925507       0.14787160
H        0.61561972      -0.77802591      -1.33576610
H       -0.33767614       0.26956282       1.40095524
H       -2.30850055       1.36639999       0.18835488
H       -0.47016539       1.13079780      -0.36118989
11
Frame=7 idx=005090 GeodesicLength=0.3938385286866586 rxn_smarts="[N:1]#[C:2][C:3]([C@@:4]1([H:9])[C:5]([H:10])([H:11])[O:6]1)([H:7])[H:8]>>[N:1]#[C:2][C:3]([C:4]([O+:6]=[C-:5][H:10])([H:9])[H:11])([H:7])[H:8]"
N        3.01368653       0.39488171       0.37322285
C        2.02641997      -0.09521312       0.05683605
C        0.73881897      -0.71265302      -0.25256514
C       -0.41889067       0.07953047       0.33097500
C       -1.94088703       0.63285751      -0.55865386
O       -1.64575976      -0.56913256       0.03557388
H        0.72708235      -1.73063631       0.14431729
H        0.61649759      -0.77483143      -1.33658023
H       -0.33362133       0.26225907       1.40318783
H       -2.30469304       1.37446903       0.18556747
H       -0.47865359       1.13846865      -0.38188116
11
Frame=8 idx=005090 GeodesicLength=0.44996692176410785 rxn_smarts="[N:1]#[C:2][C:3]([C@@:4]1([H:9])[C:5]([H:10])([H:11])[O:6]1)([H:7])[H:8]>>[N:1]#[C:2][C:3]([C:4]([O+:6]=[C-:5][H:10])([H:9])[H:11])([H:7])[H:8]"
N        3.01246027       0.39331279       0.38118986
C        2.02664834      -0.09529105       0.05780680
C        0.73906651      -0.71261089      -0.25280268
C       -0.41820205       0.07944080       0.33217830
C       -1.94251493       0.62769134      -0.54875956
O       -1.64607033      -0.57190973       0.04149628
H        0.72905580      -1.73205268       0.14081837
H        0.61738223      -0.77161580      -1.33727289
H       -0.32970662       0.25448544       1.40569577
H       -2.30072075       1.38263126       0.18269423
H       -0.48739848       1.14591852      -0.40304446
11
Frame=9 idx=005090 GeodesicLength=0.5061492291966488 rxn_smarts="[N:1]#[C:2][C:3]([C@@:4]1([H:9])[C:5]([H:10])([H:11])[O:6]1)([H:7])[H:8]>>[N:1]#[C:2][C:3]([C:4]([O+:6]=[C-:5][H:10])([H:9])[H:11])([H:7])[H:8]"
N        3.01119921       0.39195745       0.38887072
C        2.02682610      -0.09530793       0.05892121
C        0.73931583      -0.71258413      -0.25292826
C       -0.41752491       0.07920611       0.33364181
C       -1.94391632       0.62291922      -0.53866510
O       -1.64639662      -0.57461140       0.04719474
H        0.73109521      -1.73349680       0.13735625
H        0.61826834      -0.76836429      -1.33784817
H       -0.32591258       0.24625589       1.40847023
H       -2.29658168       1.39089450       0.17975733
H       -0.49637259       1.15313139      -0.42477076
11
Frame=10 idx=005090 GeodesicLength=0.5622482729818102 rxn_smarts="[N:1]#[C:2][C:3]([C@@:4]1([H:9])[C:5]([H:10])([H:11])[O:6]1)([H:7])[H:8]>>[N:1]#[C:2][C:3]([C:4]([O+:6]=[C-:5][H:10])([H:9])[H:11])([H:7])[H:8]"
N        3.00989983       0.39087831       0.39621530
C        2.02695115      -0.09525411       0.06018605
C        0.73955578      -0.71256737      -0.25293378
C       -0.41688059       0.07884548       0.33534719
C       -1.94506452       0.61850361      -0.52837751
O       -1.64673585      -0.57720911       0.05266616
H        0.73318537      -1.73495394       0.13396535
H        0.61915123      -0.76510099      -1.33829333
H       -0.32230841       0.23745378       1.41148272
H       -2.29218558       1.39930220       0.17676566
H       -0.50556841       1.16010214      -0.44702381
11
Frame=11 idx=005090 GeodesicLength=0.6183585679703875 rxn_smarts="[N:1]#[C:2][C:3]([C@@:4]1([H:9])[C:5]([H:10])([H:11])[O:6]1)([H:7])[H:8]>>[N:1]#[C:2][C:3]([C:4]([O+:6]=[C-:5][H:10])([H:9])[H:11])([H:7])[H:8]"
N        3.00856536       0.39004514       0.40329474
C        2.02701862      -0.09511402       0.06158824
C        0.73979131      -0.71255683      -0.25282689
C       -0.41625332       0.07833616       0.33731925
C       -1.94597628       0.61447397      -0.51787677
O       -1.64710137      -0.57971341       0.05791435
H        0.73534585      -1.73642380       0.13061920
H        0.62001921      -0.76180258      -1.33861547
H       -0.31884047       0.22810434       1.41475597
H       -2.28753947       1.40786062       0.17372768
H       -0.51502945       1.16679043      -0.46990029
11
Frame=12 idx=005090 GeodesicLength=0.674452319687764 rxn_smarts="[N:1]#[C:2][C:3]([C@@:4]1([H:9])[C:5]([H:10])([H:11])[O:6]1)([H:7])[H:8]>>[N:1]#[C:2][C:3]([C:4]([O+:6]=[C-:5][H:10])([H:9])[H:11])([H:7])[H:8]"
N        3.00720778       0.38940332       0.41017576
C        2.02703385      -0.09486982       0.06310055
C        0.74002514      -0.71253719      -0.25261934
C       -0.41563581       0.07769568       0.33956975
C       -1.94664885       0.61081769      -0.50715617
O       -1.64748982      -0.58212473       0.06296970
H        0.73758341      -1.73789932       0.12729469
H        0.62086697      -0.75844395      -1.33882701
H       -0.31549522       0.21823222       1.41829456
H       -2.28263429       1.41656464       0.17064647
H       -0.52481316       1.17316146      -0.49344898
11
Frame=13 idx=005090 GeodesicLength=0.7305582777421379 rxn_smarts="[N:1]#[C:2][C:3]([C@@:4]1([H:9])[C:5]([H:10])([H:11])[O:6]1)([H:7])[H:8]>>[N:1]#[C:2][C:3]([C:4]([O+:6]=[C-:5][H:10])([H:9])[H:11])([H:7])[H:8]"
N        3.00583267       0.38892914       0.41691421
C        2.02699502      -0.09450247       0.06471956
C        0.74025674      -0.71249410      -0.25231750
C       -0.41502503       0.07692278       0.34210970
C       -1.94708944       0.60752256      -0.49618820
O       -1.64790391      -0.58444049       0.06786462
H        0.73990420      -1.73936975       0.12396600
H        0.62168656      -0.75499529      -1.33893365
H       -0.31225842       0.20781916       1.42209787
H       -2.27743344       1.42543995       0.16752160
H       -0.53496497       1.17916852      -0.51775421
11
Frame=14 idx=005090 GeodesicLength=0.7866630580140601 rxn_smarts="[N:1]#[C:2][C:3]([C@@:4]1([H:9])[C:5]([H:10])([H:11])[O:6]1)([H:7])[H:8]>>[N:1]#[C:2][C:3]([C:4]([O+:6]=[C-:5][H:10])([H:9])[H:11])([H:7])[H:8]"
N        3.00444181       0.38859951       0.42355585
C        2.02690089      -0.09399499       0.06643685
C        0.74048716      -0.71241436      -0.25192712
C       -0.41441567       0.07602012       0.34495452
C       -1.94729717       0.60458492      -0.48495690
O       -1.64834687      -0.58665487       0.07262508
H        0.74231685      -1.74082588       0.12060910
H        0.62247152      -0.75142929      -1.33893895
H       -0.30911807       0.19684934       1.42617019
H       -2.27190328       1.43450815       0.16434618
H       -0.54553717       1.18475735      -0.54287480
11
Frame=15 idx=005090 GeodesicLength=0.8427755671182579 rxn_smarts="[N:1]#[C:2][C:3]([C@@:4]1([H:9])[C:5]([H:10])([H:11])[O:6]1)([H:7])[H:8]>>[N:1]#[C:2][C:3]([C:4]([O+:6]=[C-:5][H:10])([H:9])[H:11])([H:7])[H:8]"
N        3.00302751       0.38837685       0.43019131
C        2.02674984      -0.09331731       0.06822622
C        0.74071698      -0.71227965      -0.25146234
C       -0.41380016       0.07498958       0.34811390
C       -1.94727473       0.60200137      -0.47343035
O       -1.64881869      -0.58876437       0.07728416
H        0.74483205      -1.74225221       0.11719759
H        0.62321030      -0.74772030      -1.33885625
H       -0.30605045       0.18531576       1.43051186
H       -2.26599436       1.44379208       0.16112525
H       -0.55659829       1.18985819      -0.56890136
11
Frame=16 idx=005090 GeodesicLength=0.8988893355500273 rxn_smarts="[N:1]#[C:2][C:3]([C@@:4]1([H:9])[C:5]([H:10])([H:11])[O:6]1)([H:7])[H:8]>>[N:1]#[C:2][C:3]([C:4]([O+:6]=[C-:5][H:10])([H:9])[H:11])([H:7])[H:8]"
N        3.00161417       0.38825465       0.43677199
C        2.02653285      -0.09245588       0.07010578
C        0.74094505      -0.71208162      -0.25091040
C       -0.41317986       0.07381838       0.35161926
C       -1.94698556       0.59979129      -0.46162647
O       -1.64932515      -0.59075408       0.08182512
H        0.74745696      -1.74364187       0.11373301
H        0.62389557      -0.74384723      -1.33866967
H       -0.30307374       0.17317681       1.43514303
H       -2.25969101       1.45329460       0.15783491
H       -0.56818928       1.19444495      -0.59582657
