11
Frame=0 idx=003421 GeodesicLength=0.0 rxn_smarts="[C:1]([C:2](=[O:3])[N:4]([C:5](=[O:6])[H:11])[H:10])([H:7])([H:8])[H:9]>>[C:1](/[C:2]([O:3][C:5](=[O:6])[H:11])=[N:4]\[H:10])([H:7])([H:8])[H:9]"
C       -1.69138880       0.16032422       0.02489364
C       -0.20660220       0.08720029       0.05960822
O        0.51214576       1.14423299       0.20181453
N        0.57038440      -0.93551446      -0.04903173
C        1.92386397       0.24321801       0.02580983
O        2.67830948       0.20678564       0.93107725
H       -1.99968602       0.79030142      -0.80985522
H       -2.04626660       0.62904867       0.94283280
H       -2.13921891      -0.82614612      -0.07573850
H        0.26713450      -1.88263227      -0.21256384
H        2.13132444       0.38318159      -1.03884693
11
Frame=1 idx=003421 GeodesicLength=0.0788477968061715 rxn_smarts="[C:1]([C:2](=[O:3])[N:4]([C:5](=[O:6])[H:11])[H:10])([H:7])([H:8])[H:9]>>[C:1](/[C:2]([O:3][C:5](=[O:6])[H:11])=[N:4]\[H:10])([H:7])([H:8])[H:9]"
C       -1.69339082       0.15656334       0.01768807
C       -0.21116523       0.08147068       0.11211134
O        0.50609511       1.14067877       0.24884916
N        0.56543182      -0.93986473      -0.02337151
C        1.92542648       0.24707733       0.01853723
O        2.73121294       0.12195264       0.87209003
H       -1.96969505       0.73422195      -0.86481666
H       -2.07856008       0.68037955       0.89252977
H       -2.14196424      -0.83337502      -0.03619287
H        0.25182282      -1.88008117      -0.20600130
H        2.11478626       0.49097665      -1.03142326
11
Frame=2 idx=003421 GeodesicLength=0.15693487357167446 rxn_smarts="[C:1]([C:2](=[O:3])[N:4]([C:5](=[O:6])[H:11])[H:10])([H:7])([H:8])[H:9]>>[C:1](/[C:2]([O:3][C:5](=[O:6])[H:11])=[N:4]\[H:10])([H:7])([H:8])[H:9]"
C       -1.69464373       0.15250882       0.01082026
C       -0.21627575       0.07632667       0.15661703
O        0.49937298       1.13769308       0.28868187
N        0.55968986      -0.94440413       0.00192708
C        1.92598732       0.25083933       0.01240102
O        2.77655091       0.03793337       0.80526464
H       -1.94136745       0.67664917      -0.91296230
H       -2.10370390       0.72803283       0.84108349
H       -2.14643304      -0.83757789       0.00431054
H        0.23584280      -1.87765100      -0.19781265
H        2.10497999       0.59964975      -1.01033098
11
Frame=3 idx=003421 GeodesicLength=0.2340540066577251 rxn_smarts="[C:1]([C:2](=[O:3])[N:4]([C:5](=[O:6])[H:11])[H:10])([H:7])([H:8])[H:9]>>[C:1](/[C:2]([O:3][C:5](=[O:6])[H:11])=[N:4]\[H:10])([H:7])([H:8])[H:9]"
C       -1.69436384       0.14874453       0.00167682
C       -0.22200865       0.07040088       0.20238347
O        0.49245389       1.13328972       0.33287781
N        0.55341487      -0.95067415       0.03608636
C        1.92476837       0.25419605       0.00427151
O        2.82021901      -0.04309315       0.71947510
H       -1.90725518       0.62212481      -0.95732719
H       -2.12659678       0.77022306       0.78566607
H       -2.15226604      -0.83814298       0.03560776
H        0.21964456      -1.87640613      -0.18168626
H        2.09198979       0.70933736      -0.97903146
11
Frame=4 idx=003421 GeodesicLength=0.3106871739938277 rxn_smarts="[C:1]([C:2](=[O:3])[N:4]([C:5](=[O:6])[H:11])[H:10])([H:7])([H:8])[H:9]>>[C:1](/[C:2]([O:3][C:5](=[O:6])[H:11])=[N:4]\[H:10])([H:7])([H:8])[H:9]"
C       -1.69333028       0.14472120      -0.00820905
C       -0.22827898       0.06537481       0.24353033
O        0.48512956       1.12950945       0.37382210
N        0.54680942      -0.95708039       0.07316498
C        1.92245715       0.25787504      -0.00432059
O        2.85628781      -0.12318075       0.61960924
H       -1.87330129       0.56780250      -0.99706435
H       -2.14483398       0.80816627       0.72899425
H       -2.15888356      -0.83669361       0.06403613
H        0.20341779      -1.87558726      -0.16003302
H        2.08452638       0.81909275      -0.93353003
11
Frame=5 idx=003421 GeodesicLength=0.386290278326632 rxn_smarts="[C:1]([C:2](=[O:3])[N:4]([C:5](=[O:6])[H:11])[H:10])([H:7])([H:8])[H:9]>>[C:1](/[C:2]([O:3][C:5](=[O:6])[H:11])=[N:4]\[H:10])([H:7])([H:8])[H:9]"
C       -1.69068886       0.14079254      -0.02011377
C       -0.23515479       0.06045716       0.28468452
O        0.47776719       1.12520723       0.41699397
N        0.54007517      -0.96444745       0.11846845
C        1.91815969       0.26130036      -0.01505781
O        2.88514788      -0.19984992       0.49873578
H       -1.83504635       0.51579580      -1.03395803
H       -2.16002933       0.84181003       0.66949852
H       -2.16596819      -0.83314075       0.08504201
H        0.18760974      -1.87559294      -0.13012682
H        2.07812786       0.92766793      -0.87416681
11
Frame=6 idx=003421 GeodesicLength=0.4605683453152657 rxn_smarts="[C:1]([C:2](=[O:3])[N:4]([C:5](=[O:6])[H:11])[H:10])([H:7])([H:8])[H:9]>>[C:1](/[C:2]([O:3][C:5](=[O:6])[H:11])=[N:4]\[H:10])([H:7])([H:8])[H:9]"
C       -1.68663020       0.13662293      -0.03353463
C       -0.24248286       0.05627259       0.32387313
O        0.47044920       1.12130482       0.45830134
N        0.53336994      -0.97192594       0.16925742
C        1.91194221       0.26411703      -0.02917431
O        2.90194149      -0.27198463       0.35784226
H       -1.79463899       0.46607642      -1.06758433
H       -2.17159810       0.87068418       0.60913415
H       -2.17281702      -0.82862627       0.09972551
H        0.17205348      -1.87671655      -0.09033143
H        2.07841086       1.03417543      -0.79750910
11
Frame=7 idx=003421 GeodesicLength=0.5327665618031214 rxn_smarts="[C:1]([C:2](=[O:3])[N:4]([C:5](=[O:6])[H:11])[H:10])([H:7])([H:8])[H:9]>>[C:1](/[C:2]([O:3][C:5](=[O:6])[H:11])=[N:4]\[H:10])([H:7])([H:8])[H:9]"
C       -1.68084586       0.13195685      -0.04859677
C       -0.25023276       0.05327406       0.36216211
O        0.46298044       1.11874803       0.49657947
N        0.52711546      -0.97844114       0.22564644
C        1.90317281       0.26681503      -0.04777349
O        2.90262454      -0.33790144       0.19408531
H       -1.75134147       0.41942676      -1.09834358
H       -2.18030022       0.89404052       0.54859945
H       -2.17835911      -0.82434505       0.10673297
H        0.15706386      -1.87868052      -0.03830693
H        2.08812231       1.13510690      -0.70078498
11
Frame=8 idx=003421 GeodesicLength=0.6018368588882743 rxn_smarts="[C:1]([C:2](=[O:3])[N:4]([C:5](=[O:6])[H:11])[H:10])([H:7])([H:8])[H:9]>>[C:1](/[C:2]([O:3][C:5](=[O:6])[H:11])=[N:4]\[H:10])([H:7])([H:8])[H:9]"
C       -1.67343418       0.12607473      -0.06496067
C       -0.25838903       0.05266256       0.39952088
O        0.45456584       1.11976985       0.52833463
N        0.52195119      -0.98199525       0.28716478
C        1.89195377       0.27046192      -0.06937181
O        2.88171529      -0.39562826       0.00496476
H       -1.70600446       0.37434335      -1.12655664
H       -2.18701423       0.91170221       0.48797575
H       -2.18150558      -0.82178892       0.10779772
H        0.14377373      -1.87960036       0.02470184
H        2.11238765       1.22399818      -0.57957126
11
Frame=9 idx=003421 GeodesicLength=0.6655390363306649 rxn_smarts="[C:1]([C:2](=[O:3])[N:4]([C:5](=[O:6])[H:11])[H:10])([H:7])([H:8])[H:9]>>[C:1](/[C:2]([O:3][C:5](=[O:6])[H:11])=[N:4]\[H:10])([H:7])([H:8])[H:9]"
C       -1.66680795       0.11721803      -0.08099209
C       -0.26651952       0.05810131       0.43011246
O        0.44378410       1.13003743       0.53947505
N        0.51829779      -0.97860501       0.34996891
C        1.88193660       0.27604101      -0.08893288
O        2.83266820      -0.44257382      -0.20712465
H       -1.66728411       0.32675036      -1.15144270
H       -2.19386592       0.92190542       0.43019317
H       -2.18123591      -0.82387093       0.10971927
H        0.13397188      -1.87546286       0.09268668
H        2.16505484       1.29045905      -0.42366324
11
Frame=10 idx=003421 GeodesicLength=0.7185857585629906 rxn_smarts="[C:1]([C:2](=[O:3])[N:4]([C:5](=[O:6])[H:11])[H:10])([H:7])([H:8])[H:9]>>[C:1](/[C:2]([O:3][C:5](=[O:6])[H:11])=[N:4]\[H:10])([H:7])([H:8])[H:9]"
C       -1.65995718       0.10620982      -0.09618386
C       -0.27374656       0.06901862       0.45614435
O        0.43135498       1.14878378       0.53019002
N        0.51692008      -0.96830092       0.41265386
C        1.87494302       0.28146649      -0.10286769
O        2.75489097      -0.46299637      -0.43381767
H       -1.63301138       0.27680645      -1.17324128
H       -2.20065219       0.92655044       0.37427631
H       -2.17744156      -0.82917471       0.11388691
H        0.12904855      -1.86535704       0.16000663
H        2.23765127       1.31699345      -0.24104758
11
Frame=11 idx=003421 GeodesicLength=0.7702487126984913 rxn_smarts="[C:1]([C:2](=[O:3])[N:4]([C:5](=[O:6])[H:11])[H:10])([H:7])([H:8])[H:9]>>[C:1](/[C:2]([O:3][C:5](=[O:6])[H:11])=[N:4]\[H:10])([H:7])([H:8])[H:9]"
C       -1.65293366       0.09393700      -0.10857512
C       -0.27902851       0.08579130       0.47752494
O        0.41994332       1.17380224       0.50131722
N        0.51712308      -0.95152308       0.47069972
C        1.87159431       0.28556302      -0.11276456
O        2.65543723      -0.44814199      -0.64846153
H       -1.60438463       0.22273976      -1.19071012
H       -2.20644166       0.92788099       0.32120224
H       -2.17046407      -0.83604754       0.12438445
H        0.12967335      -1.84828264       0.21521506
H        2.31948124       1.29428092      -0.04983230
11
Frame=12 idx=003421 GeodesicLength=0.8331849410443246 rxn_smarts="[C:1]([C:2](=[O:3])[N:4]([C:5](=[O:6])[H:11])[H:10])([H:7])([H:8])[H:9]>>[C:1](/[C:2]([O:3][C:5](=[O:6])[H:11])=[N:4]\[H:10])([H:7])([H:8])[H:9]"
C       -1.64303850       0.08353576      -0.11821362
C       -0.28264722       0.10173408       0.50156189
O        0.41157403       1.19554252       0.47833845
N        0.51849615      -0.93547480       0.52056696
C        1.86785349       0.28761995      -0.12272270
O        2.55436603      -0.40161491      -0.82504550
H       -1.57166181       0.16761632      -1.20355752
H       -2.20657955       0.93250562       0.26660736
H       -2.16373894      -0.83820955       0.13954665
H        0.13317438      -1.83024795       0.25407354
H        2.38220194       1.23699295       0.10884450
11
Frame=13 idx=003421 GeodesicLength=0.9042349502290865 rxn_smarts="[C:1]([C:2](=[O:3])[N:4]([C:5](=[O:6])[H:11])[H:10])([H:7])([H:8])[H:9]>>[C:1](/[C:2]([O:3][C:5](=[O:6])[H:11])=[N:4]\[H:10])([H:7])([H:8])[H:9]"
C       -1.63010136       0.07497604      -0.12651780
C       -0.28584035       0.11573826       0.52989794
O        0.40543634       1.21309939       0.47013133
N        0.52016354      -0.92145079       0.56607681
C        1.86159805       0.28938922      -0.13427148
O        2.45462470      -0.34068690      -0.96514682
H       -1.53218234       0.11584787      -1.21237673
H       -2.20193465       0.93804155       0.21155243
H       -2.15687717      -0.83731737       0.15208892
H        0.13820793      -1.81254770       0.28203884
H        2.42690530       1.16491043       0.22652656
11
Frame=14 idx=003421 GeodesicLength=0.9785367384610069 rxn_smarts="[C:1]([C:2](=[O:3])[N:4]([C:5](=[O:6])[H:11])[H:10])([H:7])([H:8])[H:9]>>[C:1](/[C:2]([O:3][C:5](=[O:6])[H:11])=[N:4]\[H:10])([H:7])([H:8])[H:9]"
C       -1.61482930       0.06776413      -0.13467906
C       -0.28914542       0.12787016       0.56047379
O        0.40057261       1.22760785       0.47350783
N        0.52171661      -0.90935677       0.60939863
C        1.85366296       0.29033842      -0.14613837
O        2.35580187      -0.27443853      -1.07754393
H       -1.48759623       0.07120356      -1.21838057
H       -2.19401481       0.94196162       0.15892968
H       -2.14910927      -0.83589551       0.15781327
H        0.14332508      -1.79610843       0.30669683
H        2.45961592       1.08905350       0.30992190
11
Frame=15 idx=003421 GeodesicLength=1.0547493440375921 rxn_smarts="[C:1]([C:2](=[O:3])[N:4]([C:5](=[O:6])[H:11])[H:10])([H:7])([H:8])[H:9]>>[C:1](/[C:2]([O:3][C:5](=[O:6])[H:11])=[N:4]\[H:10])([H:7])([H:8])[H:9]"
C       -1.59856537       0.06122283      -0.14263467
C       -0.29256640       0.13921955       0.59042319
O        0.39621977       1.24083680       0.48136916
N        0.52316431      -0.89801921       0.65025818
C        1.84497171       0.29077286      -0.15875483
O        2.25905237      -0.20492007      -1.16935651
H       -1.44181340       0.03104991      -1.22217578
H       -2.18375910       0.94434884       0.10881359
H       -2.14076998      -0.83442746       0.16008855
H        0.14858156      -1.78027650       0.32939916
H        2.48548453       1.01019245       0.37256996
11
Frame=16 idx=003421 GeodesicLength=1.1327865376815578 rxn_smarts="[C:1]([C:2](=[O:3])[N:4]([C:5](=[O:6])[H:11])[H:10])([H:7])([H:8])[H:9]>>[C:1](/[C:2]([O:3][C:5](=[O:6])[H:11])=[N:4]\[H:10])([H:7])([H:8])[H:9]"
C       -1.58168718       0.05506839      -0.15044379
C       -0.29614221       0.15027943       0.61914587
O        0.39208547       1.25350728       0.49127360
N        0.52448590      -0.88689175       0.68918695
C        1.83580879       0.29087385      -0.17208027
O        2.16424561      -0.13300674      -1.24497590
H       -1.39579032      -0.00603704      -1.22417136
H       -2.17163148       0.94539402       0.06068258
H       -2.13189198      -0.83308444       0.16016818
H        0.15409129      -1.76465307       0.35083790
H        2.50642610       0.92855007       0.42037625
