11
Frame=0 idx=003003 GeodesicLength=0.0 rxn_smarts="[C:1]([c:2]1[c:3]([H:10])[n:4]([H:11])[n:5][n:6]1)([H:7])([H:8])[H:9]>>[C:1](=[C:2]1[C+:3]([H:10])[N:4]([H:11])[N-:5][N:6]1[H:7])([H:8])[H:9]"
C       -1.83536225       0.12477586       0.11498045
C       -0.36570459       0.14616276       0.03523676
C        0.82666412       0.83494395       0.00259257
N        1.78488689      -0.12418960      -0.11015396
N        1.30544926      -1.34683643      -0.14957865
N        0.02754502      -1.14884523      -0.05788791
H       -1.07089997      -1.52651414      -0.01314465
H       -2.30809471       0.60636835      -0.74250904
H       -2.21973919       0.55687721       1.03993842
H        1.07123698       1.88163993       0.04467238
H        2.78401845      -0.00438270      -0.16414639
11
Frame=1 idx=003003 GeodesicLength=0.05948246398446168 rxn_smarts="[C:1]([c:2]1[c:3]([H:10])[n:4]([H:11])[n:5][n:6]1)([H:7])([H:8])[H:9]>>[C:1](=[C:2]1[C+:3]([H:10])[N:4]([H:11])[N-:5][N:6]1[H:7])([H:8])[H:9]"
C       -1.83032128       0.12653353       0.10539696
C       -0.36155047       0.14318763       0.07755764
C        0.82790107       0.83503309       0.00283518
N        1.78564080      -0.12231703      -0.11737069
N        1.30782796      -1.34545960      -0.15278177
N        0.03020729      -1.15342660      -0.03323933
H       -1.08998603      -1.52228791      -0.02005460
H       -2.27583866       0.64877525      -0.74220264
H       -2.24434292       0.50754492       1.03957145
H        1.06554951       1.88409958       0.00436547
H        2.78491272      -0.00168286      -0.16407767
11
Frame=2 idx=003003 GeodesicLength=0.11897840699477319 rxn_smarts="[C:1]([c:2]1[c:3]([H:10])[n:4]([H:11])[n:5][n:6]1)([H:7])([H:8])[H:9]>>[C:1](=[C:2]1[C+:3]([H:10])[N:4]([H:11])[N-:5][N:6]1[H:7])([H:8])[H:9]"
C       -1.82375373       0.12921305       0.09565275
C       -0.35740963       0.14022611       0.11663763
C        0.82852182       0.83480288       0.00431537
N        1.78621020      -0.12066113      -0.12038658
N        1.31012987      -1.34429994      -0.15226949
N        0.03300684      -1.15806699      -0.00851873
H       -1.10862846      -1.51728763      -0.02687840
H       -2.24399005       0.68909494      -0.74009621
H       -2.26736915       0.46030871       1.03479185
H        1.05842668       1.88495787      -0.03064199
H        2.78485561       0.00171213      -0.17260620
11
Frame=3 idx=003003 GeodesicLength=0.17854127676135573 rxn_smarts="[C:1]([c:2]1[c:3]([H:10])[n:4]([H:11])[n:5][n:6]1)([H:7])([H:8])[H:9]>>[C:1](=[C:2]1[C+:3]([H:10])[N:4]([H:11])[N-:5][N:6]1[H:7])([H:8])[H:9]"
C       -1.81618399       0.13247525       0.08678512
C       -0.35349853       0.13751076       0.15046793
C        0.82858822       0.83442430       0.00413081
N        1.78678905      -0.11916739      -0.12067643
N        1.31274514      -1.34345710      -0.14722932
N        0.03567200      -1.16254728       0.01321384
H       -1.12714835      -1.51148064      -0.03465007
H       -2.21473842       0.72753938      -0.73443291
H       -2.28716058       0.41463919       1.02809355
H        1.05047583       1.88470069      -0.06294781
H        2.78445963       0.00536284      -0.18275470
11
Frame=4 idx=003003 GeodesicLength=0.23790307047536122 rxn_smarts="[C:1]([c:2]1[c:3]([H:10])[n:4]([H:11])[n:5][n:6]1)([H:7])([H:8])[H:9]>>[C:1](=[C:2]1[C+:3]([H:10])[N:4]([H:11])[N-:5][N:6]1[H:7])([H:8])[H:9]"
C       -1.80810504       0.13621743       0.07934772
C       -0.34975974       0.13505176       0.17952805
C        0.82829705       0.83391509       0.00211661
N        1.78749743      -0.11774865      -0.11941998
N        1.31579087      -1.34281964      -0.13909394
N        0.03822595      -1.16687627       0.03181702
H       -1.14557051      -1.50498066      -0.04442190
H       -2.18868224       0.76465780      -0.72470955
H       -2.30372095       0.37012303       1.02081161
H        1.04187889       1.88348737      -0.09563934
H        2.78414830       0.00897274      -0.19033629
11
Frame=5 idx=003003 GeodesicLength=0.2973548779051449 rxn_smarts="[C:1]([c:2]1[c:3]([H:10])[n:4]([H:11])[n:5][n:6]1)([H:7])([H:8])[H:9]>>[C:1](=[C:2]1[C+:3]([H:10])[N:4]([H:11])[N-:5][N:6]1[H:7])([H:8])[H:9]"
C       -1.79964697       0.14026267       0.07252852
C       -0.34622291       0.13278751       0.20562703
C        0.82783105       0.83324746       0.00033221
N        1.78834508      -0.11637915      -0.11630431
N        1.31924245      -1.34229497      -0.12819301
N        0.04076130      -1.17112460       0.04943158
H       -1.16388135      -1.49790679      -0.05523561
H       -2.16437568       0.80018898      -0.71277872
H       -2.31852386       0.32711684       1.01153870
H        1.03295213       1.88135367      -0.12662606
H        2.78351875       0.01274838      -0.20032031
11
Frame=6 idx=003003 GeodesicLength=0.35695682587452515 rxn_smarts="[C:1]([c:2]1[c:3]([H:10])[n:4]([H:11])[n:5][n:6]1)([H:7])([H:8])[H:9]>>[C:1](=[C:2]1[C+:3]([H:10])[N:4]([H:11])[N-:5][N:6]1[H:7])([H:8])[H:9]"
C       -1.79095832       0.14449330       0.06629428
C       -0.34287128       0.13070794       0.22945845
C        0.82724778       0.83246342      -0.00130930
N        1.78932912      -0.11499430      -0.11199720
N        1.32305761      -1.34178541      -0.11543533
N        0.04334053      -1.17529877       0.06656037
H       -1.18205545      -1.49032058      -0.06682642
H       -2.14160116       0.83406822      -0.69906251
H       -2.33192436       0.28568605       1.00038554
H        1.02386176       1.87844646      -0.15596430
H        2.78257377       0.01653367      -0.21210357
11
Frame=7 idx=003003 GeodesicLength=0.4163149444842108 rxn_smarts="[C:1]([c:2]1[c:3]([H:10])[n:4]([H:11])[n:5][n:6]1)([H:7])([H:8])[H:9]>>[C:1](=[C:2]1[C+:3]([H:10])[N:4]([H:11])[N-:5][N:6]1[H:7])([H:8])[H:9]"
C       -1.78215609       0.14886796       0.06121111
C       -0.33957775       0.12880758       0.25095514
C        0.82652025       0.83159231      -0.00408601
N        1.79031497      -0.11356773      -0.10808943
N        1.32699580      -1.34121836      -0.10228854
N        0.04592387      -1.17940542       0.08259222
H       -1.20004170      -1.48228835      -0.07959298
H       -2.12084172       0.86654497      -0.68283993
H       -2.34336287       0.24568242       0.98862091
H        1.01444900       1.87483672      -0.18577187
H        2.78177624       0.02014790      -0.22071064
11
Frame=8 idx=003003 GeodesicLength=0.4757578375415612 rxn_smarts="[C:1]([c:2]1[c:3]([H:10])[n:4]([H:11])[n:5][n:6]1)([H:7])([H:8])[H:9]>>[C:1](=[C:2]1[C+:3]([H:10])[N:4]([H:11])[N-:5][N:6]1[H:7])([H:8])[H:9]"
C       -1.77330427       0.15328855       0.05681696
C       -0.33640864       0.12706262       0.27088199
C        0.82568722       0.83067777      -0.00718784
N        1.79134648      -0.11208371      -0.10423266
N        1.33115874      -1.34066486      -0.08852047
N        0.04857318      -1.18354104       0.09836933
H       -1.21789193      -1.47391629      -0.09299444
H       -2.10141275       0.89746613      -0.66514647
H       -2.35362577       0.20731606       0.97565550
H        1.00492815       1.87069744      -0.21463462
H        2.78094960       0.02369734      -0.22900728
11
Frame=9 idx=003003 GeodesicLength=0.534858210604571 rxn_smarts="[C:1]([c:2]1[c:3]([H:10])[n:4]([H:11])[n:5][n:6]1)([H:7])([H:8])[H:9]>>[C:1](=[C:2]1[C+:3]([H:10])[N:4]([H:11])[N-:5][N:6]1[H:7])([H:8])[H:9]"
C       -1.76440620       0.15762914       0.05341311
C       -0.33327962       0.12530084       0.28978437
C        0.82481392       0.82963211      -0.00945424
N        1.79264744      -0.11046540      -0.09807701
N        1.33524769      -1.33980948      -0.07685144
N        0.05138138      -1.18749552       0.11329021
H       -1.23552418      -1.46447523      -0.10704057
H       -2.08321154       0.92629640      -0.64586252
H       -2.36247390       0.17103672       0.96179530
H        0.99472270       1.86508706      -0.24504824
H        2.78008232       0.02726335      -0.23594896
11
Frame=10 idx=003003 GeodesicLength=0.5942311245165282 rxn_smarts="[C:1]([c:2]1[c:3]([H:10])[n:4]([H:11])[n:5][n:6]1)([H:7])([H:8])[H:9]>>[C:1](=[C:2]1[C+:3]([H:10])[N:4]([H:11])[N-:5][N:6]1[H:7])([H:8])[H:9]"
C       -1.75552188       0.16198753       0.05031622
C       -0.33026014       0.12372737       0.30722268
C        0.82369424       0.82836492      -0.01314024
N        1.79366342      -0.10888111      -0.09441799
N        1.33975118      -1.33896455      -0.06256649
N        0.05429405      -1.19142497       0.12875513
H       -1.25297422      -1.45495868      -0.12174646
H       -2.06618557       0.95404619      -0.62549899
H       -2.37034984       0.13598479       0.94671839
H        0.98475889       1.85947394      -0.27255893
H        2.77912987       0.03064457      -0.24308332
11
Frame=11 idx=003003 GeodesicLength=0.6536157738112922 rxn_smarts="[C:1]([c:2]1[c:3]([H:10])[n:4]([H:11])[n:5][n:6]1)([H:7])([H:8])[H:9]>>[C:1](=[C:2]1[C+:3]([H:10])[N:4]([H:11])[N-:5][N:6]1[H:7])([H:8])[H:9]"
C       -1.74671052       0.16625702       0.04785457
C       -0.32731425       0.12223585       0.32368712
C        0.82249270       0.82705238      -0.01714612
N        1.79470114      -0.10723491      -0.09086274
N        1.34435830      -1.33809111      -0.04828433
N        0.05727789      -1.19542142       0.14412228
H       -1.27029452      -1.44509310      -0.13725731
H       -2.05021076       0.98040002      -0.60400587
H       -2.37723038       0.10251916       0.93104493
H        0.97466184       1.85337109      -0.29983748
H        2.77826856       0.03400502      -0.24931504
11
Frame=12 idx=003003 GeodesicLength=0.7129689078466881 rxn_smarts="[C:1]([c:2]1[c:3]([H:10])[n:4]([H:11])[n:5][n:6]1)([H:7])([H:8])[H:9]>>[C:1](=[C:2]1[C+:3]([H:10])[N:4]([H:11])[N-:5][N:6]1[H:7])([H:8])[H:9]"
C       -1.73795489       0.17043277       0.04603829
C       -0.32442278       0.12078167       0.33942613
C        0.82120770       0.82567681      -0.02115694
N        1.79578378      -0.10552596      -0.08693704
N        1.34905064      -1.33716954      -0.03419789
N        0.06036056      -1.19944896       0.15932827
H       -1.28743077      -1.43458505      -0.15379019
H       -2.03517181       1.00540086      -0.58128233
H       -2.38315075       0.07051356       0.91482131
H        0.96428762       1.84655275      -0.32754067
H        2.77744069       0.03737109      -0.25470893
11
Frame=13 idx=003003 GeodesicLength=0.7723250241728371 rxn_smarts="[C:1]([c:2]1[c:3]([H:10])[n:4]([H:11])[n:5][n:6]1)([H:7])([H:8])[H:9]>>[C:1](=[C:2]1[C+:3]([H:10])[N:4]([H:11])[N-:5][N:6]1[H:7])([H:8])[H:9]"
C       -1.72926866       0.17451177       0.04468461
C       -0.32157170       0.11938059       0.35431128
C        0.81974687       0.82402182      -0.02567668
N        1.79677357      -0.10380632      -0.08352495
N        1.35391357      -1.33599638      -0.01961015
N        0.06359635      -1.20333337       0.17473601
H       -1.30431947      -1.42353091      -0.17120759
H       -2.02106662       1.02915023      -0.55755608
H       -2.38809821       0.03992688       0.89798293
H        0.95370545       1.83902552      -0.35455160
H        2.77658884       0.04065018      -0.25958779
11
Frame=14 idx=003003 GeodesicLength=0.8316825558131379 rxn_smarts="[C:1]([c:2]1[c:3]([H:10])[n:4]([H:11])[n:5][n:6]1)([H:7])([H:8])[H:9]>>[C:1](=[C:2]1[C+:3]([H:10])[N:4]([H:11])[N-:5][N:6]1[H:7])([H:8])[H:9]"
C       -1.72069488       0.17847952       0.04380802
C       -0.31880013       0.11803182       0.36860563
C        0.81819148       0.82230766      -0.03036877
N        1.79778242      -0.10204310      -0.08009496
N        1.35890568      -1.33482004      -0.00486751
N        0.06693379      -1.20731959       0.19027905
H       -1.32100281      -1.41203299      -0.18964594
H       -2.00773653       1.05174080      -0.53296101
H       -2.39231474       0.01072130       0.88079540
H        0.94294842       1.83099570      -0.38149165
H        2.77578730       0.04393893      -0.26405827
11
Frame=15 idx=003003 GeodesicLength=0.8910779641662557 rxn_smarts="[C:1]([c:2]1[c:3]([H:10])[n:4]([H:11])[n:5][n:6]1)([H:7])([H:8])[H:9]>>[C:1](=[C:2]1[C+:3]([H:10])[N:4]([H:11])[N-:5][N:6]1[H:7])([H:8])[H:9]"
C       -1.71218898       0.18226516       0.04327849
C       -0.31608101       0.11670434       0.38237351
C        0.81652505       0.82042829      -0.03513289
N        1.79875190      -0.10024253      -0.07671095
N        1.36397622      -1.33348886       0.00991791
N        0.07040291      -1.21125281       0.20609503
H       -1.33751655      -1.39993321      -0.20875213
H       -1.99504263       1.07283436      -0.50784436
H       -2.39576488      -0.01696625       0.86311102
H        0.93205422       1.82244871      -0.40778060
H        2.77488376       0.04720280      -0.26855502
11
Frame=16 idx=003003 GeodesicLength=0.9504295583384781 rxn_smarts="[C:1]([c:2]1[c:3]([H:10])[n:4]([H:11])[n:5][n:6]1)([H:7])([H:8])[H:9]>>[C:1](=[C:2]1[C+:3]([H:10])[N:4]([H:11])[N-:5][N:6]1[H:7])([H:8])[H:9]"
C       -1.70378640       0.18589986       0.04313277
C       -0.31341595       0.11539122       0.39562671
C        0.81473625       0.81841180      -0.04004591
N        1.79968002      -0.09841205      -0.07349510
N        1.36912686      -1.33206362       0.02453088
N        0.07402397      -1.21520418       0.22213804
H       -1.35386273      -1.38733255      -0.22856643
H       -1.98299795       1.09260834      -0.48233286
H       -2.39847339      -0.04317773       0.84527435
H        0.92097992       1.81339951      -0.43366282
H        2.77398939       0.05047940      -0.27259963
