12
Frame=0 idx=005779 GeodesicLength=0.0 rxn_smarts="[C:1]1([H:7])([H:8])[C:2]([H:9])=[C:3]([H:10])[C@@:4]2([H:11])[O:5][C@@:6]12[H:12]>>[C:1]1([H:7])([H:8])[C@:2]2([H:9])[C:3]([H:10])=[C:4]([H:11])[C@@:6]1([H:12])[O:5]2"
C       -1.09606569       0.49612026      -0.19412672
C        0.20737975       1.06198747       0.32296760
C        1.29927209       0.37128997      -0.22984611
C        0.82504891      -0.89928918      -0.43354730
O       -0.22265160      -0.77892636       1.42273815
C       -0.58740518      -0.90008814       0.07075540
H       -1.95085278       0.71785663       0.43972084
H       -1.29202813       0.79658149      -1.22967220
H        0.29595419       1.99581420       0.86749082
H        2.33109338       0.68417877      -0.18649026
H        1.40206350      -1.78510746      -0.66344630
H       -1.21180846      -1.76041768      -0.18654387
12
Frame=1 idx=005779 GeodesicLength=0.04307068469043382 rxn_smarts="[C:1]1([H:7])([H:8])[C:2]([H:9])=[C:3]([H:10])[C@@:4]2([H:11])[O:5][C@@:6]12[H:12]>>[C:1]1([H:7])([H:8])[C@:2]2([H:9])[C:3]([H:10])=[C:4]([H:11])[C@@:6]1([H:12])[O:5]2"
C       -1.09601782       0.49872042      -0.19613456
C        0.20608798       1.05780726       0.33409059
C        1.29697609       0.37217916      -0.23065803
C        0.82686162      -0.90441822      -0.41973507
O       -0.20976612      -0.77763796       1.41315357
C       -0.59162394      -0.90077635       0.06445435
H       -1.95279744       0.72015147       0.43565536
H       -1.28826478       0.79970274      -1.23180748
H        0.29504316       1.99438453       0.87374647
H        2.32768005       0.69039374      -0.19900093
H        1.40252855      -1.78883528      -0.65740106
H       -1.21670733      -1.76167152      -0.18636320
12
Frame=2 idx=005779 GeodesicLength=0.08613502325034356 rxn_smarts="[C:1]1([H:7])([H:8])[C:2]([H:9])=[C:3]([H:10])[C@@:4]2([H:11])[O:5][C@@:6]12[H:12]>>[C:1]1([H:7])([H:8])[C@:2]2([H:9])[C:3]([H:10])=[C:4]([H:11])[C@@:6]1([H:12])[O:5]2"
C       -1.09589700       0.50126789      -0.19811514
C        0.20481205       1.05366905       0.34495163
C        1.29468713       0.37301741      -0.23142972
C        0.82860409      -0.90936849      -0.40624351
O       -0.19720341      -0.77626244       1.40369301
C       -0.59554348      -0.90143029       0.05828575
H       -1.95465623       0.72245977       0.43159706
H       -1.28462734       0.80263828      -1.23390801
H        0.29414282       1.99288846       0.87988807
H        2.32417645       0.69631975      -0.21105800
H        1.40287499      -1.79235754      -0.65169019
H       -1.22137008      -1.76284185      -0.18597096
12
Frame=3 idx=005779 GeodesicLength=0.12919660039851 rxn_smarts="[C:1]1([H:7])([H:8])[C:2]([H:9])=[C:3]([H:10])[C@@:4]2([H:11])[O:5][C@@:6]12[H:12]>>[C:1]1([H:7])([H:8])[C@:2]2([H:9])[C:3]([H:10])=[C:4]([H:11])[C@@:6]1([H:12])[O:5]2"
C       -1.09571239       0.50376326      -0.20006461
C        0.20354943       1.04957617       0.35554468
C        1.29240508       0.37381296      -0.23217836
C        0.83026722      -0.91414137      -0.39310391
O       -0.18492354      -0.77479796       1.39434328
C       -0.59917822      -0.90205308       0.05224057
H       -1.95642449       0.72477468       0.42756713
H       -1.28113405       0.80538681      -1.23596883
H        0.29324863       1.99134576       0.88588488
H        2.32060623       0.70194323      -0.22259322
H        1.40310720      -1.79567996      -0.64630118
H       -1.22581109      -1.76393050      -0.18537042
12
Frame=4 idx=005779 GeodesicLength=0.17225312697796416 rxn_smarts="[C:1]1([H:7])([H:8])[C:2]([H:9])=[C:3]([H:10])[C@@:4]2([H:11])[O:5][C@@:6]12[H:12]>>[C:1]1([H:7])([H:8])[C@:2]2([H:9])[C:3]([H:10])=[C:4]([H:11])[C@@:6]1([H:12])[O:5]2"
C       -1.09547135       0.50621245      -0.20198973
C        0.20229918       1.04552385       0.36588589
C        1.29013471       0.37456644      -0.23290291
C        0.83185432      -0.91874704      -0.38032397
O       -0.17291402      -0.77325404       1.38510243
C       -0.60254972      -0.90264737       0.04630315
H       -1.95811322       0.72709904       0.42356031
H       -1.27777806       0.80796817      -1.23799980
H        0.29236100       1.98973674       0.89178390
H        2.31698192       0.70730146      -0.23368565
H        1.40324874      -1.79882336      -0.64115869
H       -1.23005351      -1.76493636      -0.18457494
12
Frame=5 idx=005779 GeodesicLength=0.21531096453272194 rxn_smarts="[C:1]1([H:7])([H:8])[C:2]([H:9])=[C:3]([H:10])[C@@:4]2([H:11])[O:5][C@@:6]12[H:12]>>[C:1]1([H:7])([H:8])[C@:2]2([H:9])[C:3]([H:10])=[C:4]([H:11])[C@@:6]1([H:12])[O:5]2"
C       -1.09517782       0.50862129      -0.20389263
C        0.20105974       1.04150553       0.37599250
C        1.28787437       0.37527965      -0.23360443
C        0.83336273      -0.92319570      -0.36791355
O       -0.16116280      -0.77164495       1.37595702
C       -0.60567783      -0.90321595       0.04045539
H       -1.95972451       0.72943559       0.41957717
H       -1.27455171       0.81040610      -1.24000062
H        0.29148186       1.98804772       0.89761924
H        2.31330465       0.71242887      -0.24441057
H        1.40332881      -1.80181006      -0.63617342
H       -1.23411748      -1.76585808      -0.18360612
12
Frame=6 idx=005779 GeodesicLength=0.25837424287608496 rxn_smarts="[C:1]1([H:7])([H:8])[C:2]([H:9])=[C:3]([H:10])[C@@:4]2([H:11])[O:5][C@@:6]12[H:12]>>[C:1]1([H:7])([H:8])[C@:2]2([H:9])[C:3]([H:10])=[C:4]([H:11])[C@@:6]1([H:12])[O:5]2"
C       -1.09483462       0.51099588      -0.20577689
C        0.19983009       1.03751384       0.38588344
C        1.28562474       0.37595361      -0.23427956
C        0.83479288      -0.92749732      -0.35587594
O       -0.14966179      -0.76998399       1.36689773
C       -0.60858195      -0.90376146       0.03468021
H       -1.96126330       0.73178621       0.41561277
H       -1.27144255       0.81272272      -1.24197450
H        0.29061462       1.98625988       0.90343395
H        2.30957182       0.71736552      -0.25485766
H        1.40337480      -1.80466282      -0.63125970
H       -1.23802475      -1.76669206      -0.18248383
12
Frame=7 idx=005779 GeodesicLength=0.3014485809987791 rxn_smarts="[C:1]1([H:7])([H:8])[C:2]([H:9])=[C:3]([H:10])[C@@:4]2([H:11])[O:5][C@@:6]12[H:12]>>[C:1]1([H:7])([H:8])[C@:2]2([H:9])[C:3]([H:10])=[C:4]([H:11])[C@@:6]1([H:12])[O:5]2"
C       -1.09444337       0.51334220      -0.20764530
C        0.19860909       1.03354096       0.39557823
C        1.28338651       0.37658977      -0.23492515
C        0.83614444      -0.93166287      -0.34420863
O       -0.13840494      -0.76828615       1.35791594
C       -0.61128014      -0.90428530       0.02896219
H       -1.96273384       0.73415213       0.41166272
H       -1.26843779       0.81494198      -1.24392273
H        0.28976099       1.98435984       0.90926351
H        2.30577862       0.72214884      -0.26511103
H        1.40341527      -1.80740621      -0.62634220
H       -1.24179484      -1.76743519      -0.18122756
12
Frame=8 idx=005779 GeodesicLength=0.3445370294104424 rxn_smarts="[C:1]1([H:7])([H:8])[C:2]([H:9])=[C:3]([H:10])[C@@:4]2([H:11])[O:5][C@@:6]12[H:12]>>[C:1]1([H:7])([H:8])[C@:2]2([H:9])[C:3]([H:10])=[C:4]([H:11])[C@@:6]1([H:12])[O:5]2"
C       -1.09400534       0.51566511      -0.20950078
C        0.19739685       1.02958257       0.40509363
C        1.28116154       0.37718926      -0.23553572
C        0.83742201      -0.93570253      -0.33290317
O       -0.12738732      -0.76656237       1.34900356
C       -0.61378894      -0.90478895       0.02329313
H       -1.96414030       0.73653761       0.40772170
H       -1.26552400       0.81707874      -1.24585013
H        0.28892110       1.98233837       0.91513874
H        2.30191814       0.72680845      -0.27523808
H        1.40347127      -1.81005884      -0.62137301
H       -1.24544502      -1.76808743      -0.17984986
12
Frame=9 idx=005779 GeodesicLength=0.38763324468076016 rxn_smarts="[C:1]1([H:7])([H:8])[C:2]([H:9])=[C:3]([H:10])[C@@:4]2([H:11])[O:5][C@@:6]12[H:12]>>[C:1]1([H:7])([H:8])[C@:2]2([H:9])[C:3]([H:10])=[C:4]([H:11])[C@@:6]1([H:12])[O:5]2"
C       -1.09351910       0.51796730      -0.21134504
C        0.19619172       1.02562785       0.41444692
C        1.27895179       0.37775079      -0.23610112
C        0.83862182      -0.93962375      -0.32196181
O       -0.11660444      -0.76480989       1.34016623
C       -0.61611844      -0.90527733       0.01766351
H       -1.96548329       0.73894354       0.40378281
H       -1.26269002       0.81914957      -1.24775289
H        0.28809663       1.98018064       0.92108750
H        2.29797750       0.73137774      -0.28531262
H        1.40355650      -1.81264538      -0.61629215
H       -1.24898069      -1.76864108      -0.17838135
12
Frame=10 idx=005779 GeodesicLength=0.430753776598402 rxn_smarts="[C:1]1([H:7])([H:8])[C:2]([H:9])=[C:3]([H:10])[C@@:4]2([H:11])[O:5][C@@:6]12[H:12]>>[C:1]1([H:7])([H:8])[C@:2]2([H:9])[C:3]([H:10])=[C:4]([H:11])[C@@:6]1([H:12])[O:5]2"
C       -1.09299054       0.52025340      -0.21317622
C        0.19499369       1.02168065       0.42364063
C        1.27675741       0.37828511      -0.23663364
C        0.83975438      -0.94343433      -0.31136263
O       -0.10603860      -0.76304949       1.33138494
C       -0.61828464      -0.90574602       0.01206816
H       -1.96676492       0.74136619       0.39985733
H       -1.25994016       0.82115917      -1.24963664
H        0.28728314       1.97790732       0.92708760
H        2.29396871       0.73584959      -0.29530315
H        1.40368075      -1.81516987      -0.61111719
H       -1.25241922      -1.76910172      -0.17680921
12
Frame=11 idx=005779 GeodesicLength=0.47389091125926075 rxn_smarts="[C:1]1([H:7])([H:8])[C:2]([H:9])=[C:3]([H:10])[C@@:4]2([H:11])[O:5][C@@:6]12[H:12]>>[C:1]1([H:7])([H:8])[C@:2]2([H:9])[C:3]([H:10])=[C:4]([H:11])[C@@:6]1([H:12])[O:5]2"
C       -1.09242116       0.52252429      -0.21499688
C        0.19379900       1.01773541       0.43268506
C        1.27458071       0.37879360      -0.23713326
C        0.84081459      -0.94714066      -0.30111167
O       -0.09567827      -0.76127583       1.32266859
C       -0.62029581      -0.90619948       0.00649622
H       -1.96798782       0.74380962       0.39594292
H       -1.25726938       0.82311764      -1.25149686
H        0.28647959       1.97551395       0.93315324
H        2.28989024       0.74024260      -0.30524066
H        1.40385181      -1.81765214      -0.60581583
H       -1.25576350      -1.76946898      -0.17515087
12
Frame=12 idx=005779 GeodesicLength=0.5170202343423979 rxn_smarts="[C:1]1([H:7])([H:8])[C:2]([H:9])=[C:3]([H:10])[C@@:4]2([H:11])[O:5][C@@:6]12[H:12]>>[C:1]1([H:7])([H:8])[C@:2]2([H:9])[C:3]([H:10])=[C:4]([H:11])[C@@:6]1([H:12])[O:5]2"
C       -1.09180918       0.52478230      -0.21680791
C        0.19261015       1.01378553       0.44159250
C        1.27242384       0.37927425      -0.23758882
C        0.84180337      -0.95074766      -0.29121005
O       -0.08553027      -0.75948972       1.31401350
C       -0.62215940      -0.90663649       0.00095576
H       -1.96915442       0.74628037       0.39202886
H       -1.25466221       0.82502664      -1.25333723
H        0.28568896       1.97298322       0.93931817
H        2.28572148       0.74458181      -0.31519120
H        1.40408761      -1.82010644      -0.60035001
H       -1.25901991      -1.76973380      -0.17342357
12
Frame=13 idx=005779 GeodesicLength=0.5601712172025592 rxn_smarts="[C:1]1([H:7])([H:8])[C:2]([H:9])=[C:3]([H:10])[C@@:4]2([H:11])[O:5][C@@:6]12[H:12]>>[C:1]1([H:7])([H:8])[C@:2]2([H:9])[C:3]([H:10])=[C:4]([H:11])[C@@:6]1([H:12])[O:5]2"
C       -1.09115965       0.52702880      -0.21861128
C        0.19142455       1.00983465       0.45036181
C        1.27028630       0.37973720      -0.23801673
C        0.84273006      -0.95426318      -0.28162976
O       -0.07556926      -0.75769551       1.30541549
C       -0.62388888      -0.90706017      -0.00456392
H       -1.97026546       0.74877507       0.38812231
H       -1.25212412       0.82688923      -1.25516389
H        0.28490763       1.97033363       0.94555896
H        2.28147807       0.74886011      -0.32510358
H        1.40438208      -1.82253360      -0.59476009
H       -1.26220134      -1.76990623      -0.17160933
12
Frame=14 idx=005779 GeodesicLength=0.6033375231913405 rxn_smarts="[C:1]1([H:7])([H:8])[C:2]([H:9])=[C:3]([H:10])[C@@:4]2([H:11])[O:5][C@@:6]12[H:12]>>[C:1]1([H:7])([H:8])[C@:2]2([H:9])[C:3]([H:10])=[C:4]([H:11])[C@@:6]1([H:12])[O:5]2"
C       -1.09047748       0.52926244      -0.22040597
C        0.19024070       1.00588404       0.45898869
C        1.26816858       0.38018806      -0.23842763
C        0.84359522      -0.95769019      -0.27236898
O       -0.06577879      -0.75588748       1.29687438
C       -0.62549018      -0.90747125      -0.01006026
H       -1.97132145       0.75129218       0.38423094
H       -1.24966451       0.82869929      -1.25697579
H        0.28413315       1.96757931       0.95185022
H        2.27717373       0.75306541      -0.33492531
H        1.40472885      -1.82493331      -0.58907673
H       -1.26530781      -1.76998849      -0.16970357
12
Frame=15 idx=005779 GeodesicLength=0.6465126374409788 rxn_smarts="[C:1]1([H:7])([H:8])[C:2]([H:9])=[C:3]([H:10])[C@@:4]2([H:11])[O:5][C@@:6]12[H:12]>>[C:1]1([H:7])([H:8])[C@:2]2([H:9])[C:3]([H:10])=[C:4]([H:11])[C@@:6]1([H:12])[O:5]2"
C       -1.08976766       0.53148174      -0.22219092
C        0.18905753       1.00193557       0.46746943
C        1.26607071       0.38063230      -0.23883224
C        0.84440020      -0.96103120      -0.26342455
O       -0.05614351      -0.75406069       1.28838956
C       -0.62696969      -0.90787077      -0.01552970
H       -1.97232328       0.75382993       0.38036235
H       -1.24729269       0.83045038      -1.25877265
H        0.28336318       1.96473485       0.95816641
H        2.27282417       0.75718605      -0.34460447
H        1.40512091      -1.82730470      -0.58333183
H       -1.26833987      -1.76998344      -0.16770139
12
Frame=16 idx=005779 GeodesicLength=0.6896913613523663 rxn_smarts="[C:1]1([H:7])([H:8])[C:2]([H:9])=[C:3]([H:10])[C@@:4]2([H:11])[O:5][C@@:6]12[H:12]>>[C:1]1([H:7])([H:8])[C@:2]2([H:9])[C:3]([H:10])=[C:4]([H:11])[C@@:6]1([H:12])[O:5]2"
C       -1.08903502       0.53368538      -0.22396514
C        0.18787418       0.99799107       0.47580126
C        1.26399231       0.38107516      -0.23924093
C        0.84514692      -0.96428888      -0.25479153
O       -0.04664944      -0.75221090       1.27996027
C       -0.62833412      -0.90825996      -0.02096876
H       -1.97327224       0.75638633       0.37652361
H       -1.24501727       0.83213668      -1.26055450
H        0.28259557       1.96181411       0.96448386
H        2.26844615       0.76121247      -0.35409399
H        1.40555143      -1.82964751      -0.57755537
H       -1.27129847      -1.76989395      -0.16559878
