12
Frame=0 idx=007777 GeodesicLength=0.0 rxn_smarts="[C:1]([c:2]1[n:3][n:4]([H:11])[c:5](=[O:6])[n:7]1[H:12])([H:8])([H:9])[H:10]>>[C:1]([c:2]1[n:3][n:4][c:5]([O:6][H:11])[n:7]1[H:12])([H:8])([H:9])[H:10]"
C        1.95915353      -0.11316435       0.02394635
C        0.48146029      -0.22687140       0.07966824
N       -0.18236891      -1.27023053       0.46749885
N       -1.50089741      -0.91441285       0.34840227
C       -1.61730338       0.30867731      -0.09873406
O       -2.84542373       0.63523121      -0.20868423
N       -0.37974655       0.80963892      -0.29246493
H        2.30459682       0.07261136      -0.99512024
H        2.38743291      -1.04986036       0.37346265
H        2.31848524       0.69626411       0.66257859
H       -2.79363370      -0.66926614       0.26814659
H       -0.13175507       1.72138277      -0.62870003
12
Frame=1 idx=007777 GeodesicLength=0.03143808044715955 rxn_smarts="[C:1]([c:2]1[n:3][n:4]([H:11])[c:5](=[O:6])[n:7]1[H:12])([H:8])([H:9])[H:10]>>[C:1]([c:2]1[n:3][n:4][c:5]([O:6][H:11])[n:7]1[H:12])([H:8])([H:9])[H:10]"
C        1.96018471      -0.11271615       0.02475407
C        0.48239244      -0.22475325       0.08407931
N       -0.18202464      -1.26533982       0.47799711
N       -1.50139584      -0.92082361       0.33351003
C       -1.61676617       0.29049702      -0.15099109
O       -2.84227224       0.64245199      -0.19564664
N       -0.37837588       0.81012642      -0.28860296
H        2.30324628       0.07256187      -0.99522506
H        2.38836685      -1.04987421       0.37338329
H        2.32191776       0.69672463       0.66205685
H       -2.80170168      -0.66457818       0.29139742
H       -0.13357158       1.72572329      -0.61671231
12
Frame=2 idx=007777 GeodesicLength=0.06255394422455705 rxn_smarts="[C:1]([c:2]1[n:3][n:4]([H:11])[c:5](=[O:6])[n:7]1[H:12])([H:8])([H:9])[H:10]>>[C:1]([c:2]1[n:3][n:4][c:5]([O:6][H:11])[n:7]1[H:12])([H:8])([H:9])[H:10]"
C        1.96063582      -0.11197623       0.02612239
C        0.48292225      -0.22367806       0.08570243
N       -0.18203564      -1.26186782       0.48414627
N       -1.50165760      -0.92784611       0.31710991
C       -1.61592368       0.27807733      -0.18662772
O       -2.83676801       0.64987630      -0.18272238
N       -0.37761077       0.80852206      -0.28928702
H        2.30341003       0.07285971      -0.99400615
H        2.38870083      -1.04902383       0.37498396
H        2.32249597       0.69787036       0.66278437
H       -2.80816901      -0.66031340       0.31175336
H       -0.13600019       1.72749968      -0.60995942
12
Frame=3 idx=007777 GeodesicLength=0.09400405963487335 rxn_smarts="[C:1]([c:2]1[n:3][n:4]([H:11])[c:5](=[O:6])[n:7]1[H:12])([H:8])([H:9])[H:10]>>[C:1]([c:2]1[n:3][n:4][c:5]([O:6][H:11])[n:7]1[H:12])([H:8])([H:9])[H:10]"
C        1.96108826      -0.11106259       0.02800689
C        0.48334151      -0.22369297       0.08441719
N       -0.18221273      -1.26037547       0.48512913
N       -1.50207165      -0.93400440       0.30322228
C       -1.61540019       0.26894245      -0.21353549
O       -2.83097142       0.65690337      -0.17081354
N       -0.37691040       0.80564748      -0.29365376
H        2.30572910       0.07445454      -0.99136254
H        2.38904821      -1.04796822       0.37734131
H        2.32103302       0.69898708       0.66547079
H       -2.81409772      -0.65597502       0.33224050
H       -0.13857599       1.72814373      -0.60646277
12
Frame=4 idx=007777 GeodesicLength=0.12554233095173434 rxn_smarts="[C:1]([c:2]1[n:3][n:4]([H:11])[c:5](=[O:6])[n:7]1[H:12])([H:8])([H:9])[H:10]>>[C:1]([c:2]1[n:3][n:4][c:5]([O:6][H:11])[n:7]1[H:12])([H:8])([H:9])[H:10]"
C        1.96148402      -0.11011007       0.03003219
C        0.48368505      -0.22416874       0.08187658
N       -0.18247155      -1.25971690       0.48388896
N       -1.50258642      -0.93956202       0.29092550
C       -1.61507433       0.26139325      -0.23630075
O       -2.82496133       0.66343671      -0.16005820
N       -0.37621565       0.80232614      -0.29938042
H        2.30885203       0.07662105      -0.98818380
H        2.38933712      -1.04688386       0.37984556
H        2.31870297       0.69999069       0.66895149
H       -2.81951553      -0.65165095       0.35259067
H       -0.14123638       1.72832469      -0.60418777
12
Frame=5 idx=007777 GeodesicLength=0.15713068658863277 rxn_smarts="[C:1]([c:2]1[n:3][n:4]([H:11])[c:5](=[O:6])[n:7]1[H:12])([H:8])([H:9])[H:10]>>[C:1]([c:2]1[n:3][n:4][c:5]([O:6][H:11])[n:7]1[H:12])([H:8])([H:9])[H:10]"
C        1.96179548      -0.10903292       0.03240634
C        0.48395273      -0.22526035       0.07771650
N       -0.18276857      -1.26015875       0.47983037
N       -1.50325366      -0.94470553       0.27972251
C       -1.61500940       0.25474412      -0.25666715
O       -2.81871972       0.66980821      -0.14968279
N       -0.37551467       0.79836521      -0.30691185
H        2.31308556       0.07971481      -0.98408598
H        2.38956136      -1.04568361       0.38265298
H        2.31511565       0.70087145       0.67372781
H       -2.82425916      -0.64662052       0.37450287
H       -0.14398560       1.72795788      -0.60321160
12
Frame=6 idx=007777 GeodesicLength=0.18876256891803242 rxn_smarts="[C:1]([c:2]1[n:3][n:4]([H:11])[c:5](=[O:6])[n:7]1[H:12])([H:8])([H:9])[H:10]>>[C:1]([c:2]1[n:3][n:4][c:5]([O:6][H:11])[n:7]1[H:12])([H:8])([H:9])[H:10]"
C        1.96198939      -0.10779267       0.03522697
C        0.48414068      -0.22703387       0.07178703
N       -0.18308020      -1.26180010       0.47276963
N       -1.50411226      -0.94954226       0.26933713
C       -1.61525531       0.24868413      -0.27543090
O       -2.81220062       0.67622619      -0.13918958
N       -0.37481340       0.79369125      -0.31641275
H        2.31852732       0.08389186      -0.97888392
H        2.38970375      -1.04432969       0.38583982
H        2.31007747       0.70162688       0.68000571
H       -2.82815174      -0.64059538       0.39859455
H       -0.14682509       1.72697366      -0.60364368
12
Frame=7 idx=007777 GeodesicLength=0.22046664210317649 rxn_smarts="[C:1]([c:2]1[n:3][n:4]([H:11])[c:5](=[O:6])[n:7]1[H:12])([H:8])([H:9])[H:10]>>[C:1]([c:2]1[n:3][n:4][c:5]([O:6][H:11])[n:7]1[H:12])([H:8])([H:9])[H:10]"
C        1.96199001      -0.10628270       0.03878282
C        0.48423675      -0.22978596       0.06331690
N       -0.18335170      -1.26513267       0.46148299
N       -1.50523227      -0.95412318       0.25966130
C       -1.61595905       0.24302515      -0.29302351
O       -2.80526582       0.68308222      -0.12759833
N       -0.37411244       0.78796139      -0.32879356
H        2.32571036       0.08968373      -0.97194704
H        2.38972046      -1.04270917       0.38967242
H        2.30284382       0.70222574       0.68853931
H       -2.83082972      -0.63300177       0.42615881
H       -0.14975040       1.72505722      -0.60625211
12
Frame=8 idx=007777 GeodesicLength=0.2521484823068823 rxn_smarts="[C:1]([c:2]1[n:3][n:4]([H:11])[c:5](=[O:6])[n:7]1[H:12])([H:8])([H:9])[H:10]>>[C:1]([c:2]1[n:3][n:4][c:5]([O:6][H:11])[n:7]1[H:12])([H:8])([H:9])[H:10]"
C        1.96196690      -0.10509810       0.04151480
C        0.48435295      -0.23175057       0.05687423
N       -0.18370971      -1.26701190       0.45380178
N       -1.50623369      -0.95845797       0.25050590
C       -1.61642643       0.23777687      -0.30969391
O       -2.79846898       0.68869657      -0.11903453
N       -0.37341301       0.78323464      -0.33854010
H        2.33110059       0.09418583      -0.96659523
H        2.38967280      -1.04148123       0.39254653
H        2.29732811       0.70269509       0.69499706
H       -2.83343426      -0.62672381       0.45016424
H       -0.15273526       1.72393460      -0.60654079
12
Frame=9 idx=007777 GeodesicLength=0.2838399627818367 rxn_smarts="[C:1]([c:2]1[n:3][n:4]([H:11])[c:5](=[O:6])[n:7]1[H:12])([H:8])([H:9])[H:10]>>[C:1]([c:2]1[n:3][n:4][c:5]([O:6][H:11])[n:7]1[H:12])([H:8])([H:9])[H:10]"
C        1.96194578      -0.10412981       0.04369659
C        0.48448199      -0.23321122       0.05172933
N       -0.18412964      -1.26796478       0.44840293
N       -1.50718215      -0.96258299       0.24182032
C       -1.61672186       0.23283948      -0.32566018
O       -2.79182283       0.69340150      -0.11264418
N       -0.37270047       0.77915617      -0.34661927
H        2.33535502       0.09784999      -0.96229549
H        2.38960029      -1.04051656       0.39477891
H        2.29295384       0.70307555       0.70010834
H       -2.83600534      -0.62126180       0.47189008
H       -0.15577463       1.72334447      -0.60520737
12
Frame=10 idx=007777 GeodesicLength=0.3155511343818192 rxn_smarts="[C:1]([c:2]1[n:3][n:4]([H:11])[c:5](=[O:6])[n:7]1[H:12])([H:8])([H:9])[H:10]>>[C:1]([c:2]1[n:3][n:4][c:5]([O:6][H:11])[n:7]1[H:12])([H:8])([H:9])[H:10]"
C        1.96194023      -0.10332659       0.04545819
C        0.48462291      -0.23431013       0.04752564
N       -0.18459791      -1.26824982       0.44464697
N       -1.50809242      -0.96651965       0.23356577
C       -1.61686381       0.22811914      -0.34111464
O       -2.78535527       0.69734076      -0.10810290
N       -0.37197569       0.77554758      -0.35348707
H        2.33879196       0.10091500      -0.95878729
H        2.38952392      -1.03975961       0.39650208
H        2.28943940       0.70337246       0.70423789
H       -2.83853810      -0.61629393       0.49207365
H       -0.15889521       1.72316478      -0.60251830
12
Frame=11 idx=007777 GeodesicLength=0.34728337029970024 rxn_smarts="[C:1]([c:2]1[n:3][n:4]([H:11])[c:5](=[O:6])[n:7]1[H:12])([H:8])([H:9])[H:10]>>[C:1]([c:2]1[n:3][n:4][c:5]([O:6][H:11])[n:7]1[H:12])([H:8])([H:9])[H:10]"
C        1.96193316      -0.10261893       0.04698474
C        0.48476426      -0.23523679       0.04377263
N       -0.18510370      -1.26821872       0.44165393
N       -1.50899496      -0.97029650       0.22567993
C       -1.61691110       0.22355451      -0.35618172
O       -2.77902322       0.70072318      -0.10489124
N       -0.37124309       0.77217885      -0.35975063
H        2.34180379       0.10369753      -0.95569327
H        2.38943578      -1.03913128       0.39791444
H        2.28635295       0.70359412       0.70786900
H       -2.84089823      -0.61144323       0.51158998
H       -0.16211565       1.72319726      -0.59894779
12
Frame=12 idx=007777 GeodesicLength=0.3790395968574709 rxn_smarts="[C:1]([c:2]1[n:3][n:4]([H:11])[c:5](=[O:6])[n:7]1[H:12])([H:8])([H:9])[H:10]>>[C:1]([c:2]1[n:3][n:4][c:5]([O:6][H:11])[n:7]1[H:12])([H:8])([H:9])[H:10]"
C        1.96189611      -0.10194176       0.04844817
C        0.48489451      -0.23617823       0.03998195
N       -0.18563514      -1.26818846       0.43863299
N       -1.50992719      -0.97393428       0.21812440
C       -1.61693754       0.21910187      -0.37093893
O       -2.77276209       0.70374744      -0.10250415
N       -0.37050881       0.76884165      -0.36596467
H        2.34475265       0.10653030      -0.95264228
H        2.38932147      -1.03856617       0.39917190
H        2.28326018       0.70372063       0.71148271
H       -2.84291031      -0.60636980       0.53121123
H       -0.16544384       1.72323683      -0.59500332
12
Frame=13 idx=007777 GeodesicLength=0.4108243352983101 rxn_smarts="[C:1]([c:2]1[n:3][n:4]([H:11])[c:5](=[O:6])[n:7]1[H:12])([H:8])([H:9])[H:10]>>[C:1]([c:2]1[n:3][n:4][c:5]([O:6][H:11])[n:7]1[H:12])([H:8])([H:9])[H:10]"
C        1.96181172      -0.10126497       0.04992465
C        0.48500916      -0.23722561       0.03592433
N       -0.18618379      -1.26830192       0.43524386
N       -1.51091015      -0.97744566       0.21087858
C       -1.61698022       0.21471979      -0.38546141
O       -2.76654394       0.70650166      -0.10072760
N       -0.36977709       0.76543685      -0.37238188
H        2.34779486       0.10957520      -0.94946313
H        2.38917538      -1.03803443       0.40033571
H        2.27995266       0.70373686       0.71530143
H       -2.84446025      -0.60088522       0.55130768
H       -0.16888834       1.72318745      -0.59088222
12
Frame=14 idx=007777 GeodesicLength=0.4426426801970095 rxn_smarts="[C:1]([c:2]1[n:3][n:4]([H:11])[c:5](=[O:6])[n:7]1[H:12])([H:8])([H:9])[H:10]>>[C:1]([c:2]1[n:3][n:4][c:5]([O:6][H:11])[n:7]1[H:12])([H:8])([H:9])[H:10]"
C        1.96165489      -0.10055770       0.05149930
C        0.48510133      -0.23846807       0.03137227
N       -0.18674097      -1.26871329       0.43111700
N       -1.51196937      -0.98084715       0.20390317
C       -1.61708658       0.21038738      -0.39979012
O       -2.76033244       0.70907956      -0.09930753
N       -0.36905408       0.76187788      -0.37922556
H        2.35108183       0.11300030      -0.94596900
H        2.38898381      -1.03750545       0.40147525
H        2.27620930       0.70362610       0.71955456
H       -2.84540358      -0.59481501       0.57223355
H       -0.17244415       1.72293544      -0.58686287
12
Frame=15 idx=007777 GeodesicLength=0.47450202083939685 rxn_smarts="[C:1]([c:2]1[n:3][n:4]([H:11])[c:5](=[O:6])[n:7]1[H:12])([H:8])([H:9])[H:10]>>[C:1]([c:2]1[n:3][n:4][c:5]([O:6][H:11])[n:7]1[H:12])([H:8])([H:9])[H:10]"
C        1.96138983      -0.09978571       0.05327132
C        0.48516284      -0.24001766       0.02603995
N       -0.18729888      -1.26959851       0.42583144
N       -1.51313616      -0.98415097       0.19717235
C       -1.61732047       0.20608858      -0.41395074
O       -2.75407106       0.71159034      -0.09794507
N       -0.36834801       0.75806025      -0.38676691
H        2.35479055       0.11701739      -0.94193057
H        2.38872780      -1.03694799       0.40266115
H        2.27175303       0.70335960       0.72451865
H       -2.84554911      -0.58796362       0.59438368
H       -0.17610037       1.72234830      -0.58328526
12
Frame=16 idx=007777 GeodesicLength=0.5063862856159518 rxn_smarts="[C:1]([c:2]1[n:3][n:4]([H:11])[c:5](=[O:6])[n:7]1[H:12])([H:8])([H:9])[H:10]>>[C:1]([c:2]1[n:3][n:4][c:5]([O:6][H:11])[n:7]1[H:12])([H:8])([H:9])[H:10]"
C        1.96105373      -0.09900317       0.05509922
C        0.48520916      -0.24168018       0.02042343
N       -0.18786462      -1.27066397       0.42010285
N       -1.51436296      -0.98735253       0.19066790
C       -1.61759493       0.20185794      -0.42791207
O       -2.74784162       0.71390340      -0.09689829
N       -0.36765447       0.75420482      -0.39442475
H        2.35858618       0.12131462      -0.93768132
H        2.38842924      -1.03641786       0.40376460
H        2.26701052       0.70296054       0.72976340
H       -2.84514127      -0.58069859       0.61695400
H       -0.17982898       1.72157498      -0.57985897
