15
Frame=0 idx=008215 GeodesicLength=0.0 rxn_smarts="[C:1]1([H:8])([H:9])[O:2][C@@:3]2([H:10])[C:4]([H:11])=[C:5]([H:12])[C:6]([H:13])([H:14])[C@@:7]12[H:15]>>[C-:1](=[O+:2][C@@:3]1([H:10])[C:4]([H:11])=[C:5]([H:12])[C:6]([H:13])([H:14])[C:7]1([H:8])[H:15])[H:9]"
C       -1.80953898      -0.80488761      -0.91586635
O       -0.63897860      -1.56316534      -0.82011291
C       -0.10221991      -0.99327811       0.36875753
C        1.37539527      -0.75890573       0.28950411
C        1.63968068       0.50599297      -0.00567504
C        0.40175874       1.34339184      -0.21294627
C       -0.71478864       0.41926971       0.28821989
H       -1.48457893       0.41728711      -0.73738427
H       -2.45017624      -1.03212860      -0.03914129
H       -0.42710666      -1.56659000       1.24602666
H        2.10843854      -1.54078020       0.43496478
H        2.63405791       0.91990017      -0.12149549
H        0.42705139       2.28762917       0.33390935
H        0.28899841       1.59213489      -1.27379533
H       -1.24799296       0.77412978       1.16503458
15
Frame=1 idx=008215 GeodesicLength=0.0841734343167386 rxn_smarts="[C:1]1([H:8])([H:9])[O:2][C@@:3]2([H:10])[C:4]([H:11])=[C:5]([H:12])[C:6]([H:13])([H:14])[C@@:7]12[H:15]>>[C-:1](=[O+:2][C@@:3]1([H:10])[C:4]([H:11])=[C:5]([H:12])[C:6]([H:13])([H:14])[C:7]1([H:8])[H:15])[H:9]"
C       -1.78628878      -0.82419935      -0.92174772
O       -0.63939582      -1.60025301      -0.77835195
C       -0.09831027      -0.99031628       0.39069079
C        1.37774953      -0.75732604       0.28671496
C        1.63996318       0.50469681      -0.02129800
C        0.40197819       1.34800610      -0.19651284
C       -0.71671841       0.41658913       0.28568329
H       -1.47347893       0.41536704      -0.76189659
H       -2.49903265      -1.01503546      -0.09600582
H       -0.41058324      -1.54806200       1.28207270
H        2.11278262      -1.53931593       0.42241955
H        2.63288392       0.91029968      -0.17391205
H        0.43696364       2.27729137       0.37536520
H        0.28242953       1.62844598      -1.24860858
H       -1.26094252       0.77381196       1.15538707
15
Frame=2 idx=008215 GeodesicLength=0.168054815304397 rxn_smarts="[C:1]1([H:8])([H:9])[O:2][C@@:3]2([H:10])[C:4]([H:11])=[C:5]([H:12])[C:6]([H:13])([H:14])[C@@:7]12[H:15]>>[C-:1](=[O+:2][C@@:3]1([H:10])[C:4]([H:11])=[C:5]([H:12])[C:6]([H:13])([H:14])[C:7]1([H:8])[H:15])[H:9]"
C       -1.76247097      -0.84442940      -0.92551528
O       -0.64187212      -1.63764681      -0.73190614
C       -0.09399825      -0.98687837       0.41398634
C        1.38000077      -0.75598917       0.28251384
C        1.63953355       0.50307997      -0.03871944
C        0.40210230       1.35246520      -0.17953925
C       -0.71857146       0.41384596       0.28367832
H       -1.46098889       0.41237632      -0.78653290
H       -2.54678797      -0.99652310      -0.16156259
H       -0.39200543      -1.52733762       1.32039567
H        2.11687823      -1.53814673       0.40812777
H        2.62958663       0.90078674      -0.22707858
H        0.44773470       2.26543078       0.41778639
H        0.27495638       1.66542025      -1.22145868
H       -1.27409744       0.77354599       1.14582453
15
Frame=3 idx=008215 GeodesicLength=0.2514265542125958 rxn_smarts="[C:1]1([H:8])([H:9])[O:2][C@@:3]2([H:10])[C:4]([H:11])=[C:5]([H:12])[C:6]([H:13])([H:14])[C@@:7]12[H:15]>>[C-:1](=[O+:2][C@@:3]1([H:10])[C:4]([H:11])=[C:5]([H:12])[C:6]([H:13])([H:14])[C:7]1([H:8])[H:15])[H:9]"
C       -1.73843635      -0.86551824      -0.92666465
O       -0.64680786      -1.67479162      -0.68053812
C       -0.08930363      -0.98286663       0.43866006
C        1.38196698      -0.75499532       0.27660880
C        1.63822310       0.50116391      -0.05772469
C        0.40212406       1.35672191      -0.16212853
C       -0.72037737       0.41112787       0.28238911
H       -1.44726049       0.40830608      -0.81095544
H       -2.59226942      -0.97706862      -0.23662283
H       -0.37116127      -1.50427681       1.36088648
H        2.12045942      -1.53745584       0.39166144
H        2.62413526       0.89150353      -0.28043909
H        0.45938506       2.25210111       0.46070873
H        0.26662744       1.70260450      -1.19245355
H       -1.28730493       0.77344417       1.13661227
15
Frame=4 idx=008215 GeodesicLength=0.3340385516911639 rxn_smarts="[C:1]1([H:8])([H:9])[O:2][C@@:3]2([H:10])[C:4]([H:11])=[C:5]([H:12])[C:6]([H:13])([H:14])[C@@:7]12[H:15]>>[C-:1](=[O+:2][C@@:3]1([H:10])[C:4]([H:11])=[C:5]([H:12])[C:6]([H:13])([H:14])[C:7]1([H:8])[H:15])[H:9]"
C       -1.71469067      -0.88734445      -0.92462416
O       -0.65458674      -1.71098349      -0.62417111
C       -0.08426727      -0.97818396       0.46466667
C        1.38340535      -0.75446383       0.26871452
C        1.63588499       0.49898707      -0.07797611
C        0.40203652       1.36073294      -0.14444771
C       -0.72217185       0.40855059       0.28202237
H       -1.43256082       0.40318884      -0.83474644
H       -2.63401039      -0.95735293      -0.32179002
H       -0.34787046      -1.47882252       1.40329254
H        2.12316043      -1.53749020       0.37249380
H        2.61659056       0.88262518      -0.33319014
H        0.47188736       2.23746655       0.50351910
H        0.25753753       1.73943502      -1.16186044
H       -1.30034456       0.77365520       1.12809711
15
Frame=5 idx=008215 GeodesicLength=0.41560844655374873 rxn_smarts="[C:1]1([H:8])([H:9])[O:2][C@@:3]2([H:10])[C:4]([H:11])=[C:5]([H:12])[C:6]([H:13])([H:14])[C@@:7]12[H:15]>>[C-:1](=[O+:2][C@@:3]1([H:10])[C:4]([H:11])=[C:5]([H:12])[C:6]([H:13])([H:14])[C:7]1([H:8])[H:15])[H:9]"
C       -1.69189780      -0.90963759      -0.91881097
O       -0.66547760      -1.74532921      -0.56305686
C       -0.07897095      -0.97273538       0.49187474
C        1.38401470      -0.75450342       0.25866365
C        1.63243138       0.49660516      -0.09899870
C        0.40184423       1.36447122      -0.12670486
C       -0.72399257       0.40627713       0.28283204
H       -1.41733979       0.39718990      -0.85735294
H       -2.67024745      -0.93845817      -0.41739059
H       -0.32208433      -1.45107477       1.44715337
H        2.12450555      -1.53851770       0.35021139
H        2.60711486       0.87425546      -0.38456356
H        0.48518978       2.22183068       0.54549507
H        0.24782405       1.77525431      -1.13010361
H       -1.31291406       0.77437240       1.12075184
15
Frame=6 idx=008215 GeodesicLength=0.49580155676715876 rxn_smarts="[C:1]1([H:8])([H:9])[O:2][C@@:3]2([H:10])[C:4]([H:11])=[C:5]([H:12])[C:6]([H:13])([H:14])[C@@:7]12[H:15]>>[C-:1](=[O+:2][C@@:3]1([H:10])[C:4]([H:11])=[C:5]([H:12])[C:6]([H:13])([H:14])[C:7]1([H:8])[H:15])[H:9]"
C       -1.67103741      -0.93211280      -0.90855050
O       -0.67968963      -1.77692784      -0.49775307
C       -0.07349723      -0.96650811       0.51996987
C        1.38344933      -0.75526596       0.24617251
C        1.62781427       0.49405859      -0.12038131
C        0.40153389       1.36791799      -0.10926153
C       -0.72587283       0.40445247       0.28500422
H       -1.40217531       0.39045176      -0.87825709
H       -2.69905637      -0.92135629      -0.52306790
H       -0.29375869      -1.42137187       1.49175395
H        2.12398408      -1.54081369       0.32449038
H        2.59611152       0.86667750      -0.43309688
H        0.49915514       2.20559781       0.58575500
H        0.23764028       1.80942585      -1.09786493
H       -1.32460106       0.77577460       1.11508728
15
Frame=7 idx=008215 GeodesicLength=0.5742676034408953 rxn_smarts="[C:1]1([H:8])([H:9])[O:2][C@@:3]2([H:10])[C:4]([H:11])=[C:5]([H:12])[C:6]([H:13])([H:14])[C@@:7]12[H:15]>>[C-:1](=[O+:2][C@@:3]1([H:10])[C:4]([H:11])=[C:5]([H:12])[C:6]([H:13])([H:14])[C:7]1([H:8])[H:15])[H:9]"
C       -1.65305190      -0.95393692      -0.89349360
O       -0.69696534      -1.80461453      -0.42964923
C       -0.06807227      -0.95940806       0.54858518
C        1.38136507      -0.75673274       0.23159880
C        1.62213827       0.49138143      -0.14151844
C        0.40118488       1.37112051      -0.09232724
C       -0.72783257       0.40340246       0.28891714
H       -1.38810018       0.38371677      -0.89653651
H       -2.71829909      -0.90849045      -0.63835008
H       -0.26342817      -1.39029740       1.53612728
H        2.12101587      -1.54451629       0.29574510
H        2.58390000       0.85952887      -0.47879135
H        0.51387375       2.18936311       0.62357477
H        0.22717482       1.84127126      -1.06578189
H       -1.33490315       0.77821198       1.11190008
15
Frame=8 idx=008215 GeodesicLength=0.6506564864331015 rxn_smarts="[C:1]1([H:8])([H:9])[O:2][C@@:3]2([H:10])[C:4]([H:11])=[C:5]([H:12])[C:6]([H:13])([H:14])[C@@:7]12[H:15]>>[C-:1](=[O+:2][C@@:3]1([H:10])[C:4]([H:11])=[C:5]([H:12])[C:6]([H:13])([H:14])[C:7]1([H:8])[H:15])[H:9]"
C       -1.63953257      -0.97526050      -0.87270582
O       -0.71748927      -1.82820802      -0.35921460
C       -0.06268959      -0.95173367       0.57716932
C        1.37733426      -0.75915661       0.21411442
C        1.61527969       0.48857570      -0.16250395
C        0.40061626       1.37403481      -0.07643228
C       -0.72994366       0.40299847       0.29440901
H       -1.37525033       0.37649221      -0.91241844
H       -2.72594508      -0.89874509      -0.76163888
H       -0.23072806      -1.35853641       1.57947439
H        2.11528969      -1.54967530       0.26387894
H        2.57126438       0.85365080      -0.51908189
H        0.52887657       2.17333381       0.65822497
H        0.21640085       1.87067532      -1.03466001
H       -1.34348314       0.78155449       1.11138483
15
Frame=9 idx=008215 GeodesicLength=0.7246315540895535 rxn_smarts="[C:1]1([H:8])([H:9])[O:2][C@@:3]2([H:10])[C:4]([H:11])=[C:5]([H:12])[C:6]([H:13])([H:14])[C@@:7]12[H:15]>>[C-:1](=[O+:2][C@@:3]1([H:10])[C:4]([H:11])=[C:5]([H:12])[C:6]([H:13])([H:14])[C:7]1([H:8])[H:15])[H:9]"
C       -1.63108267      -0.99412348      -0.84661575
O       -0.74032193      -1.84642064      -0.28892929
C       -0.05788806      -0.94311640       0.60546069
C        1.37106038      -0.76221715       0.19520685
C        1.60740207       0.48546678      -0.18298968
C        0.40012932       1.37691979      -0.06134841
C       -0.73222102       0.40402882       0.30217625
H       -1.36556795       0.37081662      -0.92429777
H       -2.71924018      -0.89790593      -0.89278713
H       -0.19727704      -1.32681261       1.62078320
H        2.10611294      -1.55634051       0.23017962
H        2.55802515       0.84734420      -0.55672518
H        0.54510864       2.15818327       0.68975190
H        0.20553113       1.89748081      -1.00459076
H       -1.34977077       0.78669643       1.11472547
15
Frame=10 idx=008215 GeodesicLength=0.7954780937655821 rxn_smarts="[C:1]1([H:8])([H:9])[O:2][C@@:3]2([H:10])[C:4]([H:11])=[C:5]([H:12])[C:6]([H:13])([H:14])[C@@:7]12[H:15]>>[C-:1](=[O+:2][C@@:3]1([H:10])[C:4]([H:11])=[C:5]([H:12])[C:6]([H:13])([H:14])[C:7]1([H:8])[H:15])[H:9]"
C       -1.63023883      -1.01135875      -0.81352598
O       -0.76585499      -1.85998946      -0.21878836
C       -0.05356874      -0.93429951       0.63268879
C        1.36188692      -0.76625039       0.17304370
C        1.59815824       0.48217572      -0.20325300
C        0.39919285       1.37946206      -0.04775509
C       -0.73479300       0.40582072       0.31177912
H       -1.35806414       0.36497623      -0.93334552
H       -2.69502273      -0.90067962      -1.02938059
H       -0.16212066      -1.29609871       1.65937610
H        2.09365677      -1.56383900       0.19516783
H        2.54480976       0.84204750      -0.58874256
H        0.56129579       2.14368987       0.71735842
H        0.19418817       1.92153695      -0.97645321
H       -1.35352542       0.79280639       1.12183036
15
Frame=11 idx=008215 GeodesicLength=0.8629253083523506 rxn_smarts="[C:1]1([H:8])([H:9])[O:2][C@@:3]2([H:10])[C:4]([H:11])=[C:5]([H:12])[C:6]([H:13])([H:14])[C@@:7]12[H:15]>>[C-:1](=[O+:2][C@@:3]1([H:10])[C:4]([H:11])=[C:5]([H:12])[C:6]([H:13])([H:14])[C:7]1([H:8])[H:15])[H:9]"
C       -1.63813490      -1.02480575      -0.77384027
O       -0.79381472      -1.86828203      -0.15077664
C       -0.05049653      -0.92493282       0.65857427
C        1.34934327      -0.77116246       0.14845551
C        1.58757904       0.47841706      -0.22344673
C        0.39810084       1.38216506      -0.03525487
C       -0.73787776       0.40936988       0.32376005
H       -1.35477155       0.36118629      -0.93826634
H       -2.64843685      -0.91364498      -1.17076871
H       -0.12689351      -1.26689781       1.69450789
H        2.07719378      -1.57262543       0.15918136
H        2.53147198       0.83612743      -0.61758384
H        0.57861408       2.13042771       0.74164904
H        0.18258829       1.94356837      -0.94986373
H       -1.35446545       0.80108949       1.13367303
15
Frame=12 idx=008215 GeodesicLength=0.9264556203138042 rxn_smarts="[C:1]1([H:8])([H:9])[O:2][C@@:3]2([H:10])[C:4]([H:11])=[C:5]([H:12])[C:6]([H:13])([H:14])[C@@:7]12[H:15]>>[C-:1](=[O+:2][C@@:3]1([H:10])[C:4]([H:11])=[C:5]([H:12])[C:6]([H:13])([H:14])[C:7]1([H:8])[H:15])[H:9]"
C       -1.65629336      -1.03342839      -0.72819796
O       -0.82457291      -1.87134380      -0.08641526
C       -0.04933682      -0.91522761       0.68222984
C        1.33254292      -0.77706573       0.12078668
C        1.57529223       0.47407605      -0.24383649
C        0.39668162       1.38512460      -0.02396880
C       -0.74176556       0.41489317       0.33775083
H       -1.35612753       0.36004151      -0.93954079
H       -2.57320522      -0.93787887      -1.31139589
H       -0.09249365      -1.24004160       1.72515880
H        2.05613656      -1.58259267       0.12242474
H        2.51803224       0.82936885      -0.64287415
H        0.59693844       2.11828211       0.76272383
H        0.17077326       1.96408883      -0.92491829
H       -1.35260223       0.81170357       1.15007293
15
Frame=13 idx=008215 GeodesicLength=0.987825590838949 rxn_smarts="[C:1]1([H:8])([H:9])[O:2][C@@:3]2([H:10])[C:4]([H:11])=[C:5]([H:12])[C:6]([H:13])([H:14])[C@@:7]12[H:15]>>[C-:1](=[O+:2][C@@:3]1([H:10])[C:4]([H:11])=[C:5]([H:12])[C:6]([H:13])([H:14])[C:7]1([H:8])[H:15])[H:9]"
C       -1.68249054      -1.03743230      -0.68161556
O       -0.85835829      -1.86978162      -0.02678433
C       -0.05082561      -0.90553808       0.70270857
C        1.31095648      -0.78375435       0.09008580
C        1.56110709       0.46924148      -0.26402402
C        0.39469870       1.38820509      -0.01352187
C       -0.74695411       0.42188532       0.35220138
H       -1.36047560       0.36151902      -0.93975775
H       -2.46601165      -0.97041906      -1.43837283
H       -0.06038859      -1.21598674       1.75044760
H        2.03040077      -1.59308963       0.08570938
H        2.50353535       0.82130930      -0.66661073
H        0.61522850       2.10630408       0.78175602
H        0.15927180       1.98391830      -0.90088740
H       -1.34969431       0.82361921       1.16866575
15
Frame=14 idx=008215 GeodesicLength=1.051897021486642 rxn_smarts="[C:1]1([H:8])([H:9])[O:2][C@@:3]2([H:10])[C:4]([H:11])=[C:5]([H:12])[C:6]([H:13])([H:14])[C@@:7]12[H:15]>>[C-:1](=[O+:2][C@@:3]1([H:10])[C:4]([H:11])=[C:5]([H:12])[C:6]([H:13])([H:14])[C:7]1([H:8])[H:15])[H:9]"
C       -1.70918596      -1.03870181      -0.64331270
O       -0.89410201      -1.86499841       0.02793330
C       -0.05472854      -0.89590271       0.71943914
C        1.28574387      -0.79061515       0.05798172
C        1.54561329       0.46423629      -0.28373686
C        0.39254590       1.39157087      -0.00339830
C       -0.75353296       0.42967793       0.36420529
H       -1.36536257       0.36567328      -0.94314257
H       -2.33895408      -1.00912797      -1.53592815
H       -0.03161627      -1.19389250       1.77014016
H        2.00048398      -1.60419847       0.04816776
H        2.48900407       0.81257920      -0.68728659
H        0.63299890       2.09345498       0.80069801
H        0.14945072       2.00463241      -0.87662176
H       -1.34835834       0.83561206       1.18486155
15
Frame=15 idx=008215 GeodesicLength=1.1201122303668172 rxn_smarts="[C:1]1([H:8])([H:9])[O:2][C@@:3]2([H:10])[C:4]([H:11])=[C:5]([H:12])[C:6]([H:13])([H:14])[C@@:7]12[H:15]>>[C-:1](=[O+:2][C@@:3]1([H:10])[C:4]([H:11])=[C:5]([H:12])[C:6]([H:13])([H:14])[C:7]1([H:8])[H:15])[H:9]"
C       -1.73201130      -1.03947533      -0.61591093
O       -0.92961163      -1.85820190       0.07806739
C       -0.05989243      -0.88644748       0.73289039
C        1.25896480      -0.79695991       0.02628986
C        1.52988747       0.45954207      -0.30223429
C        0.39049050       1.39504420       0.00655754
C       -0.76106552       0.43744237       0.37261813
H       -1.36861207       0.37117093      -0.95171036
H       -2.20750714      -1.04956359      -1.60201612
H       -0.00584012      -1.17324708       1.78512883
H        1.96815355      -1.61546147       0.00988272
H        2.47534311       0.80397761      -0.70427986
H        0.64943473       2.07939314       0.82014012
H        0.14196706       2.02616282      -0.85202129
H       -1.34970103       0.84662362       1.19659786
15
Frame=16 idx=008215 GeodesicLength=1.1905253877428752 rxn_smarts="[C:1]1([H:8])([H:9])[O:2][C@@:3]2([H:10])[C:4]([H:11])=[C:5]([H:12])[C:6]([H:13])([H:14])[C@@:7]12[H:15]>>[C-:1](=[O+:2][C@@:3]1([H:10])[C:4]([H:11])=[C:5]([H:12])[C:6]([H:13])([H:14])[C:7]1([H:8])[H:15])[H:9]"
C       -1.75068076      -1.04091732      -0.59738117
O       -0.96250445      -1.85041772       0.12217953
C       -0.06533732      -0.87760939       0.74345095
C        1.23264392      -0.80225888      -0.00331400
C        1.51527258       0.45569773      -0.31808437
C        0.38875852       1.39841164       0.01621297
C       -0.76882119       0.44455058       0.37767915
H       -1.36911231       0.37667165      -0.96535218
H       -2.08349376      -1.08763012      -1.64163856
H        0.01682979      -1.15485249       1.79599267
H        1.93611823      -1.62570958      -0.02626947
H        2.46264108       0.79593206      -0.71916836
H        0.66378130       2.06483530       0.83950685
H        0.13700364       2.04730676      -0.82792156
H       -1.35309926       0.85598977       1.20410756
