10
Frame=0 idx=000363 GeodesicLength=0.0 rxn_smarts="[N:1]([c:2]1[n:3][c:4]([H:9])[n:5][n:6]1[H:10])([H:7])[H:8]>>[N:1](=[c:2]1\[n:3][c:4]([H:9])[n:5]([H:7])[n:6]1[H:10])\[H:8]"
N       -1.54997363      -0.12722098      -0.05997818
C       -0.44131060      -0.00353238      -0.75849228
N        0.50027559      -1.01767200      -0.81347530
C        1.25608928      -0.55156448       0.14329984
N        0.88606129       0.67743627       0.66387414
N        0.17682484       1.19702956      -0.48944166
H       -0.55332392       0.13070676       0.95411959
H       -1.85892112      -1.09564471      -0.03178906
H        2.06917487      -1.11216623       0.58510684
H       -0.48489662       1.90262820      -0.19322393
10
Frame=1 idx=000363 GeodesicLength=0.19133400823550692 rxn_smarts="[N:1]([c:2]1[n:3][c:4]([H:9])[n:5][n:6]1[H:10])([H:7])[H:8]>>[N:1](=[c:2]1\[n:3][c:4]([H:9])[n:5]([H:7])[n:6]1[H:10])\[H:8]"
N       -1.57099491      -0.15299012      -0.08074085
C       -0.44205627      -0.01596853      -0.74079749
N        0.49793259      -1.02868835      -0.80239200
C        1.26538331      -0.56113650       0.14661122
N        0.92650447       0.68255877       0.64392646
N        0.16950132       1.18717224      -0.47407686
H       -0.62430799       0.20756226       0.97077130
H       -1.86621668      -1.12521974      -0.05314574
H        2.10155910      -1.11275448       0.55810103
H       -0.45730494       1.91946445      -0.16825708
10
Frame=2 idx=000363 GeodesicLength=0.3835811367636127 rxn_smarts="[N:1]([c:2]1[n:3][c:4]([H:9])[n:5][n:6]1[H:10])([H:7])[H:8]>>[N:1](=[c:2]1\[n:3][c:4]([H:9])[n:5]([H:7])[n:6]1[H:10])\[H:8]"
N       -1.59148143      -0.18014057      -0.09985970
C       -0.44342783      -0.02888511      -0.72047939
N        0.49584054      -1.04084600      -0.79194565
C        1.27807624      -0.57045453       0.14863157
N        0.96841783       0.68697623       0.62396330
N        0.16143120       1.17769247      -0.45537769
H       -0.70370364       0.28911980       0.98135564
H       -1.87284903      -1.15659091      -0.07338056
H        2.13595479      -1.11566531       0.53024207
H       -0.42825866       1.93879394      -0.14314959
10
Frame=3 idx=000363 GeodesicLength=0.5733006304572965 rxn_smarts="[N:1]([c:2]1[n:3][c:4]([H:9])[n:5][n:6]1[H:10])([H:7])[H:8]>>[N:1](=[c:2]1\[n:3][c:4]([H:9])[n:5]([H:7])[n:6]1[H:10])\[H:8]"
N       -1.61090675      -0.20925135      -0.11659029
C       -0.44410664      -0.04170268      -0.69649040
N        0.49486877      -1.05250092      -0.78352562
C        1.29401711      -0.57794832       0.14716998
N        1.01221660       0.69146112       0.60224398
N        0.15271449       1.16839076      -0.43277667
H       -0.79187956       0.37524509       0.98478334
H       -1.87762460      -1.19110936      -0.09103035
H        2.16710371      -1.12156229       0.50322055
H       -0.39640312       1.95897795      -0.11700452
10
Frame=4 idx=000363 GeodesicLength=0.7609283151255642 rxn_smarts="[N:1]([c:2]1[n:3][c:4]([H:9])[n:5][n:6]1[H:10])([H:7])[H:8]>>[N:1](=[c:2]1\[n:3][c:4]([H:9])[n:5]([H:7])[n:6]1[H:10])\[H:8]"
N       -1.63065955      -0.24017630      -0.13254664
C       -0.44311308      -0.05485943      -0.66619767
N        0.49598438      -1.06230230      -0.77487835
C        1.31290811      -0.58360688       0.14158606
N        1.05869135       0.69558034       0.57668682
N        0.14450368       1.15751935      -0.40430148
H       -0.89199281       0.46767362       0.97905157
H       -1.88174583      -1.22871413      -0.10583829
H        2.19507335      -1.12794116       0.47458054
H       -0.35964960       1.97682690      -0.08814256
10
Frame=5 idx=000363 GeodesicLength=0.9501954497672268 rxn_smarts="[N:1]([c:2]1[n:3][c:4]([H:9])[n:5][n:6]1[H:10])([H:7])[H:8]>>[N:1](=[c:2]1\[n:3][c:4]([H:9])[n:5]([H:7])[n:6]1[H:10])\[H:8]"
N       -1.65221021      -0.27264814      -0.14887001
C       -0.44196907      -0.06898608      -0.62858793
N        0.49864328      -1.07335767      -0.76658584
C        1.33559294      -0.59113173       0.13330818
N        1.11018452       0.69943579       0.54766668
N        0.13595160       1.14619269      -0.36732640
H       -1.00923782       0.56928009       0.95873123
H       -1.88658235      -1.26919148      -0.11664108
H        2.22787064      -1.13449658       0.44265457
H       -0.31824353       1.99490310      -0.05434939
10
Frame=6 idx=000363 GeodesicLength=1.1403585098908156 rxn_smarts="[N:1]([c:2]1[n:3][c:4]([H:9])[n:5][n:6]1[H:10])([H:7])[H:8]>>[N:1](=[c:2]1\[n:3][c:4]([H:9])[n:5]([H:7])[n:6]1[H:10])\[H:8]"
N       -1.67493374      -0.30632245      -0.16509983
C       -0.44139166      -0.08459032      -0.58092004
N        0.50313955      -1.08606587      -0.76026853
C        1.36400472      -0.60169126       0.12062622
N        1.16899423       0.70345971       0.51218949
N        0.12505802       1.13505268      -0.31792211
H       -1.14908572       0.68161926       0.91312558
H       -1.89122650      -1.31063624      -0.11966101
H        2.26914574      -1.14454328       0.40885182
H       -0.27370465       2.01371779      -0.01092159
10
Frame=7 idx=000363 GeodesicLength=1.32891378497926 rxn_smarts="[N:1]([c:2]1[n:3][c:4]([H:9])[n:5][n:6]1[H:10])([H:7])[H:8]>>[N:1](=[c:2]1\[n:3][c:4]([H:9])[n:5]([H:7])[n:6]1[H:10])\[H:8]"
N       -1.69861419      -0.34052658      -0.18255994
C       -0.44006558      -0.10371815      -0.51529697
N        0.50980997      -1.09878482      -0.75161920
C        1.40087895      -0.61404721       0.10308340
N        1.23810541       0.70754317       0.46555668
N        0.11158565       1.12173208      -0.24672766
H       -1.31892799       0.80980667       0.82134194
H       -1.89559815      -1.35092292      -0.11008412
H        2.31997908      -1.15948423       0.36578591
H       -0.22715316       2.02840200       0.05051995
10
Frame=8 idx=000363 GeodesicLength=1.5031978324601238 rxn_smarts="[N:1]([c:2]1[n:3][c:4]([H:9])[n:5][n:6]1[H:10])([H:7])[H:8]>>[N:1](=[c:2]1\[n:3][c:4]([H:9])[n:5]([H:7])[n:6]1[H:10])\[H:8]"
N       -1.72152824      -0.37434738      -0.19647907
C       -0.43629430      -0.13060948      -0.41757646
N        0.51602824      -1.10511716      -0.72807372
C        1.45019174      -0.62155104       0.07579941
N        1.32184914       0.70960902       0.39521029
N        0.09794028       1.09545944      -0.13360812
H       -1.51743178       0.96401464       0.62922456
H       -1.90196560      -1.38557358      -0.08132781
H        2.37459242      -1.17307944       0.30109816
H       -0.18338189       2.02119497       0.15573277
10
Frame=9 idx=000363 GeodesicLength=1.6619992869140625 rxn_smarts="[N:1]([c:2]1[n:3][c:4]([H:9])[n:5][n:6]1[H:10])([H:7])[H:8]>>[N:1](=[c:2]1\[n:3][c:4]([H:9])[n:5]([H:7])[n:6]1[H:10])\[H:8]"
N       -1.74252974      -0.40178324      -0.18746012
C       -0.43316819      -0.17179691      -0.27233754
N        0.50778528      -1.11282792      -0.66796752
C        1.50374276      -0.61588776       0.03652929
N        1.40661392       0.72006713       0.28315125
N        0.09100756       1.04818798       0.03513308
H       -1.69197469       1.12806323       0.28351473
H       -1.92746943      -1.40795384      -0.04932368
H        2.43359402      -1.16233560       0.20360747
H       -0.14760149       1.97626693       0.33515304
10
Frame=10 idx=000363 GeodesicLength=1.7624969983362515 rxn_smarts="[N:1]([c:2]1[n:3][c:4]([H:9])[n:5][n:6]1[H:10])([H:7])[H:8]>>[N:1](=[c:2]1\[n:3][c:4]([H:9])[n:5]([H:7])[n:6]1[H:10])\[H:8]"
N       -1.75962726      -0.40629886      -0.18155641
C       -0.44209917      -0.22731450      -0.10389205
N        0.48061765      -1.14469979      -0.56480512
C        1.53867217      -0.59118027      -0.00936185
N        1.43321025       0.75197228       0.13050883
N        0.08257656       0.99414071       0.20524284
H       -1.70324614       1.21900124      -0.06652735
H       -1.98056540      -1.40113081      -0.05373075
H        2.48617092      -1.11398743       0.11074661
H       -0.13570960       1.91949743       0.53337524
10
Frame=11 idx=000363 GeodesicLength=1.8925199561997934 rxn_smarts="[N:1]([c:2]1[n:3][c:4]([H:9])[n:5][n:6]1[H:10])([H:7])[H:8]>>[N:1](=[c:2]1\[n:3][c:4]([H:9])[n:5]([H:7])[n:6]1[H:10])\[H:8]"
N       -1.76287904      -0.39025672      -0.17132714
C       -0.45517306      -0.28759706       0.06377581
N        0.45190835      -1.19278185      -0.42460306
C        1.54859835      -0.55344217      -0.07278658
N        1.38344805       0.78761207      -0.02841660
N        0.07971441       0.93338382       0.37778065
H       -1.57474143       1.25177892      -0.40257088
H       -2.04611750      -1.36803973      -0.07654135
H        2.52352065      -1.03099875       0.00929283
H       -0.14827880       1.85034146       0.72539633
10
Frame=12 idx=000363 GeodesicLength=2.056254718975559 rxn_smarts="[N:1]([c:2]1[n:3][c:4]([H:9])[n:5][n:6]1[H:10])([H:7])[H:8]>>[N:1](=[c:2]1\[n:3][c:4]([H:9])[n:5]([H:7])[n:6]1[H:10])\[H:8]"
N       -1.75273919      -0.36307867      -0.17212457
C       -0.47736526      -0.33522892       0.20481468
N        0.43421549      -1.23610082      -0.27289560
C        1.53154464      -0.51763034      -0.13445667
N        1.28537334       0.81358361      -0.14959315
N        0.08023930       0.88261841       0.51499089
H       -1.37046301       1.22916164      -0.64313217
H       -2.09192147      -1.32197496      -0.11044642
H        2.53678518      -0.94428677      -0.09830178
H       -0.17566903       1.79293683       0.86114479
10
Frame=13 idx=000363 GeodesicLength=2.2481024221472654 rxn_smarts="[N:1]([c:2]1[n:3][c:4]([H:9])[n:5][n:6]1[H:10])([H:7])[H:8]>>[N:1](=[c:2]1\[n:3][c:4]([H:9])[n:5]([H:7])[n:6]1[H:10])\[H:8]"
N       -1.73583291      -0.33584945      -0.17882208
C       -0.50092479      -0.36636559       0.31283297
N        0.43131497      -1.26389776      -0.12823768
C        1.49963575      -0.49007118      -0.18588974
N        1.18159114       0.82636567      -0.23534257
N        0.08415091       0.84825101       0.60400228
H       -1.16768170       1.18505093      -0.80281432
H       -2.11790143      -1.28106067      -0.14773340
H        2.52502290      -0.86599994      -0.19785828
H       -0.19937484       1.74357698       0.95986282
10
Frame=14 idx=000363 GeodesicLength=2.4502231124202267 rxn_smarts="[N:1]([c:2]1[n:3][c:4]([H:9])[n:5][n:6]1[H:10])([H:7])[H:8]>>[N:1](=[c:2]1\[n:3][c:4]([H:9])[n:5]([H:7])[n:6]1[H:10])\[H:8]"
N       -1.71765430      -0.31328978      -0.18319645
C       -0.52296325      -0.38459285       0.39836028
N        0.43669852      -1.27321543      -0.00495258
C        1.46530811      -0.46948253      -0.22180209
N        1.09494731       0.83263532      -0.28679630
N        0.08820288       0.82803606       0.66541596
H       -0.99827356       1.12537259      -0.92825082
H       -2.12733341      -1.24388491      -0.18535070
H        2.49765070      -0.80689082      -0.29512171
H       -0.21658301       1.70531236       1.04169441
10
Frame=15 idx=000363 GeodesicLength=2.6595036281211373 rxn_smarts="[N:1]([c:2]1[n:3][c:4]([H:9])[n:5][n:6]1[H:10])([H:7])[H:8]>>[N:1](=[c:2]1\[n:3][c:4]([H:9])[n:5]([H:7])[n:6]1[H:10])\[H:8]"
N       -1.69865751      -0.29443730      -0.19308089
C       -0.54449029      -0.39506424       0.46773015
N        0.44664594      -1.26873869       0.10137630
C        1.43305706      -0.45077707      -0.24108941
N        1.02401803       0.83837639      -0.31534455
N        0.08891937       0.81651187       0.71271865
H       -0.84817072       1.05574706      -1.04056703
H       -2.12736488      -1.21103336      -0.21425920
H        2.45734566      -0.76350707      -0.39736576
H       -0.23130266       1.67292241       1.11988172
10
Frame=16 idx=000363 GeodesicLength=2.8711443922263227 rxn_smarts="[N:1]([c:2]1[n:3][c:4]([H:9])[n:5][n:6]1[H:10])([H:7])[H:8]>>[N:1](=[c:2]1\[n:3][c:4]([H:9])[n:5]([H:7])[n:6]1[H:10])\[H:8]"
N       -1.67949946      -0.27710212      -0.20540275
C       -0.56543342      -0.40031936       0.52630704
N        0.45903317      -1.25414493       0.19624920
C        1.40395837      -0.43166568      -0.24943988
N        0.96262025       0.84624971      -0.33250730
N        0.08666735       0.81137525       0.75129539
H       -0.71028051       0.98097549      -1.14297991
H       -2.12198181      -1.18455633      -0.23950691
H        2.40906177      -0.73409205      -0.50125123
H       -0.24414570       1.64328003       1.19723634
