16
Frame=0 idx=009630 GeodesicLength=0.0 rxn_smarts="[C:1]([C@@:2]1([H:11])[N:3]([H:12])[C@:4]1([C@@:5]1([H:14])[C:6]([H:15])([H:16])[O:7]1)[H:13])([H:8])([H:9])[H:10]>>[C:1]([C-:2]1[N+:3]([H:11])([H:12])[C@:4]1([C@@:5]1([H:14])[C:6]([H:15])([H:16])[O:7]1)[H:13])([H:8])([H:9])[H:10]"
C       -1.99225774      -0.39366874      -0.13530066
C       -1.32755684       0.83510100       0.41944160
N        0.01480137       0.42107153       1.52545112
C        0.12648745       0.98301814       0.17987345
C        0.87287565       0.12939476      -0.80603938
C        2.18873257      -0.42280472      -0.49840704
O        1.03095936      -1.24994261      -0.51523753
H       -2.48391204      -0.06578499      -1.05764270
H       -2.78743232      -0.74367335       0.52377365
H       -1.33881992      -1.23408469      -0.39050070
H       -1.03874809       0.86263285       1.75910312
H        0.05317185      -0.59430531       1.47339635
H        0.52602257       1.99730988       0.18255681
H        0.64139533       0.33824180      -1.84860851
H        2.89852207      -0.61296878      -1.29695339
H        2.61575875      -0.24953675       0.48509384
16
Frame=1 idx=009630 GeodesicLength=0.05596512621532721 rxn_smarts="[C:1]([C@@:2]1([H:11])[N:3]([H:12])[C@:4]1([C@@:5]1([H:14])[C:6]([H:15])([H:16])[O:7]1)[H:13])([H:8])([H:9])[H:10]>>[C:1]([C-:2]1[N+:3]([H:11])([H:12])[C@:4]1([C@@:5]1([H:14])[C:6]([H:15])([H:16])[O:7]1)[H:13])([H:8])([H:9])[H:10]"
C       -1.99389432      -0.39470579      -0.13471238
C       -1.32306915       0.82849493       0.42462249
N        0.00335713       0.41615045       1.51941249
C        0.12847549       0.98222322       0.17725117
C        0.87578910       0.12895628      -0.80808554
C        2.19170143      -0.42266717      -0.49947117
O        1.03434884      -1.25027840      -0.51669923
H       -2.48754612      -0.06351806      -1.05461276
H       -2.78723525      -0.74676022       0.52560548
H       -1.34172177      -1.23501423      -0.39386858
H       -1.04640026       0.88342292       1.77008949
H        0.05380088      -0.59856086       1.47006988
H        0.52728530       1.99661845       0.18441935
H        0.64483156       0.33728529      -1.85086979
H        2.90219696      -0.61274294      -1.29742372
H        2.61808017      -0.24890389       0.48427283
16
Frame=2 idx=009630 GeodesicLength=0.111909269194201 rxn_smarts="[C:1]([C@@:2]1([H:11])[N:3]([H:12])[C@:4]1([C@@:5]1([H:14])[C:6]([H:15])([H:16])[O:7]1)[H:13])([H:8])([H:9])[H:10]>>[C:1]([C-:2]1[N+:3]([H:11])([H:12])[C@:4]1([C@@:5]1([H:14])[C:6]([H:15])([H:16])[O:7]1)[H:13])([H:8])([H:9])[H:10]"
C       -1.99557186      -0.39568127      -0.13416311
C       -1.31868327       0.82191157       0.42983755
N       -0.00804011       0.41123717       1.51347082
C        0.13038878       0.98134074       0.17473101
C        0.87865633       0.12849794      -0.81006387
C        2.19465039      -0.42250972      -0.50052085
O        1.03773542      -1.25061910      -0.51805388
H       -2.49114374      -0.06117098      -1.05163203
H       -2.78711728      -0.74981236       0.52732501
H       -1.34468689      -1.23590339      -0.39719602
H       -1.05377164       0.90396336       1.78054915
H        0.05469866      -0.60266852       1.46687442
H        0.52846588       1.99582694       0.18637905
H        0.64816689       0.33628537      -1.85305388
H        2.90581145      -0.61250472      -1.29791203
H        2.62044100      -0.24819303       0.48342865
16
Frame=3 idx=009630 GeodesicLength=0.1678233600312834 rxn_smarts="[C:1]([C@@:2]1([H:11])[N:3]([H:12])[C@:4]1([C@@:5]1([H:14])[C:6]([H:15])([H:16])[O:7]1)[H:13])([H:8])([H:9])[H:10]>>[C:1]([C-:2]1[N+:3]([H:11])([H:12])[C@:4]1([C@@:5]1([H:14])[C:6]([H:15])([H:16])[O:7]1)[H:13])([H:8])([H:9])[H:10]"
C       -1.99728291      -0.39659409      -0.13365032
C       -1.31439429       0.81536135       0.43507221
N       -0.01936147       0.40633598       1.50762644
C        0.13223314       0.98037881       0.17231597
C        0.88148044       0.12802599      -0.81197346
C        2.19758028      -0.42233212      -0.50156123
O        1.04111561      -1.25095976      -0.51930090
H       -2.49469160      -0.05875793      -1.04870740
H       -2.78707652      -0.75282011       0.52893458
H       -1.34770822      -1.23675693      -0.40046616
H       -1.06089934       0.92422372       1.79049619
H        0.05583036      -0.60661912       1.46381116
H        0.52957206       1.99494357       0.18843621
H        0.65139524       0.33523964      -1.85515932
H        2.90936044      -0.61225142      -1.29842984
H        2.62284676      -0.24741757       0.48255588
16
Frame=4 idx=009630 GeodesicLength=0.22371782468126938 rxn_smarts="[C:1]([C@@:2]1([H:11])[N:3]([H:12])[C@:4]1([C@@:5]1([H:14])[C:6]([H:15])([H:16])[O:7]1)[H:13])([H:8])([H:9])[H:10]>>[C:1]([C-:2]1[N+:3]([H:11])([H:12])[C@:4]1([C@@:5]1([H:14])[C:6]([H:15])([H:16])[O:7]1)[H:13])([H:8])([H:9])[H:10]"
C       -1.99902580      -0.39744438      -0.13317256
C       -1.31019963       0.80885285       0.44031252
N       -0.03058584       0.40144567       1.50188032
C        0.13401144       0.97934314       0.17000507
C        0.88426536       0.12754119      -0.81381740
C        2.20049545      -0.42213716      -0.50259526
O        1.04449336      -1.25130342      -0.52044243
H       -2.49820599      -0.05628221      -1.04583212
H       -2.78710110      -0.75578857       0.53044737
H       -1.35078178      -1.23757296      -0.40368857
H       -1.06781738       0.94419786       1.79995815
H        0.05716240      -0.61041328       1.46088031
H        0.53060907       1.99397599       0.19058575
H        0.65452737       0.33415209      -1.85719343
H        2.91284923      -0.61199120      -1.29898064
H        2.62530382      -0.24657562       0.48165292
16
Frame=5 idx=009630 GeodesicLength=0.27960727878740343 rxn_smarts="[C:1]([C@@:2]1([H:11])[N:3]([H:12])[C@:4]1([C@@:5]1([H:14])[C:6]([H:15])([H:16])[O:7]1)[H:13])([H:8])([H:9])[H:10]>>[C:1]([C-:2]1[N+:3]([H:11])([H:12])[C@:4]1([C@@:5]1([H:14])[C:6]([H:15])([H:16])[O:7]1)[H:13])([H:8])([H:9])[H:10]"
C       -2.00079867      -0.39823004      -0.13272503
C       -1.30609534       0.80238696       0.44554584
N       -0.04169273       0.39655984       1.49622245
C        0.13572746       0.97823101       0.16779481
C        0.88701279       0.12704223      -0.81559462
C        2.20339906      -0.42192255      -0.50362530
O        1.04787237      -1.25164549      -0.52147647
H       -2.50169287      -0.05374888      -1.04299678
H       -2.78718647      -0.75871036       0.53186999
H       -1.35390629      -1.23834627      -0.40686301
H       -1.07455811       0.96387998       1.80895617
H        0.05866452      -0.61405239       1.45807365
H        0.53158420       1.99291580       0.19282192
H        0.65756995       0.33302502      -1.85915183
H        2.91628010      -0.61172524      -1.29956298
H        2.62782003      -0.24565962       0.48071121
16
Frame=6 idx=009630 GeodesicLength=0.3354890802977625 rxn_smarts="[C:1]([C@@:2]1([H:11])[N:3]([H:12])[C@:4]1([C@@:5]1([H:14])[C:6]([H:15])([H:16])[O:7]1)[H:13])([H:8])([H:9])[H:10]>>[C:1]([C-:2]1[N+:3]([H:11])([H:12])[C@:4]1([C@@:5]1([H:14])[C:6]([H:15])([H:16])[O:7]1)[H:13])([H:8])([H:9])[H:10]"
C       -2.00259792      -0.39895293      -0.13230433
C       -1.30207727       0.79597190       0.45076466
N       -0.05266639       0.39167957       1.49065583
C        0.13738596       0.97705120       0.16568526
C        0.88972656       0.12653192      -0.81730914
C        2.20629379      -0.42169074      -0.50465632
O        1.05125319      -1.25198854      -0.52240750
H       -2.50514980      -0.05116683      -1.04020392
H       -2.78732961      -0.76158461       0.53321149
H       -1.35707779      -1.23908231      -0.40998604
H       -1.08115696       0.98326614       1.81751459
H        0.06030850      -0.61753993       1.45539157
H        0.53250423       1.99177526       0.19514251
H        0.66052931       0.33186275      -1.86104213
H        2.91965568      -0.61145793      -1.30018538
H        2.63039852      -0.24467491       0.47972885
16
Frame=7 idx=009630 GeodesicLength=0.39134141683098356 rxn_smarts="[C:1]([C@@:2]1([H:11])[N:3]([H:12])[C@:4]1([C@@:5]1([H:14])[C:6]([H:15])([H:16])[O:7]1)[H:13])([H:8])([H:9])[H:10]>>[C:1]([C-:2]1[N+:3]([H:11])([H:12])[C@:4]1([C@@:5]1([H:14])[C:6]([H:15])([H:16])[O:7]1)[H:13])([H:8])([H:9])[H:10]"
C       -2.00442009      -0.39961344      -0.13190610
C       -1.29814050       0.78960989       0.45596170
N       -0.06349137       0.38680302       1.48517586
C        0.13899149       0.97580712       0.16367610
C        0.89240844       0.12601256      -0.81896051
C        2.20918093      -0.42144212      -0.50569015
O        1.05463570      -1.25232823      -0.52323779
H       -2.50857772      -0.04854355      -1.03744918
H       -2.78752492      -0.76440853       0.53447913
H       -1.36029278      -1.23977966      -0.41305382
H       -1.08764187       1.00235296       1.82564108
H        0.06207173      -0.62087757       1.45282604
H        0.53337512       1.99055586       0.19754629
H        0.66340756       0.33066846      -1.86286193
H        2.92297598      -0.61119057      -1.30084861
H        2.63304232      -0.24362619       0.47870188
16
Frame=8 idx=009630 GeodesicLength=0.44721417113894596 rxn_smarts="[C:1]([C@@:2]1([H:11])[N:3]([H:12])[C@:4]1([C@@:5]1([H:14])[C:6]([H:15])([H:16])[O:7]1)[H:13])([H:8])([H:9])[H:10]>>[C:1]([C-:2]1[N+:3]([H:11])([H:12])[C@:4]1([C@@:5]1([H:14])[C:6]([H:15])([H:16])[O:7]1)[H:13])([H:8])([H:9])[H:10]"
C       -2.00626504      -0.40020798      -0.13152823
C       -1.29428053       0.78330187       0.46112813
N       -0.07415761       0.38192213       1.47977539
C        0.14054920       0.97449471       0.16176018
C        0.89506269       0.12547776      -0.82055142
C        2.21206691      -0.42117578      -0.50672871
O        1.05802935      -1.25266885      -0.52396515
H       -2.51198608      -0.04587243      -1.03472260
H       -2.78776581      -0.76718234       0.53567862
H       -1.36355075      -1.24043159      -0.41607738
H       -1.09405010       1.02115746       1.83337722
H        0.06392926      -0.62407821       1.45037200
H        0.53420506       1.98925096       0.20002615
H        0.66620674       0.32942853      -1.86461454
H        2.92624776      -0.61091423      -1.30155604
H        2.63575894      -0.24250199       0.47762638
16
Frame=9 idx=009630 GeodesicLength=0.5030598190017298 rxn_smarts="[C:1]([C@@:2]1([H:11])[N:3]([H:12])[C@:4]1([C@@:5]1([H:14])[C:6]([H:15])([H:16])[O:7]1)[H:13])([H:8])([H:9])[H:10]>>[C:1]([C-:2]1[N+:3]([H:11])([H:12])[C@:4]1([C@@:5]1([H:14])[C:6]([H:15])([H:16])[O:7]1)[H:13])([H:8])([H:9])[H:10]"
C       -2.00812713      -0.40074390      -0.13116414
C       -1.29049262       0.77705080       0.46626199
N       -0.08465599       0.37703693       1.47445742
C        0.14206346       0.97312514       0.15994199
C        0.89769089       0.12493744      -0.82208488
C        2.21494905      -0.42089584      -0.50777610
O        1.06142596      -1.25300595      -0.52460337
H       -2.51536386      -0.04317367      -1.03202933
H       -2.78805059      -0.76990438       0.53682050
H       -1.36684530      -1.24104898      -0.41904107
H       -1.10040519       1.03968629       1.84071676
H        0.06586367      -0.62714339       1.44802530
H        0.53499963       1.98787374       0.20258799
H        0.66893554       0.32816589      -1.86630361
H        2.92946884      -0.61063891      -1.30231180
H        2.63854363      -0.24132121       0.47650236
16
Frame=10 idx=009630 GeodesicLength=0.5589175969877237 rxn_smarts="[C:1]([C@@:2]1([H:11])[N:3]([H:12])[C@:4]1([C@@:5]1([H:14])[C:6]([H:15])([H:16])[O:7]1)[H:13])([H:8])([H:9])[H:10]>>[C:1]([C-:2]1[N+:3]([H:11])([H:12])[C@:4]1([C@@:5]1([H:14])[C:6]([H:15])([H:16])[O:7]1)[H:13])([H:8])([H:9])[H:10]"
C       -2.01000583      -0.40122025      -0.13081127
C       -1.28677274       0.77085703       0.47135282
N       -0.09498107       0.37214341       1.46921243
C        0.14353859       0.97169672       0.15821291
C        0.90029825       0.12438884      -0.82356317
C        2.21783267      -0.42060199      -0.50883252
O        1.06483160      -1.25334042      -0.52515475
H       -2.51873391      -0.04044376      -1.02935143
H       -2.78836491      -0.77258215       0.53791652
H       -1.37017552      -1.24162428      -0.42196243
H       -1.10674190       1.05796163       1.84769196
H        0.06785971      -0.63008466       1.44577785
H        0.53576447       1.98642014       0.20522523
H        0.67160353       0.32687749      -1.86793116
H        2.93264693      -0.61036208      -1.30311302
H        2.64140014      -0.24008566       0.47533004
16
Frame=11 idx=009630 GeodesicLength=0.6147738399493734 rxn_smarts="[C:1]([C@@:2]1([H:11])[N:3]([H:12])[C@:4]1([C@@:5]1([H:14])[C:6]([H:15])([H:16])[O:7]1)[H:13])([H:8])([H:9])[H:10]>>[C:1]([C-:2]1[N+:3]([H:11])([H:12])[C@:4]1([C@@:5]1([H:14])[C:6]([H:15])([H:16])[O:7]1)[H:13])([H:8])([H:9])[H:10]"
C       -2.01189952      -0.40164019      -0.13046581
C       -1.28311667       0.76472156       0.47639826
N       -0.10512752       0.36723796       1.46403943
C        0.14497894       0.97021361       0.15657220
C        0.90288736       0.12383348      -0.82498890
C        2.22071928      -0.42029730      -0.50989926
O        1.06824629      -1.25367341      -0.52562624
H       -2.52210224      -0.03768821      -1.02668399
H       -2.78870228      -0.77521993       0.53897666
H       -1.37353916      -1.24215916      -0.42484367
H       -1.11308425       1.07600222       1.85430974
H        0.06990336      -0.63291067       1.44362451
H        0.53650585       1.98489479       0.20793934
H        0.67421819       0.32557095      -1.86950088
H        2.93578435      -0.61008375      -1.30396186
H        2.64432800      -0.23880196       0.47411047
16
Frame=12 idx=009630 GeodesicLength=0.670629351694077 rxn_smarts="[C:1]([C@@:2]1([H:11])[N:3]([H:12])[C@:4]1([C@@:5]1([H:14])[C:6]([H:15])([H:16])[O:7]1)[H:13])([H:8])([H:9])[H:10]>>[C:1]([C-:2]1[N+:3]([H:11])([H:12])[C@:4]1([C@@:5]1([H:14])[C:6]([H:15])([H:16])[O:7]1)[H:13])([H:8])([H:9])[H:10]"
C       -2.01380685      -0.40200660      -0.13012162
C       -1.27951999       0.75864008       0.48139908
N       -0.11509337       0.36231482       1.45893537
C        0.14639001       0.96867562       0.15501902
C        0.90546217       0.12327203      -0.82636403
C        2.22361112      -0.41998351      -0.51097900
O        1.07167043      -1.25400425      -0.52602617
H       -2.52547254      -0.03490934      -1.02401616
H       -2.78905756      -0.77782258       0.54001184
H       -1.37693442      -1.24265349      -0.42768678
H       -1.11946050       1.09383393       1.86056927
H        0.07197796      -0.63562967       1.44155920
H        0.53723223       1.98329619       0.21073329
H        0.67678982       0.32425313      -1.87101389
H        2.93888579      -0.60980112      -1.30486156
H        2.64732570      -0.23747527       0.47284214
16
Frame=13 idx=009630 GeodesicLength=0.7264753630210952 rxn_smarts="[C:1]([C@@:2]1([H:11])[N:3]([H:12])[C@:4]1([C@@:5]1([H:14])[C:6]([H:15])([H:16])[O:7]1)[H:13])([H:8])([H:9])[H:10]>>[C:1]([C-:2]1[N+:3]([H:11])([H:12])[C@:4]1([C@@:5]1([H:14])[C:6]([H:15])([H:16])[O:7]1)[H:13])([H:8])([H:9])[H:10]"
C       -2.01572493      -0.40231738      -0.12977963
C       -1.27597771       0.75261819       0.48634415
N       -0.12487390       0.35737339       1.45389489
C        0.14777355       0.96708587       0.15354840
C        0.90802347       0.12270361      -0.82768937
C        2.22650921      -0.41965988      -0.51207015
O        1.07510941      -1.25433174      -0.52634986
H       -2.52885750      -0.03210710      -1.02134195
H       -2.78941790      -0.78039113       0.54102579
H       -1.38035939      -1.24309832      -0.43050208
H       -1.12589234       1.11145937       1.86650037
H        0.07408168      -0.63825262       1.43957062
H        0.53794499       1.98162506       0.21360211
H        0.67931377       0.32291577      -1.87247126
H        2.94195026      -0.60951872      -1.30580578
H        2.65039733      -0.23610435       0.47152377
16
Frame=14 idx=009630 GeodesicLength=0.7823308244555619 rxn_smarts="[C:1]([C@@:2]1([H:11])[N:3]([H:12])[C@:4]1([C@@:5]1([H:14])[C:6]([H:15])([H:16])[O:7]1)[H:13])([H:8])([H:9])[H:10]>>[C:1]([C-:2]1[N+:3]([H:11])([H:12])[C@:4]1([C@@:5]1([H:14])[C:6]([H:15])([H:16])[O:7]1)[H:13])([H:8])([H:9])[H:10]"
C       -2.01765306      -0.40257829      -0.12943372
C       -1.27248710       0.74664802       0.49124422
N       -0.13446893       0.35240343       1.44892050
C        0.14913564       0.96544403       0.15216411
C        0.91057423       0.12213051      -0.82896733
C        2.22941741      -0.41932626      -0.51317992
O        1.07856322      -1.25465798      -0.52661026
H       -2.53224289      -0.02928471      -1.01866301
H       -2.78979255      -0.78292649       0.54202017
H       -1.38381266      -1.24350618      -0.43328161
H       -1.13240609       1.12892515       1.87210049
H        0.07620020      -0.64079312       1.43766009
H        0.53865174       1.97988300       0.21655494
H        0.68179234       0.32156636      -1.87387498
H        2.94498377      -0.60923215      -1.30680620
H        2.65354474      -0.23469533       0.47015252
16
Frame=15 idx=009630 GeodesicLength=0.8381872569395032 rxn_smarts="[C:1]([C@@:2]1([H:11])[N:3]([H:12])[C@:4]1([C@@:5]1([H:14])[C:6]([H:15])([H:16])[O:7]1)[H:13])([H:8])([H:9])[H:10]>>[C:1]([C-:2]1[N+:3]([H:11])([H:12])[C@:4]1([C@@:5]1([H:14])[C:6]([H:15])([H:16])[O:7]1)[H:13])([H:8])([H:9])[H:10]"
C       -2.01958531      -0.40279080      -0.12908087
C       -1.26904236       0.74072804       0.49610087
N       -0.14387369       0.34740163       1.44401095
C        0.15048010       0.96375367       0.15086717
C        0.91311371       0.12155553      -0.83019892
C        2.23233348      -0.41898359      -0.51431132
O        1.08202963      -1.25498036      -0.52681258
H       -2.53561139      -0.02645131      -1.01598626
H       -2.79018318      -0.78541900       0.54299388
H       -1.38728952      -1.24388118      -0.43601146
H       -1.13902742       1.14624230       1.87737921
H        0.07833203      -0.64325982       1.43582230
H        0.53935470       1.97807274       0.21959254
H        0.68422170       0.32020985      -1.87522460
H        2.94798155      -0.60894199      -1.30786631
H        2.65676597      -0.23325570       0.46872539
16
Frame=16 idx=009630 GeodesicLength=0.8940412162391692 rxn_smarts="[C:1]([C@@:2]1([H:11])[N:3]([H:12])[C@:4]1([C@@:5]1([H:14])[C:6]([H:15])([H:16])[O:7]1)[H:13])([H:8])([H:9])[H:10]>>[C:1]([C-:2]1[N+:3]([H:11])([H:12])[C@:4]1([C@@:5]1([H:14])[C:6]([H:15])([H:16])[O:7]1)[H:13])([H:8])([H:9])[H:10]"
C       -2.02151737      -0.40295702      -0.12871773
C       -1.26563886       0.73485629       0.50091751
N       -0.15308503       0.34236424       1.43916633
C        0.15181106       0.96201757       0.14965898
C        0.91564218       0.12098115      -0.83138568
C        2.23525701      -0.41863249      -0.51546848
O        1.08550718      -1.25529790      -0.52696369
H       -2.53894568      -0.02361478      -1.01331897
H       -2.79059469      -0.78785966       0.54394614
H       -1.39078651      -1.24423022      -0.43867805
H       -1.14578183       1.16342710       1.88234634
H        0.08047404      -0.64566288       1.43405361
H        0.54005683       1.97619740       0.22271678
H        0.68659945       0.31885111      -1.87652063
H        2.95094191      -0.60864803      -1.30899169
H        2.66006032      -0.23179187       0.46723925
