10
Frame=0 idx=008755 GeodesicLength=0.0 rxn_smarts="[O:1]=[C:2]([c:3]1[n:4][o:5][c:6]([H:9])[c:7]1[H:10])[H:8]>>[O:1]=[C:2]([C:3]([N:4]=[O:5])=[C:7]=[C:6]([H:9])[H:10])[H:8]"
O       -2.37848750       0.98190975      -1.09561584
C       -1.70367538      -0.00361089      -1.02569190
C       -0.39100308      -0.05546117      -0.32449404
N        0.22011251      -1.20688513      -0.29841970
O        1.36755689      -1.07217100       0.36510016
C        1.42674204       0.26777106       0.78705589
C        0.34756565       1.04174206       0.29655410
H       -2.01084767      -0.96486957      -1.47924534
H        2.41984402       0.57782249       1.08512043
H        0.70219251       0.43375241       1.68963623
10
Frame=1 idx=008755 GeodesicLength=0.10750254712224658 rxn_smarts="[O:1]=[C:2]([c:3]1[n:4][o:5][c:6]([H:9])[c:7]1[H:10])[H:8]>>[O:1]=[C:2]([C:3]([N:4]=[O:5])=[C:7]=[C:6]([H:9])[H:10])[H:8]"
O       -2.38345258       0.98061978      -1.07128562
C       -1.70132393      -0.00164856      -1.02767270
C       -0.38687626      -0.06160288      -0.33220208
N        0.21901094      -1.22105214      -0.30378158
O        1.35972792      -1.09274184       0.36600422
C        1.43052564       0.27221246       0.79423810
C        0.34906281       1.02547000       0.29553939
H       -2.00536298      -0.95564360      -1.49824323
H        2.42569600       0.58842702       1.07740220
H        0.69299245       0.46595975       1.70000129
10
Frame=2 idx=008755 GeodesicLength=0.2150020619672928 rxn_smarts="[O:1]=[C:2]([c:3]1[n:4][o:5][c:6]([H:9])[c:7]1[H:10])[H:8]>>[O:1]=[C:2]([C:3]([N:4]=[O:5])=[C:7]=[C:6]([H:9])[H:10])[H:8]"
O       -2.38694651       0.97954000      -1.04875712
C       -1.69851054       0.00062182      -1.03009629
C       -0.38280915      -0.06794471      -0.33951418
N        0.21859150      -1.23505086      -0.31084610
O        1.35252760      -1.11355415       0.36517995
C        1.43409919       0.27656004       0.80215679
C        0.35020418       1.00866885       0.29571097
H       -2.00144443      -0.94684888      -1.51425986
H        2.43105100       0.59936721       1.07006850
H        0.68323716       0.49864067       1.71035734
10
Frame=3 idx=008755 GeodesicLength=0.3225004207686396 rxn_smarts="[O:1]=[C:2]([c:3]1[n:4][o:5][c:6]([H:9])[c:7]1[H:10])[H:8]>>[O:1]=[C:2]([C:3]([N:4]=[O:5])=[C:7]=[C:6]([H:9])[H:10])[H:8]"
O       -2.38888865       0.97891859      -1.02839868
C       -1.69567357       0.00293433      -1.03219707
C       -0.37916308      -0.07467925      -0.34581443
N        0.21861801      -1.24902919      -0.31921061
O        1.34601061      -1.13466993       0.36251939
C        1.43750344       0.28081256       0.81075378
C        0.35084645       0.99121523       0.29726735
H       -1.99850813      -0.93828175      -1.52837903
H        2.43599494       0.61076761       1.06264479
H        0.67325997       0.53201179       1.72081451
10
Frame=4 idx=008755 GeodesicLength=0.42999442854213643 rxn_smarts="[O:1]=[C:2]([c:3]1[n:4][o:5][c:6]([H:9])[c:7]1[H:10])[H:8]>>[O:1]=[C:2]([C:3]([N:4]=[O:5])=[C:7]=[C:6]([H:9])[H:10])[H:8]"
O       -2.38917484       0.97901521      -1.01051259
C       -1.69291424       0.00519387      -1.03378553
C       -0.37607477      -0.08190007      -0.35085957
N        0.21907685      -1.26302570      -0.32884580
O        1.34032174      -1.15610319       0.35779681
C        1.44073545       0.28494384       0.82007616
C        0.35091341       0.97300959       0.30035793
H       -1.99650323      -0.92999996      -1.54068462
H        2.44048178       0.62269927       1.05503334
H        0.66313784       0.56616714       1.73142386
10
Frame=5 idx=008755 GeodesicLength=0.5374828871993187 rxn_smarts="[O:1]=[C:2]([c:3]1[n:4][o:5][c:6]([H:9])[c:7]1[H:10])[H:8]>>[O:1]=[C:2]([C:3]([N:4]=[O:5])=[C:7]=[C:6]([H:9])[H:10])[H:8]"
O       -2.38809954       0.97976837      -0.99461863
C       -1.69033710       0.00729037      -1.03466435
C       -0.37372007      -0.08976856      -0.35433554
N        0.21972149      -1.27721690      -0.33933759
O        1.33540892      -1.17798422       0.35112797
C        1.44382609       0.28891822       0.83010947
C        0.35045698       0.95395528       0.30491072
H       -1.99484203      -0.92168665      -1.55224335
H        2.44453758       0.63512850       1.04696798
H        0.65304768       0.60159559       1.74208330
10
Frame=6 idx=008755 GeodesicLength=0.6449703985088178 rxn_smarts="[O:1]=[C:2]([c:3]1[n:4][o:5][c:6]([H:9])[c:7]1[H:10])[H:8]>>[O:1]=[C:2]([C:3]([N:4]=[O:5])=[C:7]=[C:6]([H:9])[H:10])[H:8]"
O       -2.38588460       0.98110659      -0.98029976
C       -1.68797153       0.00916213      -1.03475092
C       -0.37221378      -0.09842838      -0.35603088
N        0.22039149      -1.29173032      -0.35042619
O        1.33125451      -1.20041260       0.34255641
C        1.44678870       0.29269652       0.84087905
C        0.34951839       0.93394903       0.31089098
H       -1.99311999      -0.91308860      -1.56376824
H        2.44813779       0.64800601       1.03831054
H        0.64309902       0.63873962       1.75263901
10
Frame=7 idx=008755 GeodesicLength=0.7524437718353023 rxn_smarts="[O:1]=[C:2]([c:3]1[n:4][o:5][c:6]([H:9])[c:7]1[H:10])[H:8]>>[O:1]=[C:2]([C:3]([N:4]=[O:5])=[C:7]=[C:6]([H:9])[H:10])[H:8]"
O       -2.38205954       0.98350432      -0.96842588
C       -1.68586626       0.01073636      -1.03392580
C       -0.37166926      -0.10799599      -0.35573023
N        0.22125849      -1.30649621      -0.36242626
O        1.32819647      -1.22326408       0.33152885
C        1.44958303       0.29624556       0.85250689
C        0.34790156       0.91282563       0.31868491
H       -1.99173620      -0.90449458      -1.57450300
H        2.45109882       0.66145330       1.02914287
H        0.63329290       0.67748570       1.76314764
10
Frame=8 idx=008755 GeodesicLength=0.8598948053794555 rxn_smarts="[O:1]=[C:2]([c:3]1[n:4][o:5][c:6]([H:9])[c:7]1[H:10])[H:8]>>[O:1]=[C:2]([C:3]([N:4]=[O:5])=[C:7]=[C:6]([H:9])[H:10])[H:8]"
O       -2.37638748       0.98722915      -0.95935081
C       -1.68413337       0.01189001      -1.03197391
C       -0.37227381      -0.11867804      -0.35309371
N        0.22230560      -1.32154775      -0.37537372
O        1.32643203      -1.24648025       0.31772128
C        1.45219839       0.29952962       0.86506210
C        0.34548376       0.89039667       0.32856134
H       -1.99065443      -0.89589961      -1.58449887
H        2.45328839       0.67553767       1.01938668
H        0.62374092       0.71802253       1.77355961
10
Frame=9 idx=008755 GeodesicLength=0.9673614518015378 rxn_smarts="[O:1]=[C:2]([c:3]1[n:4][o:5][c:6]([H:9])[c:7]1[H:10])[H:8]>>[O:1]=[C:2]([C:3]([N:4]=[O:5])=[C:7]=[C:6]([H:9])[H:10])[H:8]"
O       -2.36903484       0.99210650      -0.95236577
C       -1.68269054       0.01263171      -1.02887685
C       -0.37407841      -0.13065581      -0.34802050
N        0.22348981      -1.33693891      -0.38911228
O        1.32585418      -1.27015078       0.30117527
C        1.45460560       0.30247442       0.87862689
C        0.34231932       0.86649146       0.34040595
H       -1.98948195      -0.88701865      -1.59432811
H        2.45460123       0.69012337       1.00904490
H        0.61441559       0.76093668       1.78345049
10
Frame=10 idx=008755 GeodesicLength=1.074785420245115 rxn_smarts="[O:1]=[C:2]([c:3]1[n:4][o:5][c:6]([H:9])[c:7]1[H:10])[H:8]>>[O:1]=[C:2]([C:3]([N:4]=[O:5])=[C:7]=[C:6]([H:9])[H:10])[H:8]"
O       -2.35977219       0.99826674      -0.94768107
C       -1.68173465       0.01277197      -1.02430900
C       -0.37751314      -0.14435744      -0.33973325
N        0.22454998      -1.35282677      -0.40343279
O        1.32663506      -1.29417202       0.28160816
C        1.45681262       0.30507434       0.89319399
C        0.33817469       0.84081066       0.35472203
H       -1.98771989      -0.87750008      -1.60474990
H        2.45487204       0.70531470       0.99771791
H        0.60569549       0.80661790       1.79266394
10
Frame=11 idx=008755 GeodesicLength=1.1821899499903872 rxn_smarts="[O:1]=[C:2]([c:3]1[n:4][o:5][c:6]([H:9])[c:7]1[H:10])[H:8]>>[O:1]=[C:2]([C:3]([N:4]=[O:5])=[C:7]=[C:6]([H:9])[H:10])[H:8]"
O       -2.34831077       1.00576043      -0.94508009
C       -1.68108393       0.01239750      -1.01837945
C       -0.38256847      -0.16000192      -0.32821593
N        0.22561655      -1.36913602      -0.41858754
O        1.32881280      -1.31846498       0.25876108
C        1.45873363       0.30724065       0.90895202
C        0.33298097       0.81307727       0.37169107
H       -1.98545029      -0.86736561      -1.61540610
H        2.45383624       0.72102560       0.98557523
H        0.59743327       0.85546706       1.80068971
10
Frame=12 idx=008755 GeodesicLength=1.2895613641373582 rxn_smarts="[O:1]=[C:2]([c:3]1[n:4][o:5][c:6]([H:9])[c:7]1[H:10])[H:8]>>[O:1]=[C:2]([C:3]([N:4]=[O:5])=[C:7]=[C:6]([H:9])[H:10])[H:8]"
O       -2.33469318       1.01429786      -0.94350180
C       -1.67975998       0.01220588      -1.01246960
C       -0.38862202      -0.17742735      -0.31442540
N        0.22697645      -1.38563356      -0.43521702
O        1.33235047      -1.34294005       0.23248100
C        1.46018403       0.30879123       0.92631276
C        0.32696294       0.78313254       0.39123307
H       -1.98362894      -0.85723806      -1.62459300
H        2.45116548       0.73683505       0.97356634
H        0.58906475       0.90797646       1.80661365
10
Frame=13 idx=008755 GeodesicLength=1.3969196286387051 rxn_smarts="[O:1]=[C:2]([c:3]1[n:4][o:5][c:6]([H:9])[c:7]1[H:10])[H:8]>>[O:1]=[C:2]([C:3]([N:4]=[O:5])=[C:7]=[C:6]([H:9])[H:10])[H:8]"
O       -2.31886417       1.02375077      -0.94215376
C       -1.67757667       0.01228811      -1.00649008
C       -0.39523656      -0.19661364      -0.29905383
N        0.22864749      -1.40229315      -0.45331857
O        1.33718319      -1.36751404       0.20273525
C        1.46104845       0.30961114       0.94558550
C        0.32009991       0.75062790       0.41354025
H       -1.98229415      -0.84705368      -1.63226861
H        2.44663080       0.75252801       0.96204319
H        0.58036171       0.96466858       1.80938066
10
Frame=14 idx=008755 GeodesicLength=1.5043100077591616 rxn_smarts="[O:1]=[C:2]([c:3]1[n:4][o:5][c:6]([H:9])[c:7]1[H:10])[H:8]>>[O:1]=[C:2]([C:3]([N:4]=[O:5])=[C:7]=[C:6]([H:9])[H:10])[H:8]"
O       -2.30030330       1.03439250      -0.94110247
C       -1.67364432       0.01328522      -1.00155528
C       -0.40153621      -0.21715717      -0.28348718
N        0.23104112      -1.41880449      -0.47363820
O        1.34356808      -1.39181069       0.16902341
C        1.46113451       0.30950341       0.96737141
C        0.31229158       0.71515371       0.43923322
H       -1.98324241      -0.83796493      -1.63589323
H        2.43989042       0.76789032       0.95198033
H        0.57080052       1.02551211       1.80806799
10
Frame=15 idx=008755 GeodesicLength=1.6115964880562927 rxn_smarts="[O:1]=[C:2]([c:3]1[n:4][o:5][c:6]([H:9])[c:7]1[H:10])[H:8]>>[O:1]=[C:2]([C:3]([N:4]=[O:5])=[C:7]=[C:6]([H:9])[H:10])[H:8]"
O       -2.27986923       1.04538793      -0.93808184
C       -1.66850951       0.01463786      -0.99629350
C       -0.40773826      -0.23945209      -0.26719716
N        0.23327789      -1.43589604      -0.49436116
O        1.35090356      -1.41601588       0.13245057
C        1.46050297       0.30861487       0.99142172
C        0.30285198       0.67578361       0.46955857
H       -1.98336484      -0.82759801      -1.63998850
H        2.43067153       0.78308072       0.94155696
H        0.56127392       1.09145703       1.80093434
10
Frame=16 idx=008755 GeodesicLength=1.7187895728773055 rxn_smarts="[O:1]=[C:2]([c:3]1[n:4][o:5][c:6]([H:9])[c:7]1[H:10])[H:8]>>[O:1]=[C:2]([C:3]([N:4]=[O:5])=[C:7]=[C:6]([H:9])[H:10])[H:8]"
O       -2.25457689       1.05870631      -0.93633203
C       -1.66109753       0.01716202      -0.99175059
C       -0.41337197      -0.26343701      -0.25081461
N        0.23613015      -1.45309767      -0.51651432
O        1.36009650      -1.43913006       0.09157487
C        1.45910119       0.30696100       1.01820448
C        0.29055047       0.63077107       0.50728155
H       -1.98588664      -0.81790518      -1.63974967
H        2.41791272       0.79935966       0.93041466
H        0.55114200       1.16060987       1.78768565
