15
Frame=0 idx=009081 GeodesicLength=0.0 rxn_smarts="[C:1]([n:2]1[c:3]([H:11])[c:4]([H:12])[c:5]([C:6]([H:13])([H:14])[H:15])[n:7]1)([H:8])([H:9])[H:10]>>[C-:1]([N+:2]1=[C:3]([H:11])[C:4]([H:10])([H:12])[C:5]([C:6]([H:13])([H:14])[H:15])=[N:7]1)([H:8])[H:9]"
C        2.05412082      -0.53307223       0.16318799
N        1.18589197      -0.20648088      -0.86036429
C        0.84847686       1.11628390      -0.83714677
C       -0.19862083       1.07103398       0.10510911
C       -0.82328129      -0.24091305      -0.17795161
C       -2.19261716      -0.66607991       0.20433688
N        0.01768239      -1.01615066      -0.75088376
H        2.82987749       0.19622098       0.36823888
H        2.32345123      -1.58155010       0.24028068
H        0.69570089       0.41799275       1.03063600
H        1.65295154       1.83528163      -0.88391389
H       -0.76640731       1.91198426       0.48174861
H       -2.94028436      -0.06771665      -0.32042981
H       -2.34548253      -0.52014169       1.27574564
H       -2.34145977      -1.71669233      -0.03859364
15
Frame=1 idx=009081 GeodesicLength=0.06279610355926103 rxn_smarts="[C:1]([n:2]1[c:3]([H:11])[c:4]([H:12])[c:5]([C:6]([H:13])([H:14])[H:15])[n:7]1)([H:8])([H:9])[H:10]>>[C-:1]([N+:2]1=[C:3]([H:11])[C:4]([H:10])([H:12])[C:5]([C:6]([H:13])([H:14])[H:15])=[N:7]1)([H:8])[H:9]"
C        2.06295812      -0.53527303       0.16686261
N        1.18638007      -0.20596666      -0.85051406
C        0.84391055       1.11535055      -0.83217117
C       -0.20142104       1.07168119       0.11579729
C       -0.82749022      -0.23671123      -0.17555829
C       -2.19748421      -0.66538263       0.20102448
N        0.01847394      -1.01282870      -0.74355696
H        2.84966595       0.18791476       0.35041330
H        2.32926822      -1.58506993       0.23317847
H        0.71291033       0.41558360       1.05433224
H        1.64379999       1.83837463      -0.89037724
H       -0.77808933       1.91689275       0.46948124
H       -2.94339550      -0.07029046      -0.32994726
H       -2.35821973      -0.51711850       1.27092352
H       -2.34126716      -1.71715635      -0.03988816
15
Frame=2 idx=009081 GeodesicLength=0.12554089270274565 rxn_smarts="[C:1]([n:2]1[c:3]([H:11])[c:4]([H:12])[c:5]([C:6]([H:13])([H:14])[H:15])[n:7]1)([H:8])([H:9])[H:10]>>[C-:1]([N+:2]1=[C:3]([H:11])[C:4]([H:10])([H:12])[C:5]([C:6]([H:13])([H:14])[H:15])=[N:7]1)([H:8])[H:9]"
C        2.07186137      -0.53740334       0.17050999
N        1.18687066      -0.20532720      -0.84051199
C        0.83936333       1.11450959      -0.82708873
C       -0.20442428       1.07245943       0.12635736
C       -0.83178795      -0.23238467      -0.17338910
C       -2.20231591      -0.66470344       0.19766667
N        0.01928864      -1.00942357      -0.73615408
H        2.86912838       0.17931979       0.33230434
H        2.33476259      -1.58849057       0.22629228
H        0.73060017       0.41317179       1.07818249
H        1.63452349       1.84148475      -0.89673792
H       -0.78952200       1.92152721       0.45714928
H       -2.94652715      -0.07301458      -0.33948222
H       -2.37086107      -0.51407516       1.26599518
H       -2.34096028      -1.71765004      -0.04109356
15
Frame=3 idx=009081 GeodesicLength=0.18824030736324807 rxn_smarts="[C:1]([n:2]1[c:3]([H:11])[c:4]([H:12])[c:5]([C:6]([H:13])([H:14])[H:15])[n:7]1)([H:8])([H:9])[H:10]>>[C-:1]([N+:2]1=[C:3]([H:11])[C:4]([H:10])([H:12])[C:5]([C:6]([H:13])([H:14])[H:15])=[N:7]1)([H:8])[H:9]"
C        2.08082757      -0.53946086       0.17412989
N        1.18736280      -0.20456256      -0.83035464
C        0.83483783       1.11376152      -0.82191101
C       -0.20764456       1.07337286       0.13676142
C       -0.83617956      -0.22793203      -0.17146390
C       -2.20711351      -0.66404544       0.19425760
N        0.02012549      -1.00593537      -0.72867646
H        2.88825349       0.17043407       0.31391684
H        2.33993008      -1.59181171       0.21964064
H        0.74879344       0.41076490       1.10218753
H        1.62512586       1.84460877      -0.90300796
H       -0.80069064       1.92589597       0.44481205
H       -2.94968781      -0.07590097      -0.34903970
H       -2.38340328      -0.51101239       1.26095627
H       -2.34053722      -1.71817676      -0.04220858
15
Frame=4 idx=009081 GeodesicLength=0.25090502774039086 rxn_smarts="[C:1]([n:2]1[c:3]([H:11])[c:4]([H:12])[c:5]([C:6]([H:13])([H:14])[H:15])[n:7]1)([H:8])([H:9])[H:10]>>[C-:1]([N+:2]1=[C:3]([H:11])[C:4]([H:10])([H:12])[C:5]([C:6]([H:13])([H:14])[H:15])=[N:7]1)([H:8])[H:9]"
C        2.08985486      -0.54144399       0.17772112
N        1.18785531      -0.20367255      -0.82003824
C        0.83033664       1.11310702      -0.81664871
C       -0.21109549       1.07442563       0.14698264
C       -0.84066942      -0.22335224      -0.16980108
C       -2.21187784      -0.66341154       0.19079267
N        0.02098351      -1.00236413      -0.72112472
H        2.90703022       0.16125449       0.29525757
H        2.34476800      -1.59503351       0.21323862
H        0.76751554       0.40836510       1.12635245
H        1.61561292       1.84774420      -0.90919687
H       -0.81159000       1.93001348       0.43251556
H       -2.95288583      -0.07895865      -0.35862123
H       -2.39584156      -0.50793430       1.25580497
H       -2.33999687      -1.71873902      -0.04323476
15
Frame=5 idx=009081 GeodesicLength=0.31353978754040396 rxn_smarts="[C:1]([n:2]1[c:3]([H:11])[c:4]([H:12])[c:5]([C:6]([H:13])([H:14])[H:15])[n:7]1)([H:8])([H:9])[H:10]>>[C-:1]([N+:2]1=[C:3]([H:11])[C:4]([H:10])([H:12])[C:5]([C:6]([H:13])([H:14])[H:15])=[N:7]1)([H:8])[H:9]"
C        2.09894479      -0.54335404       0.18128349
N        1.18834701      -0.20265585      -0.80955232
C        0.82586410       1.11254778      -0.81130319
C       -0.21479017       1.07562067       0.15700281
C       -0.84526136      -0.21864454      -0.16841597
C       -2.21660995      -0.66280543       0.18726725
N        0.02186182      -0.99870678      -0.71349152
H        2.92544877       0.15176947       0.27632236
H        2.34927991      -1.59816163       0.20709450
H        0.78680243       0.40597905       1.15068295
H        1.60598945       1.85088706      -0.91530845
H       -0.82223608       1.93390811       0.42028484
H       -2.95612676      -0.08219620      -0.36822583
H       -2.40817354      -0.50485105       1.25053665
H       -2.33934042      -1.71933662      -0.04417757
15
Frame=6 idx=009081 GeodesicLength=0.3761617788241571 rxn_smarts="[C:1]([n:2]1[c:3]([H:11])[c:4]([H:12])[c:5]([C:6]([H:13])([H:14])[H:15])[n:7]1)([H:8])([H:9])[H:10]>>[C-:1]([N+:2]1=[C:3]([H:11])[C:4]([H:10])([H:12])[C:5]([C:6]([H:13])([H:14])[H:15])=[N:7]1)([H:8])[H:9]"
C        2.10810045      -0.54519028       0.18481240
N        1.18883579      -0.20150969      -0.79888902
C        0.82142188       1.11208654      -0.80587736
C       -0.21874238       1.07696259       0.16680357
C       -0.84995804      -0.21380871      -0.16731777
C       -2.22131170      -0.66222988       0.18367634
N        0.02275987      -0.99496258      -0.70577240
H        2.94349926       0.14197221       0.25711276
H        2.35346696      -1.60119908       0.20121565
H        0.80669392       0.40360007       1.17519030
H        1.59625865       1.85403504      -0.92134968
H       -0.83263923       1.93760269       0.40814543
H       -2.95941530      -0.08562330      -0.37786032
H       -2.42040285      -0.50176470       1.24514769
H       -2.33856729      -1.71997093      -0.04503761
15
Frame=7 idx=009081 GeodesicLength=0.43877080584958644 rxn_smarts="[C:1]([n:2]1[c:3]([H:11])[c:4]([H:12])[c:5]([C:6]([H:13])([H:14])[H:15])[n:7]1)([H:8])([H:9])[H:10]>>[C-:1]([N+:2]1=[C:3]([H:11])[C:4]([H:10])([H:12])[C:5]([C:6]([H:13])([H:14])[H:15])=[N:7]1)([H:8])[H:9]"
C        2.11732873      -0.54695388       0.18830097
N        1.18931865      -0.20023207      -0.78803673
C        0.81701038       1.11172512      -0.80036696
C       -0.22296445       1.07845257       0.17637598
C       -0.85476143      -0.20884706      -0.16651219
C       -2.22598719      -0.66168621       0.18001319
N        0.02367680      -0.99113167      -0.69795435
H        2.96117567       0.13185266       0.23761997
H        2.35733524      -1.60414748       0.19560734
H        0.82723782       0.40123046       1.19988429
H        1.58642120       1.85718612      -0.92732438
H       -0.84281720       1.94111709       0.39611585
H       -2.96275515      -0.08924710      -0.38753682
H       -2.43253935      -0.49867615       1.23963234
H       -2.33767972      -1.72064238      -0.04581850
15
Frame=8 idx=009081 GeodesicLength=0.501376916357707 rxn_smarts="[C:1]([n:2]1[c:3]([H:11])[c:4]([H:12])[c:5]([C:6]([H:13])([H:14])[H:15])[n:7]1)([H:8])([H:9])[H:10]>>[C-:1]([N+:2]1=[C:3]([H:11])[C:4]([H:10])([H:12])[C:5]([C:6]([H:13])([H:14])[H:15])=[N:7]1)([H:8])[H:9]"
C        2.12663769      -0.54864676       0.19174019
N        1.18979192      -0.19881922      -0.77698074
C        0.81262900       1.11146631      -0.79476546
C       -0.22746932       1.08009217       0.18571623
C       -0.85967338      -0.20376181      -0.16599887
C       -2.23064088      -0.66117653       0.17627202
N        0.02461167      -0.98721210      -0.69002096
H        2.97846884       0.12140086       0.21783451
H        2.36089490      -1.60701061       0.19026697
H        0.84849365       0.39886316       1.22477806
H        1.57647763       1.86033760      -0.93323189
H       -0.85279544       1.94447949       0.38419974
H       -2.96614595      -0.09307778      -0.39727063
H       -2.44460027      -0.49558457       1.23398026
H       -2.33668007      -1.72135020      -0.04651943
15
Frame=9 idx=009081 GeodesicLength=0.5640727406288139 rxn_smarts="[C:1]([n:2]1[c:3]([H:11])[c:4]([H:12])[c:5]([C:6]([H:13])([H:14])[H:15])[n:7]1)([H:8])([H:9])[H:10]>>[C-:1]([N+:2]1=[C:3]([H:11])[C:4]([H:10])([H:12])[C:5]([C:6]([H:13])([H:14])[H:15])=[N:7]1)([H:8])[H:9]"
C        2.13604695      -0.55028441       0.19510897
N        1.19024317      -0.19726613      -0.76568707
C        0.80827982       1.11131477      -0.78904132
C       -0.23229679       1.08189385       0.19478847
C       -0.86470413      -0.19855707      -0.16578503
C       -2.23528551      -0.66069941       0.17244347
N        0.02555875      -0.98320823      -0.68193336
H        2.99540249       0.11061023       0.19772422
H        2.36416749      -1.60978780       0.18517782
H        0.87055949       0.39647683       1.24989116
H        1.56644159       1.86349113      -0.93903980
H       -0.86262844       1.94771179       0.37239404
H       -2.96959693      -0.09713586      -0.40709924
H       -2.45661670      -0.49246036       1.22817997
H       -2.33557124      -1.72209933      -0.04712229
15
Frame=10 idx=009081 GeodesicLength=0.6267602587455001 rxn_smarts="[C:1]([n:2]1[c:3]([H:11])[c:4]([H:12])[c:5]([C:6]([H:13])([H:14])[H:15])[n:7]1)([H:8])([H:9])[H:10]>>[C-:1]([N+:2]1=[C:3]([H:11])[C:4]([H:10])([H:12])[C:5]([C:6]([H:13])([H:14])[H:15])=[N:7]1)([H:8])[H:9]"
C        2.14555602      -0.55185545       0.19841027
N        1.19067708      -0.19556857      -0.75415279
C        0.80395919       1.11127368      -0.78319990
C       -0.23743323       1.08384975       0.20362783
C       -0.86984554      -0.19323329      -0.16585921
C       -2.23991744      -0.66025902       0.16852314
N        0.02652173      -0.97911119      -0.67369264
H        3.01194253       0.09946553       0.17728574
H        2.36714398      -1.61248982       0.18035688
H        0.89346415       0.39407811       1.27523231
H        1.55629620       1.86664263      -0.94477612
H       -0.87232117       1.95084175       0.36068804
H       -2.97309788      -0.10141592      -0.41701732
H       -2.46859061      -0.48933412       1.22222469
H       -2.33435502      -1.72288406      -0.04765091
15
Frame=11 idx=009081 GeodesicLength=0.6894491528893599 rxn_smarts="[C:1]([n:2]1[c:3]([H:11])[c:4]([H:12])[c:5]([C:6]([H:13])([H:14])[H:15])[n:7]1)([H:8])([H:9])[H:10]>>[C-:1]([N+:2]1=[C:3]([H:11])[C:4]([H:10])([H:12])[C:5]([C:6]([H:13])([H:14])[H:15])=[N:7]1)([H:8])[H:9]"
C        2.15517393      -0.55336236       0.20163465
N        1.19108878      -0.19372038      -0.74235684
C        0.79966526       1.11134764      -0.77722777
C       -0.24289425       1.08596481       0.21223025
C       -0.87509844      -0.18779246      -0.16621937
C       -2.24454013      -0.65985570       0.16450532
N        0.02749867      -0.97491978      -0.66528142
H        3.02808563       0.08795923       0.15649951
H        2.36982868      -1.61512065       0.17580230
H        0.91727300       0.39164641       1.30082234
H        1.54604219       1.86979315      -0.95043280
H       -0.88190664       1.95389245       0.34906386
H       -2.97664726      -0.10592614      -0.42704161
H       -2.48053749      -0.48620213       1.21610589
H       -2.33303194      -1.72370408      -0.04810432
15
Frame=12 idx=009081 GeodesicLength=0.7521329516009029 rxn_smarts="[C:1]([n:2]1[c:3]([H:11])[c:4]([H:12])[c:5]([C:6]([H:13])([H:14])[H:15])[n:7]1)([H:8])([H:9])[H:10]>>[C-:1]([N+:2]1=[C:3]([H:11])[C:4]([H:10])([H:12])[C:5]([C:6]([H:13])([H:14])[H:15])=[N:7]1)([H:8])[H:9]"
C        2.16491398      -0.55480716       0.20476908
N        1.19147303      -0.19171606      -0.73027521
C        0.79539459       1.11154079      -0.77110494
C       -0.24869301       1.08823974       0.22060591
C       -0.88046264      -0.18223881      -0.16685416
C       -2.24915976      -0.65949013       0.16038034
N        0.02848857      -0.97063127      -0.65667179
H        3.04382334       0.07607990       0.13533496
H        2.37222896      -1.61768328       0.17151361
H        0.94206794       0.38917175       1.32667757
H        1.53567269       1.87294130      -0.95600376
H       -0.89141851       1.95688585       0.33750391
H       -2.98023778      -0.11067569      -0.43719869
H       -2.49248544      -0.48305938       1.20980663
H       -2.33160595      -1.72455756      -0.04848347
15
Frame=13 idx=009081 GeodesicLength=0.8148056340124673 rxn_smarts="[C:1]([n:2]1[c:3]([H:11])[c:4]([H:12])[c:5]([C:6]([H:13])([H:14])[H:15])[n:7]1)([H:8])([H:9])[H:10]>>[C-:1]([N+:2]1=[C:3]([H:11])[C:4]([H:10])([H:12])[C:5]([C:6]([H:13])([H:14])[H:15])=[N:7]1)([H:8])[H:9]"
C        2.17478848      -0.55619248       0.20780222
N        1.19182422      -0.18955020      -0.71787997
C        0.79114250       1.11185630      -0.76481031
C       -0.25484543       1.09067701       0.22876051
C       -0.88593840      -0.17657750      -0.16775271
C       -2.25378399      -0.65916137       0.15613838
N        0.02948945      -0.96624705      -0.64783582
H        3.05915186       0.06382235       0.11376199
H        2.37435532      -1.62017964       0.16748688
H        0.96793291       0.38664113       1.35281469
H        1.52518217       1.87608583      -0.96148291
H       -0.90088808       1.95983720       0.32599284
H       -2.98386520      -0.11567133      -0.44751962
H       -2.50446478      -0.47989543       1.20331236
H       -2.33008103      -1.72544481      -0.04878853
15
Frame=14 idx=009081 GeodesicLength=0.8774674880339409 rxn_smarts="[C:1]([n:2]1[c:3]([H:11])[c:4]([H:12])[c:5]([C:6]([H:13])([H:14])[H:15])[n:7]1)([H:8])([H:9])[H:10]>>[C-:1]([N+:2]1=[C:3]([H:11])[C:4]([H:10])([H:12])[C:5]([C:6]([H:13])([H:14])[H:15])=[N:7]1)([H:8])[H:9]"
C        2.18481534      -0.55751970       0.21071552
N        1.19213568      -0.18721537      -0.70513722
C        0.78690352       1.11229931      -0.75831631
C       -0.26136917       1.09328037       0.23670715
C       -0.89152498      -0.17081424      -0.16889440
C       -2.25842133      -0.65886896       0.15176726
N        0.03050058      -0.96176356      -0.63873217
H        3.07405447       0.05117251       0.09173854
H        2.37622143      -1.62260874       0.16371716
H        0.99497132       0.38403462       1.37925057
H        1.51456013       1.87922467      -0.96686137
H       -0.91035124       1.96276576       0.31450979
H       -2.98751515      -0.12092865      -0.45804751
H       -2.51651883      -0.47669471       1.19659468
H       -2.32846176      -1.72636330      -0.04901169
15
Frame=15 idx=009081 GeodesicLength=0.9401116490854049 rxn_smarts="[C:1]([n:2]1[c:3]([H:11])[c:4]([H:12])[c:5]([C:6]([H:13])([H:14])[H:15])[n:7]1)([H:8])([H:9])[H:10]>>[C-:1]([N+:2]1=[C:3]([H:11])[C:4]([H:10])([H:12])[C:5]([C:6]([H:13])([H:14])[H:15])=[N:7]1)([H:8])[H:9]"
C        2.19501309      -0.55879036       0.21349184
N        1.19240088      -0.18470488      -0.69200898
C        0.78267100       1.11287337      -0.75159361
C       -0.26828276       1.09605326       0.24445856
C       -0.89722153      -0.16495625      -0.17025731
C       -2.26308205      -0.65861104       0.14725300
N        0.03152081      -0.95718168      -0.62931774
H        3.08851818       0.03812445       0.06922466
H        2.37784293      -1.62497093       0.16019612
H        1.02328977       0.38133416       1.40600076
H        1.50379370       1.88235415      -0.97213404
H       -0.91984128       1.96568409       0.30303640
H       -2.99117475      -0.12645816      -0.46882883
H       -2.52869396      -0.47343826       1.18962736
H       -2.32675402      -1.72731194      -0.04914819
15
Frame=16 idx=009081 GeodesicLength=1.0027328896752972 rxn_smarts="[C:1]([n:2]1[c:3]([H:11])[c:4]([H:12])[c:5]([C:6]([H:13])([H:14])[H:15])[n:7]1)([H:8])([H:9])[H:10]>>[C-:1]([N+:2]1=[C:3]([H:11])[C:4]([H:10])([H:12])[C:5]([C:6]([H:13])([H:14])[H:15])=[N:7]1)([H:8])[H:9]"
C        2.20540461      -0.56000364       0.21611046
N        1.19261252      -0.18201063      -0.67845006
C        0.77843617       1.11358272      -0.74460630
C       -0.27560674       1.09899925       0.25203397
C       -0.90302673      -0.15901238      -0.17181180
C       -2.26777892      -0.65838573       0.14257818
N        0.03254989      -0.95250170      -0.61953855
H        3.10252564       0.02466492       0.04616085
H        2.37923628      -1.62726371       0.15691931
H        1.05301424       0.37852285       1.43307885
H        1.49286648       1.88547087      -0.97729128
H       -0.92939355       1.96860369       0.29155661
H       -2.99482464      -0.13227706      -0.47992499
H       -2.54105067      -0.47009995       1.18237237
H       -2.32496458      -1.72828947      -0.04918761
