12
Frame=0 idx=003500 GeodesicLength=0.0 rxn_smarts="[O:1]([C:2]1([H:8])[C:3]([H:9])([H:10])[C:4](=[O:5])[C:6]1([H:11])[H:12])[H:7]>>[O:1]([C:2][C:3]([C:4](=[O:5])[C:6]([H:8])([H:11])[H:12])([H:9])[H:10])[H:7]"
O        1.36817430      -1.34000750       0.68840775
C        0.44766249      -0.99140812      -0.20859532
C       -0.87126595      -0.62355602       0.42762396
C       -1.05596107       0.75031424      -0.19018025
O       -2.07657919       1.21825538      -0.62460934
C        0.32564035       1.22172887      -0.39896178
H        2.16667959      -1.61993881       0.23036842
H        0.72590973      -0.08656498      -0.99798129
H       -0.76429276      -0.53904087       1.51430000
H       -1.67766712      -1.31836591       0.19764833
H        0.50308171       1.98896108      -1.14917725
H        0.90861787       1.33962260       0.51115678
12
Frame=1 idx=003500 GeodesicLength=0.056307640614840976 rxn_smarts="[O:1]([C:2]1([H:8])[C:3]([H:9])([H:10])[C:4](=[O:5])[C:6]1([H:11])[H:12])[H:7]>>[O:1]([C:2][C:3]([C:4](=[O:5])[C:6]([H:8])([H:11])[H:12])([H:9])[H:10])[H:7]"
O        1.36336636      -1.36077023       0.69274120
C        0.45374365      -0.98145462      -0.20374156
C       -0.86980695      -0.62354824       0.42823098
C       -1.05745727       0.75138621      -0.18712857
O       -2.07919183       1.21926878      -0.61770972
C        0.32691006       1.21943860      -0.40193859
H        2.16500094      -1.63370628       0.23612512
H        0.73618416      -0.07704840      -1.01464873
H       -0.76588274      -0.53682831       1.51511058
H       -1.67178877      -1.32241432       0.19511385
H        0.49610100       1.98830223      -1.15244412
H        0.90282139       1.35737458       0.51028957
12
Frame=2 idx=003500 GeodesicLength=0.11260473543259422 rxn_smarts="[O:1]([C:2]1([H:8])[C:3]([H:9])([H:10])[C:4](=[O:5])[C:6]1([H:11])[H:12])[H:7]>>[O:1]([C:2][C:3]([C:4](=[O:5])[C:6]([H:8])([H:11])[H:12])([H:9])[H:10])[H:7]"
O        1.35800019      -1.38248761       0.69665439
C        0.46009067      -0.97126411      -0.19844777
C       -0.86824799      -0.62351318       0.42893560
C       -1.05888910       0.75247514      -0.18398505
O       -2.08172837       1.22014656      -0.61088535
C        0.32822294       1.21721770      -0.40485726
H        2.16330146      -1.64733290       0.24190548
H        0.74655099      -0.06726540      -1.03118249
H       -0.76744945      -0.53460742       1.51601726
H       -1.66568965      -1.32645824       0.19252981
H        0.48905518       1.98751965      -1.15579783
H        0.89678312       1.37556980       0.50911320
12
Frame=3 idx=003500 GeodesicLength=0.1688753902662894 rxn_smarts="[O:1]([C:2]1([H:8])[C:3]([H:9])([H:10])[C:4](=[O:5])[C:6]1([H:11])[H:12])[H:7]>>[O:1]([C:2][C:3]([C:4](=[O:5])[C:6]([H:8])([H:11])[H:12])([H:9])[H:10])[H:7]"
O        1.35201253      -1.40523425       0.70003977
C        0.46669002      -0.96085916      -0.19268266
C       -0.86659718      -0.62345074       0.42974571
C       -1.06024908       0.75358199      -0.18074233
O       -2.08417359       1.22089487      -0.60414520
C        0.32959084       1.21505206      -0.40770853
H        2.16163559      -1.66065135       0.24775430
H        0.75699287      -0.05723310      -1.04757392
H       -0.76899092      -0.53238476       1.51702632
H       -1.65939218      -1.33047792       0.18991115
H        0.48196853       1.98658659      -1.15923596
H        0.89051258       1.39417576       0.50761137
12
Frame=4 idx=003500 GeodesicLength=0.2251015855728782 rxn_smarts="[O:1]([C:2]1([H:8])[C:3]([H:9])([H:10])[C:4](=[O:5])[C:6]1([H:11])[H:12])[H:7]>>[O:1]([C:2][C:3]([C:4](=[O:5])[C:6]([H:8])([H:11])[H:12])([H:9])[H:10])[H:7]"
O        1.34533430      -1.42908324       0.70276766
C        0.47352457      -0.95026587      -0.18641833
C       -0.86486393      -0.62336362       0.43066690
C       -1.06152752       0.75470768      -0.17739006
O       -2.08651032       1.22152631      -0.59748421
C        0.33102722       1.21292476      -0.41048586
H        2.16006284      -1.67347492       0.25374916
H        0.76748637      -0.04697277      -1.06382037
H       -0.77050333      -0.53017345       1.51814145
H       -1.65292320      -1.33445429       0.18726908
H        0.47486559       1.98547533      -1.16275747
H        0.88402743       1.41315409       0.50576207
12
Frame=5 idx=003500 GeodesicLength=0.2813066611317525 rxn_smarts="[O:1]([C:2]1([H:8])[C:3]([H:9])([H:10])[C:4](=[O:5])[C:6]1([H:11])[H:12])[H:7]>>[O:1]([C:2][C:3]([C:4](=[O:5])[C:6]([H:8])([H:11])[H:12])([H:9])[H:10])[H:7]"
O        1.33791236      -1.45410633       0.70468939
C        0.48057979      -0.93951285      -0.17963657
C       -0.86307114      -0.62325690       0.43170537
C       -1.06272720       0.75585630      -0.17391513
O       -2.08874821       1.22206820      -0.59088515
C        0.33255117       1.21081708      -0.41318864
H        2.15867705      -1.68561228       0.26000810
H        0.77801240      -0.03650560      -1.07994108
H       -0.77199278      -0.52799926       1.51938160
H       -1.64633655      -1.33836499       0.18460775
H        0.46777660       1.98416189      -1.16637311
H        0.87736651       1.43245475       0.50354747
12
Frame=6 idx=003500 GeodesicLength=0.3373834414275579 rxn_smarts="[O:1]([C:2]1([H:8])[C:3]([H:9])([H:10])[C:4](=[O:5])[C:6]1([H:11])[H:12])[H:7]>>[O:1]([C:2][C:3]([C:4](=[O:5])[C:6]([H:8])([H:11])[H:12])([H:9])[H:10])[H:7]"
O        1.32964044      -1.48037949       0.70558831
C        0.48781625      -0.92863761      -0.17231269
C       -0.86120887      -0.62313441       0.43286100
C       -1.06381201       0.75702849      -0.17029376
O       -2.09081427       1.22252736      -0.58433282
C        0.33416622       1.20870050      -0.41580510
H        2.15749189      -1.69680366       0.26668855
H        0.78851328      -0.02586877      -1.09591683
H       -0.77342141      -0.52587748       1.52071655
H       -1.63962708      -1.34218809       0.18194416
H        0.46071413       1.98260482      -1.17005619
H        0.87054145       1.45202835       0.50091883
12
Frame=7 idx=003500 GeodesicLength=0.39342309233332184 rxn_smarts="[O:1]([C:2]1([H:8])[C:3]([H:9])([H:10])[C:4](=[O:5])[C:6]1([H:11])[H:12])[H:7]>>[O:1]([C:2][C:3]([C:4](=[O:5])[C:6]([H:8])([H:11])[H:12])([H:9])[H:10])[H:7]"
O        1.32059226      -1.50779409       0.70534709
C        0.49531930      -0.91757166      -0.16439762
C       -0.85925228      -0.62298792       0.43414517
C       -1.06481782       0.75821934      -0.16654361
O       -2.09279388       1.22286040      -0.57784484
C        0.33585157       1.20664367      -0.41834304
H        2.15642915      -1.70747597       0.27388842
H        0.79905904      -0.01497289      -1.11174653
H       -0.77477295      -0.52380210       1.52218727
H       -1.63276029      -1.34594482       0.17927786
H        0.45362793       1.98086638      -1.17384800
H        0.86351797       1.47195968       0.49787782
12
Frame=8 idx=003500 GeodesicLength=0.44942862235134484 rxn_smarts="[O:1]([C:2]1([H:8])[C:3]([H:9])([H:10])[C:4](=[O:5])[C:6]1([H:11])[H:12])[H:7]>>[O:1]([C:2][C:3]([C:4](=[O:5])[C:6]([H:8])([H:11])[H:12])([H:9])[H:10])[H:7]"
O        1.31060365      -1.53661404       0.70362101
C        0.50300345      -0.90642889      -0.15592644
C       -0.85725950      -0.62283617       0.43555035
C       -1.06572503       0.75945048      -0.16261235
O       -2.09466125       1.22319815      -0.57130206
C        0.33765856       1.20454789      -0.42081465
H        2.15573984      -1.71688799       0.28198377
H        0.80955565      -0.00393472      -1.12750993
H       -0.77604402      -0.52185297       1.52379571
H       -1.62587110      -1.34956438       0.17659570
H        0.44658845       1.97884731      -1.17775764
H        0.85641129       1.49207532       0.49437654
12
Frame=9 idx=003500 GeodesicLength=0.5053588169333931 rxn_smarts="[O:1]([C:2]1([H:8])[C:3]([H:9])([H:10])[C:4](=[O:5])[C:6]1([H:11])[H:12])[H:7]>>[O:1]([C:2][C:3]([C:4](=[O:5])[C:6]([H:8])([H:11])[H:12])([H:9])[H:10])[H:7]"
O        1.29988708      -1.56633015       0.70043811
C        0.51111211      -0.89493714      -0.14669423
C       -0.85505561      -0.62264227       0.43708862
C       -1.06654642       0.76067057      -0.15857953
O       -2.09647088       1.22329317      -0.56479644
C        0.33947453       1.20263389      -0.42321594
H        2.15485079      -1.72659345       0.29080770
H        0.82019505       0.00751394      -1.14303103
H       -0.77716343      -0.51991776       1.52552606
H       -1.61862239      -1.35317034       0.17389353
H        0.43937821       1.97671303      -1.18182855
H        0.84896098       1.51276650       0.49039172
12
Frame=10 idx=003500 GeodesicLength=0.5611091757587716 rxn_smarts="[O:1]([C:2]1([H:8])[C:3]([H:9])([H:10])[C:4](=[O:5])[C:6]1([H:11])[H:12])[H:7]>>[O:1]([C:2][C:3]([C:4](=[O:5])[C:6]([H:8])([H:11])[H:12])([H:9])[H:10])[H:7]"
O        1.28824553      -1.59718522       0.69533335
C        0.51949740      -0.88325683      -0.13674312
C       -0.85269797      -0.62243706       0.43876710
C       -1.06722761       0.76190065      -0.15435691
O       -2.09810188       1.22324182      -0.55827347
C        0.34135712       1.20076964      -0.42553500
H        2.15392963      -1.73559068       0.30076982
H        0.83081544       0.01921439      -1.15836763
H       -0.77809791      -0.51809501       1.52736637
H       -1.61115344      -1.35668939       0.17119719
H        0.43211404       1.97433402      -1.18601534
H        0.84131965       1.53379368       0.48585765
12
Frame=11 idx=003500 GeodesicLength=0.6169068062477894 rxn_smarts="[O:1]([C:2]1([H:8])[C:3]([H:9])([H:10])[C:4](=[O:5])[C:6]1([H:11])[H:12])[H:7]>>[O:1]([C:2][C:3]([C:4](=[O:5])[C:6]([H:8])([H:11])[H:12])([H:9])[H:10])[H:7]"
O        1.27592022      -1.62889850       0.68825794
C        0.52836422      -0.87123525      -0.12592567
C       -0.85014081      -0.62218874       0.44061778
C       -1.06786379       0.76314376      -0.15000075
O       -2.09976259       1.22298604      -0.55179867
C        0.34325869       1.19908619      -0.42778888
H        2.15282623      -1.74488572       0.31183501
H        0.84160576       0.03132067      -1.17349592
H       -0.77887932      -0.51634232       1.52942441
H       -1.60336946      -1.36015135       0.16848415
H        0.42468246       1.97181455      -1.19042192
H        0.83335838       1.55535065       0.48081252
12
Frame=12 idx=003500 GeodesicLength=0.6727420739308755 rxn_smarts="[O:1]([C:2]1([H:8])[C:3]([H:9])([H:10])[C:4](=[O:5])[C:6]1([H:11])[H:12])[H:7]>>[O:1]([C:2][C:3]([C:4](=[O:5])[C:6]([H:8])([H:11])[H:12])([H:9])[H:10])[H:7]"
O        1.26357124      -1.66008532       0.68018455
C        0.53836879      -0.85814479      -0.11338448
C       -0.84702753      -0.62174244       0.44279903
C       -1.06854956       0.76427023      -0.14580035
O       -2.10160744       1.22178514      -0.54608427
C        0.34493196       1.19809841      -0.42986303
H        2.15019314      -1.75846248       0.32198498
H        0.85320652       0.04439080      -1.18770978
H       -0.77964551      -0.51418157       1.53182023
H       -1.59441817      -1.36384844       0.16581759
H        0.41671132       1.96944452      -1.19513604
H        0.82426524       1.57847593       0.47537156
12
Frame=13 idx=003500 GeodesicLength=0.7282536034987035 rxn_smarts="[O:1]([C:2]1([H:8])[C:3]([H:9])([H:10])[C:4](=[O:5])[C:6]1([H:11])[H:12])[H:7]>>[O:1]([C:2][C:3]([C:4](=[O:5])[C:6]([H:8])([H:11])[H:12])([H:9])[H:10])[H:7]"
O        1.24958514      -1.69327035       0.66814605
C        0.54811497      -0.84543952      -0.10057208
C       -0.84399862      -0.62145559       0.44497877
C       -1.06890760       0.76546960      -0.14105828
O       -2.10301901       1.22105043      -0.53946286
C        0.34692703       1.19666465      -0.43195768
H        2.14841159      -1.76772134       0.33588890
H        0.86416787       0.05716994      -1.20227286
H       -0.78006781      -0.51267783       1.53417712
H       -1.58591391      -1.36719166       0.16301845
H        0.40898777       1.96638750      -1.19994489
H        0.81571258       1.60101416       0.46905937
12
Frame=14 idx=003500 GeodesicLength=0.7838825897998406 rxn_smarts="[O:1]([C:2]1([H:8])[C:3]([H:9])([H:10])[C:4](=[O:5])[C:6]1([H:11])[H:12])[H:7]>>[O:1]([C:2][C:3]([C:4](=[O:5])[C:6]([H:8])([H:11])[H:12])([H:9])[H:10])[H:7]"
O        1.23576212      -1.72541931       0.65493819
C        0.55911132      -0.83157242      -0.08560556
C       -0.84040863      -0.62094312       0.44759514
C       -1.06935054       0.76654485      -0.13649228
O       -2.10465437       1.21927435      -0.53382084
C        0.34870130       1.19594246      -0.43381736
H        2.14492791      -1.78178321       0.34841119
H        0.87606824       0.07087247      -1.21573020
H       -0.78066317      -0.51071439       1.53701558
H       -1.57615838      -1.37076943       0.16029332
H        0.40077496       1.96337388      -1.20512748
H        0.80588924       1.62519388       0.46234030
12
Frame=15 idx=003500 GeodesicLength=0.8394950466788311 rxn_smarts="[O:1]([C:2]1([H:8])[C:3]([H:9])([H:10])[C:4](=[O:5])[C:6]1([H:11])[H:12])[H:7]>>[O:1]([C:2][C:3]([C:4](=[O:5])[C:6]([H:8])([H:11])[H:12])([H:9])[H:10])[H:7]"
O        1.22169052      -1.75690638       0.63985975
C        0.57104623      -0.81682321      -0.06854276
C       -0.83640130      -0.62028446       0.45060360
C       -1.06974949       0.76750589      -0.13195066
O       -2.10629167       1.21672294      -0.52880747
C        0.35041596       1.19563145      -0.43544129
H        2.14020548      -1.79863057       0.36022882
H        0.88861264       0.08512460      -1.22820177
H       -0.78149389      -0.50850678       1.54025242
H       -1.56546411      -1.37445507       0.15757970
H        0.39231236       1.96007326      -1.21064145
H        0.79511726       1.65054834       0.45506111
12
Frame=16 idx=003500 GeodesicLength=0.8950496126961971 rxn_smarts="[O:1]([C:2]1([H:8])[C:3]([H:9])([H:10])[C:4](=[O:5])[C:6]1([H:11])[H:12])[H:7]>>[O:1]([C:2][C:3]([C:4](=[O:5])[C:6]([H:8])([H:11])[H:12])([H:9])[H:10])[H:7]"
O        1.20706331      -1.78811852       0.62183258
C        0.58355499      -0.80158312      -0.04969456
C       -0.83214685      -0.61958787       0.45392382
C       -1.07000964       0.76840391      -0.12722695
O       -2.10778637       1.21380053      -0.52393382
C        0.35222680       1.19540350      -0.43687291
H        2.13478258      -1.81609880       0.37275650
H        0.90143822       0.09956132      -1.24002654
H       -0.78251660      -0.50638840       1.54381542
H       -1.55425795      -1.37808494       0.15480189
H        0.38381206       1.95621498      -1.21644599
H        0.78383945       1.67647741       0.44707058
