11
Frame=0 idx=011504 GeodesicLength=0.0 rxn_smarts="[N:1](=[c:2]1/[c:3]([H:9])[n:4][c:5]([H:10])[c:6]([H:11])[o:7]1)\[H:8]>>[N-:1]([C:2]1=[C:3]([H:9])[N:4]([H:10])[C+:5]=[C:6]([H:11])[O:7]1)[H:8]"
N        2.29997198       0.18416468      -0.04498958
C        1.04025104       0.12090907      -0.01953120
C        0.35556831      -1.17219187      -0.04244123
N       -0.91739503      -1.19773304      -0.01635932
C       -1.79683698      -0.04248077       0.03774010
C       -1.13804502       1.11623963       0.05791316
O        0.23617572       1.21843850       0.02906382
H        2.62571147       1.14739501      -0.02434629
H        0.94822792      -2.07852929      -0.08036971
H       -2.06723344      -1.39459535       0.00529243
H       -1.58639596       2.09838348       0.09802785
11
Frame=1 idx=011504 GeodesicLength=0.03425204505772998 rxn_smarts="[N:1](=[c:2]1/[c:3]([H:9])[n:4][c:5]([H:10])[c:6]([H:11])[o:7]1)\[H:8]>>[N-:1]([C:2]1=[C:3]([H:9])[N:4]([H:10])[C+:5]=[C:6]([H:11])[O:7]1)[H:8]"
N        2.30088587       0.18471670      -0.04987582
C        1.04130084       0.12189280      -0.01587965
C        0.35531540      -1.17051186      -0.02979360
N       -0.91806330      -1.19695507      -0.05312804
C       -1.79417294      -0.04345187       0.00133461
C       -1.13587683       1.11385157       0.07186183
O        0.23722428       1.21983387       0.02552824
H        2.62721673       1.14764969      -0.02579027
H        0.94818950      -2.07661599      -0.07105025
H       -2.07504588      -1.39533421       0.03750683
H       -1.58697367       2.09492438       0.10928613
11
Frame=2 idx=011504 GeodesicLength=0.06891984599026127 rxn_smarts="[N:1](=[c:2]1/[c:3]([H:9])[n:4][c:5]([H:10])[c:6]([H:11])[o:7]1)\[H:8]>>[N-:1]([C:2]1=[C:3]([H:9])[N:4]([H:10])[C+:5]=[C:6]([H:11])[O:7]1)[H:8]"
N        2.30148809       0.18493903      -0.05241626
C        1.04210629       0.12259846      -0.00977507
C        0.35438723      -1.16878938      -0.02537548
N       -0.91830627      -1.19651504      -0.08459436
C       -1.79090891      -0.04438658      -0.03477999
C       -1.13446007       1.11101515       0.07664783
O        0.23815582       1.22073544       0.03300391
H        2.62823522       1.14781546      -0.03280012
H        0.94769936      -2.07490236      -0.06011630
H       -2.08017815      -1.39315931       0.06895817
H       -1.58821861       2.09064914       0.12124766
11
Frame=3 idx=011504 GeodesicLength=0.10335651628443862 rxn_smarts="[N:1](=[c:2]1/[c:3]([H:9])[n:4][c:5]([H:10])[c:6]([H:11])[o:7]1)\[H:8]>>[N-:1]([C:2]1=[C:3]([H:9])[N:4]([H:10])[C+:5]=[C:6]([H:11])[O:7]1)[H:8]"
N        2.30204616       0.18505351      -0.05276021
C        1.04268840       0.12327988      -0.00772629
C        0.35331554      -1.16710530      -0.02451221
N       -0.91847808      -1.19653207      -0.10880722
C       -1.78743372      -0.04568296      -0.06362699
C       -1.13326394       1.10803436       0.07850379
O        0.23881798       1.22154149       0.03717329
H        2.62919877       1.14779510      -0.03427595
H        0.94698453      -2.07321231      -0.05354392
H       -2.08401793      -1.38919025       0.09885612
H       -1.58985772       2.08601854       0.13071958
11
Frame=4 idx=011504 GeodesicLength=0.13807662116712777 rxn_smarts="[N:1](=[c:2]1/[c:3]([H:9])[n:4][c:5]([H:10])[c:6]([H:11])[o:7]1)\[H:8]>>[N-:1]([C:2]1=[C:3]([H:9])[N:4]([H:10])[C+:5]=[C:6]([H:11])[O:7]1)[H:8]"
N        2.30264713       0.18511121      -0.05142002
C        1.04317326       0.12398108      -0.00795128
C        0.35221845      -1.16543224      -0.02534737
N       -0.91864122      -1.19679259      -0.12912372
C       -1.78390181      -0.04722396      -0.08743655
C       -1.13212367       1.10502372       0.07879656
O        0.23933713       1.22234756       0.03863218
H        2.63017109       1.14772198      -0.03366570
H        0.94616763      -2.07155302      -0.04829124
H       -2.08737084      -1.38434076       0.12603733
H       -1.59167715       2.08115700       0.13976981
11
Frame=5 idx=011504 GeodesicLength=0.17295564174117584 rxn_smarts="[N:1](=[c:2]1/[c:3]([H:9])[n:4][c:5]([H:10])[c:6]([H:11])[o:7]1)\[H:8]>>[N-:1]([C:2]1=[C:3]([H:9])[N:4]([H:10])[C+:5]=[C:6]([H:11])[O:7]1)[H:8]"
N        2.30328897       0.18512126      -0.04874556
C        1.04362152       0.12470162      -0.00931401
C        0.35111631      -1.16375629      -0.02702801
N       -0.91877834      -1.19718492      -0.14746168
C       -1.78033165      -0.04891788      -0.10841602
C       -1.13100878       1.10199570       0.07809716
O        0.23979715       1.22315422       0.03888347
H        2.63112551       1.14764950      -0.03326581
H        0.94524577      -2.06992285      -0.04269160
H       -2.09044596      -1.37883711       0.15051202
H       -1.59363051       2.07599676       0.14943004
11
Frame=6 idx=011504 GeodesicLength=0.20792123256510625 rxn_smarts="[N:1](=[c:2]1/[c:3]([H:9])[n:4][c:5]([H:10])[c:6]([H:11])[o:7]1)\[H:8]>>[N-:1]([C:2]1=[C:3]([H:9])[N:4]([H:10])[C+:5]=[C:6]([H:11])[O:7]1)[H:8]"
N        2.30397019       0.18509221      -0.04471993
C        1.04403807       0.12547685      -0.01223608
C        0.35001234      -1.16205244      -0.02955762
N       -0.91892061      -1.19768260      -0.16455006
C       -1.77678371      -0.05075349      -0.12742118
C       -1.12990418       1.09896856       0.07644283
O        0.24020709       1.22399949       0.03763913
H        2.63212547       1.14754410      -0.03269796
H        0.94418819      -2.06828388      -0.03642635
H       -2.09324570      -1.37277636       0.17330226
H       -1.59568715       2.07046756       0.16022495
11
Frame=7 idx=011504 GeodesicLength=0.24291477289205782 rxn_smarts="[N:1](=[c:2]1/[c:3]([H:9])[n:4][c:5]([H:10])[c:6]([H:11])[o:7]1)\[H:8]>>[N-:1]([C:2]1=[C:3]([H:9])[N:4]([H:10])[C+:5]=[C:6]([H:11])[O:7]1)[H:8]"
N        2.30456879       0.18514132      -0.04357798
C        1.04437812       0.12639866      -0.02010647
C        0.34889513      -1.16027242      -0.03381368
N       -0.91930552      -1.19844162      -0.17988925
C       -1.77353605      -0.05288999      -0.14393684
C       -1.12878351       1.09598843       0.07311906
O        0.24054867       1.22494564       0.03222809
H        2.63332762       1.14724258      -0.02370446
H        0.94300444      -2.06656227      -0.02986372
H       -2.09541892      -1.36609754       0.19773558
H       -1.59767877       2.06454721       0.17180969
11
Frame=8 idx=011504 GeodesicLength=0.27797971929581156 rxn_smarts="[N:1](=[c:2]1/[c:3]([H:9])[n:4][c:5]([H:10])[c:6]([H:11])[o:7]1)\[H:8]>>[N-:1]([C:2]1=[C:3]([H:9])[N:4]([H:10])[C+:5]=[C:6]([H:11])[O:7]1)[H:8]"
N        2.30516270       0.18512897      -0.04054918
C        1.04479208       0.12721774      -0.02453355
C        0.34780111      -1.15853369      -0.03705406
N       -0.91943881      -1.19909579      -0.19523825
C       -1.77008712      -0.05497982      -0.16008811
C       -1.12766582       1.09299611       0.07022330
O        0.24092957       1.22580986       0.02951796
H        2.63432625       1.14708308      -0.02117891
H        0.94169888      -2.06483099      -0.02262356
H       -2.09777470      -1.35919608       0.21815757
H       -1.59974414       2.05840060       0.18336680
11
Frame=9 idx=011504 GeodesicLength=0.3130661394253646 rxn_smarts="[N:1](=[c:2]1/[c:3]([H:9])[n:4][c:5]([H:10])[c:6]([H:11])[o:7]1)\[H:8]>>[N-:1]([C:2]1=[C:3]([H:9])[N:4]([H:10])[C+:5]=[C:6]([H:11])[O:7]1)[H:8]"
N        2.30572657       0.18513548      -0.03834528
C        1.04522203       0.12803061      -0.02862230
C        0.34671801      -1.15679466      -0.04029548
N       -0.91951122      -1.19977269      -0.21008445
C       -1.76665579      -0.05714996      -0.17522444
C       -1.12654891       1.09003865       0.06701114
O        0.24131057       1.22667854       0.02672365
H        2.63531857       1.14691592      -0.01845475
H        0.94027491      -2.06305271      -0.01498922
H       -2.10004615      -1.35202936       0.23730731
H       -1.60180860       2.05200019       0.19497383
11
Frame=10 idx=011504 GeodesicLength=0.34817662959431117 rxn_smarts="[N:1](=[c:2]1/[c:3]([H:9])[n:4][c:5]([H:10])[c:6]([H:11])[o:7]1)\[H:8]>>[N-:1]([C:2]1=[C:3]([H:9])[N:4]([H:10])[C+:5]=[C:6]([H:11])[O:7]1)[H:8]"
N        2.30628798       0.18511208      -0.03470742
C        1.04567287       0.12885824      -0.03261067
C        0.34564595      -1.15503176      -0.04372524
N       -0.91950601      -1.20042998      -0.22481540
C       -1.76322471      -0.05935588      -0.18977216
C       -1.12542497       1.08712055       0.06343571
O        0.24169542       1.22756334       0.02381199
H        2.63630164       1.14678411      -0.01750901
H        0.93866663      -2.06120975      -0.00666179
H       -2.10225590      -1.34460845       0.25508708
H       -1.60385890       2.04519751       0.20746693
11
Frame=11 idx=011504 GeodesicLength=0.3833198688779502 rxn_smarts="[N:1](=[c:2]1/[c:3]([H:9])[n:4][c:5]([H:10])[c:6]([H:11])[o:7]1)\[H:8]>>[N-:1]([C:2]1=[C:3]([H:9])[N:4]([H:10])[C+:5]=[C:6]([H:11])[O:7]1)[H:8]"
N        2.30681017       0.18509665      -0.03070220
C        1.04613498       0.12973353      -0.03736343
C        0.34458329      -1.15322390      -0.04760443
N       -0.91948048      -1.20110942      -0.23935569
C       -1.75985945      -0.06164168      -0.20370287
C       -1.12428800       1.08426366       0.05918597
O        0.24207590       1.22849692       0.01996905
H        2.63731103       1.14663019      -0.01630565
H        0.93683863      -2.05924739       0.00251416
H       -2.10430587      -1.33688685       0.27227728
H       -1.60582019       2.03788829       0.22108781
11
Frame=12 idx=011504 GeodesicLength=0.41850398744336703 rxn_smarts="[N:1](=[c:2]1/[c:3]([H:9])[n:4][c:5]([H:10])[c:6]([H:11])[o:7]1)\[H:8]>>[N-:1]([C:2]1=[C:3]([H:9])[N:4]([H:10])[C+:5]=[C:6]([H:11])[O:7]1)[H:8]"
N        2.30725896       0.18510622      -0.02719975
C        1.04659926       0.13068686      -0.04405208
C        0.34352528      -1.15135437      -0.05233555
N       -0.91953834      -1.20187864      -0.25355637
C       -1.75666745      -0.06407759      -0.21682951
C       -1.12312500       1.08149154       0.05392570
O        0.24244254       1.22951186       0.01408683
H        2.63831862       1.14643027      -0.01249494
H        0.93474809      -2.05708693       0.01256696
H       -2.10602496      -1.32878733       0.28983339
H       -1.60753700       2.02995810       0.23605532
11
Frame=13 idx=011504 GeodesicLength=0.4537304466135872 rxn_smarts="[N:1](=[c:2]1/[c:3]([H:9])[n:4][c:5]([H:10])[c:6]([H:11])[o:7]1)\[H:8]>>[N-:1]([C:2]1=[C:3]([H:9])[N:4]([H:10])[C+:5]=[C:6]([H:11])[O:7]1)[H:8]"
N        2.30761816       0.18515138      -0.02459918
C        1.04707627       0.13171638      -0.05287269
C        0.34247217      -1.14941940      -0.05800025
N       -0.91970239      -1.20275009      -0.26751653
C       -1.75366461      -0.06666964      -0.22931014
C       -1.12192705       1.07882266       0.04751354
O        0.24280080       1.23061429       0.00588865
H        2.63922324       1.14619674      -0.00561529
H        0.93232027      -2.05463860       0.02390104
H       -2.10735642      -1.32025193       0.30785118
H       -1.60886043       2.02122822       0.25275966
11
Frame=14 idx=011504 GeodesicLength=0.4889771651490205 rxn_smarts="[N:1](=[c:2]1/[c:3]([H:9])[n:4][c:5]([H:10])[c:6]([H:11])[o:7]1)\[H:8]>>[N-:1]([C:2]1=[C:3]([H:9])[N:4]([H:10])[C+:5]=[C:6]([H:11])[O:7]1)[H:8]"
N        2.30784485       0.18524955      -0.02299963
C        1.04756146       0.13281200      -0.06410069
C        0.34142548      -1.14740684      -0.06480058
N       -0.92001607      -1.20372248      -0.28129015
C       -1.75088673      -0.06942889      -0.24111084
C       -1.12068245       1.07625244       0.03992455
O        0.24313809       1.23179384      -0.00510940
H        2.63985365       1.14591199       0.00489697
H        0.92948543      -2.05177009       0.03664694
H       -2.10816558      -1.31122629       0.32658039
H       -1.60955812       2.01153478       0.27136244
11
Frame=15 idx=011504 GeodesicLength=0.5242974520584781 rxn_smarts="[N:1](=[c:2]1/[c:3]([H:9])[n:4][c:5]([H:10])[c:6]([H:11])[o:7]1)\[H:8]>>[N-:1]([C:2]1=[C:3]([H:9])[N:4]([H:10])[C+:5]=[C:6]([H:11])[O:7]1)[H:8]"
N        2.30792789       0.18544122      -0.02244972
C        1.04806472       0.13395910      -0.07737433
C        0.34039093      -1.14533672      -0.07259894
N       -0.92047830      -1.20479616      -0.29487431
C       -1.74833806      -0.07235447      -0.25213797
C       -1.11939295       1.07377850       0.03140627
O        0.24344525       1.23304989      -0.01895475
H        2.64003196       1.14555989       0.01897557
H        0.92624212      -2.04840796       0.05051468
H       -2.10847386      -1.30177536       0.34596524
H       -1.60941969       2.00088207       0.29152827
11
Frame=16 idx=011504 GeodesicLength=0.5596689686245496 rxn_smarts="[N:1](=[c:2]1/[c:3]([H:9])[n:4][c:5]([H:10])[c:6]([H:11])[o:7]1)\[H:8]>>[N-:1]([C:2]1=[C:3]([H:9])[N:4]([H:10])[C+:5]=[C:6]([H:11])[O:7]1)[H:8]"
N        2.30786021       0.18576068      -0.02290600
C        1.04857113       0.13511377      -0.09171571
C        0.33937335      -1.14325891      -0.08097209
N       -0.92104262      -1.20594706      -0.30817953
C       -1.74596768      -0.07542728      -0.26220626
C       -1.11806751       1.07134771       0.02264051
O        0.24369954       1.23432967      -0.03474824
H        2.63957992       1.14507971       0.03589557
H        0.92272940      -2.04459682       0.06446854
H       -2.10831797      -1.29203053       0.36586145
H       -1.60841777       1.98962908       0.31186176
