17
Frame=0 idx=010769 GeodesicLength=0.0 rxn_smarts="[O:1]=[C:2]([C:3]([C:4]([C:5]1([H:13])[C:6]([H:14])([H:15])[C:7]1([H:16])[H:17])([H:11])[H:12])([H:9])[H:10])[H:8]>>[O:1]=[C:2]([C:3]([C:4]([C:5](=[C:7]([H:16])[H:17])[H:13])([H:11])[H:12])([H:9])[H:10])[C:6]([H:8])([H:14])[H:15]"
O        0.54498784      -1.27424794       1.61359305
C        0.68496757      -1.07005056       0.35483729
C        1.43151963       0.18960550      -0.08045137
C        0.50147493       1.38005158       0.33731474
C       -0.84494389       1.20318772      -0.24375179
C       -0.45139059      -1.29256691      -0.54597332
C       -1.67991653       0.22786545       0.19131586
H        1.15919053      -1.96680191      -0.26719534
H        2.37426829       0.27941025       0.45701681
H        1.63163030       0.21163389      -1.15606997
H        0.94738964       2.32642900       0.03199606
H        0.44565437       1.32386768       1.42708593
H       -1.11489337       1.77951191      -1.12554196
H       -0.32303760      -1.10773578      -1.60906639
H       -1.16100975      -2.07340073      -0.28489685
H       -2.65450325       0.09726980      -0.26472214
H       -1.49138814      -0.23402897       1.16450934
17
Frame=1 idx=010769 GeodesicLength=0.14945947014214506 rxn_smarts="[O:1]=[C:2]([C:3]([C:4]([C:5]1([H:13])[C:6]([H:14])([H:15])[C:7]1([H:16])[H:17])([H:11])[H:12])([H:9])[H:10])[H:8]>>[O:1]=[C:2]([C:3]([C:4]([C:5](=[C:7]([H:16])[H:17])[H:13])([H:11])[H:12])([H:9])[H:10])[C:6]([H:8])([H:14])[H:15]"
O        0.57799729      -1.27488805       1.62400536
C        0.71208431      -1.07365589       0.36927691
C        1.43784576       0.19434357      -0.07430483
C        0.49906987       1.37411434       0.34417171
C       -0.84092835       1.19219509      -0.25453345
C       -0.45719584      -1.29181312      -0.55195280
C       -1.69620057       0.23563050       0.19095191
H        1.16345002      -1.97426443      -0.28907704
H        2.38926800       0.29613157       0.44545447
H        1.62978136       0.20836796      -1.15171737
H        0.94438241       2.32548937       0.05434309
H        0.42912108       1.31614777       1.43301444
H       -1.09529202       1.76298284      -1.14429850
H       -0.34470195      -1.11730476      -1.61858951
H       -1.15469160      -2.08165660      -0.28517119
H       -2.67395133       0.12289671      -0.26286872
H       -1.52003844      -0.21471687       1.17129552
17
Frame=2 idx=010769 GeodesicLength=0.2989973783701836 rxn_smarts="[O:1]=[C:2]([C:3]([C:4]([C:5]1([H:13])[C:6]([H:14])([H:15])[C:7]1([H:16])[H:17])([H:11])[H:12])([H:9])[H:10])[H:8]>>[O:1]=[C:2]([C:3]([C:4]([C:5](=[C:7]([H:16])[H:17])[H:13])([H:11])[H:12])([H:9])[H:10])[C:6]([H:8])([H:14])[H:15]"
O        0.61274159      -1.27550795       1.63466653
C        0.74083719      -1.07740730       0.38393308
C        1.44435405       0.19913267      -0.06834120
C        0.49651116       1.36760923       0.35139351
C       -0.83675890       1.18068160      -0.26504163
C       -0.46321407      -1.29136303      -0.55799352
C       -1.71280561       0.24364272       0.18968502
H        1.16760319      -1.98129460      -0.31078912
H        2.40425927       0.31363828       0.43287703
H        1.62766788       0.20499484      -1.14750907
H        0.94068029       2.32410877       0.07756142
H        0.41238697       1.30721625       1.43908133
H       -1.07538760       1.74655485      -1.16206585
H       -0.36736077      -1.12779753      -1.62800511
H       -1.14789170      -2.09013132      -0.28448064
H       -2.69326156       0.15007734      -0.26247053
H       -1.55036137      -0.19415483       1.17749875
17
Frame=3 idx=010769 GeodesicLength=0.44861360034264297 rxn_smarts="[O:1]=[C:2]([C:3]([C:4]([C:5]1([H:13])[C:6]([H:14])([H:15])[C:7]1([H:16])[H:17])([H:11])[H:12])([H:9])[H:10])[H:8]>>[O:1]=[C:2]([C:3]([C:4]([C:5](=[C:7]([H:16])[H:17])[H:13])([H:11])[H:12])([H:9])[H:10])[C:6]([H:8])([H:14])[H:15]"
O        0.64939540      -1.27611419       1.64554041
C        0.77137288      -1.08129000       0.39877173
C        1.45105099       0.20397979      -0.06257707
C        0.49377580       1.36047099       0.35901891
C       -0.83244504       1.16862298      -0.27526402
C       -0.46947353      -1.29123471      -0.56409671
C       -1.72976390       0.25191547       0.18747273
H        1.17164285      -1.98789588      -0.33230033
H        2.41919230       0.33199810       0.41922226
H        1.62528103       0.20151413      -1.14345019
H        0.93623046       2.32222461       0.10175637
H        0.39542404       1.29692239       1.44531283
H       -1.05515096       1.73022604      -1.17884912
H       -0.39109501      -1.13924964      -1.63726587
H       -1.14058296      -2.09880292      -0.28274350
H       -2.71239224       0.17890000      -0.26359594
H       -1.58246212      -0.17218716       1.18304749
17
Frame=4 idx=010769 GeodesicLength=0.598307318886253 rxn_smarts="[O:1]=[C:2]([C:3]([C:4]([C:5]1([H:13])[C:6]([H:14])([H:15])[C:7]1([H:16])[H:17])([H:11])[H:12])([H:9])[H:10])[H:8]>>[O:1]=[C:2]([C:3]([C:4]([C:5](=[C:7]([H:16])[H:17])[H:13])([H:11])[H:12])([H:9])[H:10])[C:6]([H:8])([H:14])[H:15]"
O        0.68814950      -1.27670939       1.65658253
C        0.80385514      -1.08528479       0.41375100
C        1.45794204       0.20889253      -0.05703076
C        0.49083762       1.35262472       0.36709059
C       -0.82799910       1.15599219      -0.28518524
C       -0.47600629      -1.29144778      -0.57026167
C       -1.74710979       0.26046570       0.18426927
H        1.17555799      -1.99407201      -0.35357193
H        2.43400708       0.35128768       0.40442323
H        1.62260977       0.19792494      -1.13954644
H        0.93097188       2.31976253       0.12704677
H        0.37820191       1.28509296       1.45173556
H       -1.03455151       1.71398983      -1.19464674
H       -0.41599051      -1.15170137      -1.64631613
H       -1.13273749      -2.10764116      -0.27987135
H       -2.73128775       0.20945606      -0.26632430
H       -1.61645050      -0.14863267       1.18785563
17
Frame=5 idx=010769 GeodesicLength=0.74807696090786 rxn_smarts="[O:1]=[C:2]([C:3]([C:4]([C:5]1([H:13])[C:6]([H:14])([H:15])[C:7]1([H:16])[H:17])([H:11])[H:12])([H:9])[H:10])[H:8]>>[O:1]=[C:2]([C:3]([C:4]([C:5](=[C:7]([H:16])[H:17])[H:13])([H:11])[H:12])([H:9])[H:10])[C:6]([H:8])([H:14])[H:15]"
O        0.72921222      -1.27729072       1.66773836
C        0.83846675      -1.08936645       0.42881952
C        1.46503110       0.21387929      -0.05172240
C        0.48766697       1.34398424       0.37565561
C       -0.82343678       1.14275947      -0.29478660
C       -0.48284890      -1.29202357      -0.57648564
C       -1.76487977       0.26931502       0.18002571
H        1.17933289      -1.99982686      -0.37455514
H        2.44863115       0.37159355       0.38840813
H        1.61964043       0.19422573      -1.13580406
H        0.92483456       2.31663386       0.15356758
H        0.36068766       1.27152816       1.45837599
H       -1.01355770       1.69783538      -1.20944967
H       -0.44213879      -1.16519814      -1.65509088
H       -1.12432654      -2.11660619      -0.27576874
H       -2.74987634       0.24183806      -0.27074703
H       -1.65243893      -0.12328083       1.19181927
17
Frame=6 idx=010769 GeodesicLength=0.8979185948221451 rxn_smarts="[O:1]=[C:2]([C:3]([C:4]([C:5]1([H:13])[C:6]([H:14])([H:15])[C:7]1([H:16])[H:17])([H:11])[H:12])([H:9])[H:10])[H:8]>>[O:1]=[C:2]([C:3]([C:4]([C:5](=[C:7]([H:16])[H:17])[H:13])([H:11])[H:12])([H:9])[H:10])[C:6]([H:8])([H:14])[H:15]"
O        0.77280894      -1.27784792       1.67894108
C        0.87541088      -1.09350188       0.44391423
C        1.47231999       0.21894904      -0.04667370
C        0.48423069       1.33445040       0.38476487
C       -0.81877792       1.12889217      -0.30404491
C       -0.49004369      -1.29298427      -0.58276437
C       -1.78311187       0.27849045       0.17469171
H        1.18294561      -2.00516514      -0.39518721
H        2.46297581       0.39301321       0.37110255
H        1.61635745       0.19041365      -1.13222908
H        0.91773939       2.31273208       0.18146922
H        0.34284659       1.25599827       1.46525854
H       -0.99213927       1.68174846      -1.22323859
H       -0.46963632      -1.17978907      -1.66351500
H       -1.11532100      -2.12564661      -0.27033547
H       -2.76806713       0.27613459      -0.27696847
H       -1.69053814      -0.09588743       1.19481460
17
Frame=7 idx=010769 GeodesicLength=1.047827150115213 rxn_smarts="[O:1]=[C:2]([C:3]([C:4]([C:5]1([H:13])[C:6]([H:14])([H:15])[C:7]1([H:16])[H:17])([H:11])[H:12])([H:9])[H:10])[H:8]>>[O:1]=[C:2]([C:3]([C:4]([C:5](=[C:7]([H:16])[H:17])[H:13])([H:11])[H:12])([H:9])[H:10])[C:6]([H:8])([H:14])[H:15]"
O        0.81918372      -1.27836108       1.69010947
C        0.91491347      -1.09764743       0.45895825
C        1.47980759       0.22411158      -0.04190813
C        0.48049161       1.32390876       0.39447435
C       -0.81404726       1.11435529      -0.31293256
C       -0.49763975      -1.29435329      -0.58909173
C       -1.80184573       0.28802648       0.16821576
H        1.18636725      -2.01009185      -0.41538752
H        2.47693354       0.41565648       0.35242800
H        1.61274201       0.18648457      -1.12882761
H        0.90959715       2.30792942       0.21092299
H        0.32464150       1.23823732       1.47240502
H       -0.97026658       1.66571180      -1.23598418
H       -0.49858649      -1.19552783      -1.67150229
H       -1.10569112      -2.13469778      -0.26346510
H       -2.78574796       0.31242769      -0.28510805
H       -1.73085294      -0.06617009       1.19669332
17
Frame=8 idx=010769 GeodesicLength=1.197797841688607 rxn_smarts="[O:1]=[C:2]([C:3]([C:4]([C:5]1([H:13])[C:6]([H:14])([H:15])[C:7]1([H:16])[H:17])([H:11])[H:12])([H:9])[H:10])[H:8]>>[O:1]=[C:2]([C:3]([C:4]([C:5](=[C:7]([H:16])[H:17])[H:13])([H:11])[H:12])([H:9])[H:10])[C:6]([H:8])([H:14])[H:15]"
O        0.86859991      -1.27879782       1.70114578
C        0.95722546      -1.10174592       0.47385814
C        1.48748921       0.22937721      -0.03745076
C        0.47640832       1.31222744       0.40484537
C       -0.80927580       1.09911262      -0.32141691
C       -0.50569472      -1.29615495      -0.59546014
C       -1.82112238       0.29796814       0.16054734
H        1.18956116      -2.01461283      -0.43505179
H        2.49037419       0.43964633       0.33230320
H        1.60877177       0.18243210      -1.12560584
H        0.90030806       2.30207215       0.24212378
H        0.30603294       1.21793767       1.47983284
H       -0.94791231       1.64970684      -1.24764586
H       -0.52910045      -1.21247204      -1.67895517
H       -1.09540644      -2.14367986      -0.25504638
H       -2.80278354       0.35078670      -0.29530285
H       -1.77347536      -0.03380378       1.19727926
17
Frame=9 idx=010769 GeodesicLength=1.347816717360358 rxn_smarts="[O:1]=[C:2]([C:3]([C:4]([C:5]1([H:13])[C:6]([H:14])([H:15])[C:7]1([H:16])[H:17])([H:11])[H:12])([H:9])[H:10])[H:8]>>[O:1]=[C:2]([C:3]([C:4]([C:5](=[C:7]([H:16])[H:17])[H:13])([H:11])[H:12])([H:9])[H:10])[C:6]([H:8])([H:14])[H:15]"
O        0.92133106      -1.27910568       1.71193468
C        1.00261945      -1.10571937       0.48850598
C        1.49535326       0.23475791      -0.03332636
C        0.47193537       1.29925458       0.41594310
C       -0.80449994       1.08312506      -0.32946196
C       -0.51427365      -1.29841572      -0.60186463
C       -1.84097905       0.30836851       0.15163632
H        1.19247624      -2.01872918      -0.45403940
H        2.50313839       0.46511670       0.31064253
H        1.60441956       0.17824836      -1.12256518
H        0.88976181       2.29497481       0.27528924
H        0.28698126       1.19474362       1.48754803
H       -0.92505225       1.63371421      -1.25816919
H       -0.56129747      -1.23067700      -1.68576390
H       -1.08443701      -2.15249530      -0.24497260
H       -2.81900920       0.39126108      -0.30769313
H       -1.81846784       0.00157740       1.19635648
17
Frame=10 idx=010769 GeodesicLength=1.497880895512833 rxn_smarts="[O:1]=[C:2]([C:3]([C:4]([C:5]1([H:13])[C:6]([H:14])([H:15])[C:7]1([H:16])[H:17])([H:11])[H:12])([H:9])[H:10])[H:8]>>[O:1]=[C:2]([C:3]([C:4]([C:5](=[C:7]([H:16])[H:17])[H:13])([H:11])[H:12])([H:9])[H:10])[C:6]([H:8])([H:14])[H:15]"
O        0.97769274      -1.27921597       1.72233171
C        1.05140447      -1.10946751       0.50276141
C        1.50338396       0.24026702      -0.02956559
C        0.46702173       1.28481111       0.42784444
C       -0.79976327       1.06635634      -0.33702441
C       -0.52346039      -1.30116120      -0.60828822
C       -1.86145769       0.31930525       0.14143578
H        1.19505541      -2.02244592      -0.47217641
H        2.51503302       0.49222794       0.28735579
H        1.59965069       0.17392227      -1.11971307
H        0.87783630       2.28641078       0.31068659
H        0.26744012       1.16822897       1.49555082
H       -0.90166165       1.61772173      -1.26748395
H       -0.59531690      -1.25021289      -1.69179716
H       -1.07275441      -2.16102317      -0.23311421
H       -2.83423262       0.43387358      -0.32247717
H       -1.86587151       0.04040169       1.19367365
17
Frame=11 idx=010769 GeodesicLength=1.6479822044196626 rxn_smarts="[O:1]=[C:2]([C:3]([C:4]([C:5]1([H:13])[C:6]([H:14])([H:15])[C:7]1([H:16])[H:17])([H:11])[H:12])([H:9])[H:10])[H:8]>>[O:1]=[C:2]([C:3]([C:4]([C:5](=[C:7]([H:16])[H:17])[H:13])([H:11])[H:12])([H:9])[H:10])[C:6]([H:8])([H:14])[H:15]"
O        1.03801452      -1.27903026       1.73216543
C        1.10391505      -1.11285643       0.51645962
C        1.51155565       0.24591986      -0.02619825
C        0.46161113       1.26868964       0.44063070
C       -0.79511652       1.04877101      -0.34405795
C       -0.53335213      -1.30441710      -0.61471681
C       -1.88259266       0.33087463       0.12990442
H        1.19722390      -2.02576362      -0.48923104
H        2.52582040       0.52115602       0.26235326
H        1.59442440       0.16943962      -1.11705135
H        0.86439718       2.27610337       0.34861913
H        0.24736183       1.13789703       1.50381838
H       -0.87771954       1.60172137      -1.27550365
H       -0.63131207      -1.27114584      -1.69690833
H       -1.06033246      -2.16911607      -0.21934837
H       -2.84822917       0.47860758      -0.33986559
H       -1.91566951       0.08314919       1.18893041
17
Frame=12 idx=010769 GeodesicLength=1.798114035327255 rxn_smarts="[O:1]=[C:2]([C:3]([C:4]([C:5]1([H:13])[C:6]([H:14])([H:15])[C:7]1([H:16])[H:17])([H:11])[H:12])([H:9])[H:10])[H:8]>>[O:1]=[C:2]([C:3]([C:4]([C:5](=[C:7]([H:16])[H:17])[H:13])([H:11])[H:12])([H:9])[H:10])[C:6]([H:8])([H:14])[H:15]"
O        1.10263725      -1.27841176       1.74123408
C        1.16051112      -1.11570915       0.52940550
C        1.51983287       0.25173332      -0.02325271
C        0.45564310       1.25065047       0.45438638
C       -0.79061932       1.03033743      -0.35051323
C       -0.54406446      -1.30820678      -0.62114159
C       -1.90440949       0.34319785       0.11701398
H        1.19888992      -2.02867944      -0.50489641
H        2.53521130       0.55209411       0.23555161
H        1.58869641       0.16478061      -1.11457681
H        0.84930127       2.26371419       0.38942983
H        0.22669883       1.10317102       1.51229638
H       -0.85321181       1.58571354      -1.28212517
H       -0.66945267      -1.29353450      -1.70093861
H       -1.04714982      -2.17659547      -0.20356536
H       -2.86074650       0.52539260      -0.36008723
H       -1.96776801       0.13035195       1.18177937
17
Frame=13 idx=010769 GeodesicLength=1.9482729193597865 rxn_smarts="[O:1]=[C:2]([C:3]([C:4]([C:5]1([H:13])[C:6]([H:14])([H:15])[C:7]1([H:16])[H:17])([H:11])[H:12])([H:9])[H:10])[H:8]>>[O:1]=[C:2]([C:3]([C:4]([C:5](=[C:7]([H:16])[H:17])[H:13])([H:11])[H:12])([H:9])[H:10])[C:6]([H:8])([H:14])[H:15]"
O        1.17190398      -1.27717303       1.74930401
C        1.22157299      -1.11779299       0.54137135
C        1.52816789       0.25772604      -0.02075403
C        0.44905323       1.23041775       0.46919505
C       -0.78634061       1.01103018      -0.35634049
C       -0.55573437      -1.31254983      -0.62756581
C       -1.92691812       0.35642485       0.10275612
H        1.19994264      -2.03118719      -0.51876435
H        2.54285322       0.58525199       0.20688195
H        1.58242029       0.15991718      -1.11227903
H        0.83239754       2.24882961       0.43350242
H        0.20540570       1.06338440       1.52088233
H       -0.82813380       1.56971063      -1.28722901
H       -0.70992585      -1.31742237      -1.70372216
H       -1.03319376      -2.18324766      -0.18568362
H       -2.87150799       0.57409335      -0.38338124
H       -2.02196297       0.18258709       1.17182651
17
Frame=14 idx=010769 GeodesicLength=2.098460249398352 rxn_smarts="[O:1]=[C:2]([C:3]([C:4]([C:5]1([H:13])[C:6]([H:14])([H:15])[C:7]1([H:16])[H:17])([H:11])[H:12])([H:9])[H:10])[H:8]>>[O:1]=[C:2]([C:3]([C:4]([C:5](=[C:7]([H:16])[H:17])[H:13])([H:11])[H:12])([H:9])[H:10])[C:6]([H:8])([H:14])[H:15]"
O        1.24614745      -1.27505827       1.75610889
C        1.28749315      -1.11880305       0.55209562
C        1.53649848       0.26391781      -0.01872095
C        0.44177393       1.20767444       0.48513444
C       -0.78235763       0.99083228      -0.36149279
C       -0.56852241      -1.31746136      -0.63401322
C       -1.95010465       0.37073784       0.08714893
H        1.20025340      -2.03327066      -0.53029211
H        2.54831853       0.62085252       0.17629625
H        1.57554955       0.15480849      -1.11013617
H        0.81353140       2.23094201       0.48125858
H        0.18344243       1.01777203       1.52940368
H       -0.80249198       1.55374230      -1.29067816
H       -0.75294143      -1.34282926      -1.70509260
H       -1.01846319      -2.18881929      -0.16566845
H       -2.88021851       0.62450148      -0.40998364
H       -2.07790852       0.24046070       1.15863171
17
Frame=15 idx=010769 GeodesicLength=2.2486892017018523 rxn_smarts="[O:1]=[C:2]([C:3]([C:4]([C:5]1([H:13])[C:6]([H:14])([H:15])[C:7]1([H:16])[H:17])([H:11])[H:12])([H:9])[H:10])[H:8]>>[O:1]=[C:2]([C:3]([C:4]([C:5](=[C:7]([H:16])[H:17])[H:13])([H:11])[H:12])([H:9])[H:10])[C:6]([H:8])([H:14])[H:15]"
O        1.32566276      -1.27171809       1.76135872
C        1.35865777      -1.11834122       0.56129060
C        1.54474677       0.27032915      -0.01716152
C        0.43373713       1.18206146       0.50226251
C       -0.77875610       0.96973623      -0.36593347
C       -0.58261373      -1.32294980      -0.64054889
C       -1.97392112       0.38634952       0.07025004
H        1.19967315      -2.03490168      -0.53875198
H        2.55109310       0.65912409       0.14378586
H        1.56804684       0.14939369      -1.10810968
H        0.79254880       2.20943371       0.53314154
H        0.16078337       0.96547332       1.53758320
H       -0.77631060       1.53785437      -1.29232463
H       -0.79872797      -1.36973209      -1.70490382
H       -1.00298142      -2.19301684      -0.14357468
H       -2.88657795       0.67633551      -0.44008852
H       -2.13506079       0.30456868       1.14172471
17
Frame=16 idx=010769 GeodesicLength=2.3989865462381896 rxn_smarts="[O:1]=[C:2]([C:3]([C:4]([C:5]1([H:13])[C:6]([H:14])([H:15])[C:7]1([H:16])[H:17])([H:11])[H:12])([H:9])[H:10])[H:8]>>[O:1]=[C:2]([C:3]([C:4]([C:5](=[C:7]([H:16])[H:17])[H:13])([H:11])[H:12])([H:9])[H:10])[C:6]([H:8])([H:14])[H:15]"
O        1.41067095      -1.26667380       1.76475537
C        1.43541716      -1.11588908       0.56865671
C        1.55281811       0.27698057      -0.01606899
C        0.42487736       1.15317821       0.52059876
C       -0.77562653       0.94774348      -0.36964626
C       -0.59821424      -1.32901538      -0.64730505
C       -1.99827251       0.40349857       0.05216812
H        1.19803293      -2.03602691      -0.54316588
H        2.55056686       0.70028390       0.10939429
H        1.55989524       0.14358140      -1.10613793
H        0.76930447       2.18355769       0.58958779
H        0.13742818       0.90554387       1.54499474
H       -0.74963312       1.52210695      -1.29201770
H       -0.84753146      -1.39804280      -1.70305620
H       -0.98681391      -2.19550603      -0.11959629
H       -2.89029413       0.72925849      -0.47379185
H       -2.19262537       0.37542087       1.12063035
