10
Frame=0 idx=007947 GeodesicLength=0.0 rxn_smarts="[O:1]([c:2]1[c:3]([H:9])[n:4][n:5][c:6]([H:10])[n:7]1)[H:8]>>[O:1]([C:2]1=[C:3]([H:9])[N-:4][N:5]=[C:6]=[N+:7]1[H:10])[H:8]"
O        1.94594400      -0.43420805       0.20279978
C        0.66960412      -0.09496150       0.11012810
C        0.25875160       1.23398210       0.03300135
N       -1.00869142       1.54275777      -0.17209420
N       -1.94351252       0.62091589      -0.35493341
C       -1.62350927      -0.65904161      -0.16223671
N       -0.29896411      -0.98954462       0.12325385
H        2.02081330      -1.39118019       0.29434150
H        0.96252412       2.05054434       0.13699564
H       -0.98295983      -1.87926412      -0.21125589
10
Frame=1 idx=007947 GeodesicLength=0.03142573839422674 rxn_smarts="[O:1]([c:2]1[c:3]([H:9])[n:4][n:5][c:6]([H:10])[n:7]1)[H:8]>>[O:1]([C:2]1=[C:3]([H:9])[N-:4][N:5]=[C:6]=[N+:7]1[H:10])[H:8]"
O        1.94496031      -0.43384915       0.19865508
C        0.66784951      -0.09430578       0.11411911
C        0.25844362       1.23490055       0.03452343
N       -1.00785608       1.54275215      -0.17825001
N       -1.93908080       0.61766329      -0.36255024
C       -1.62376097      -0.65873062      -0.13970202
N       -0.29958105      -0.98998692       0.13530774
H        2.02016332      -1.39031674       0.29491439
H        0.96303373       2.05093776       0.13629036
H       -0.98417159      -1.87906454      -0.23330785
10
Frame=2 idx=007947 GeodesicLength=0.06287352397581404 rxn_smarts="[O:1]([c:2]1[c:3]([H:9])[n:4][n:5][c:6]([H:10])[n:7]1)[H:8]>>[O:1]([C:2]1=[C:3]([H:9])[N-:4][N:5]=[C:6]=[N+:7]1[H:10])[H:8]"
O        1.94392753      -0.43350354       0.19496658
C        0.66610782      -0.09363510       0.11850461
C        0.25815242       1.23578733       0.03581671
N       -1.00715964       1.54263548      -0.18357328
N       -1.93497685       0.61432256      -0.36832801
C       -1.62334511      -0.65854216      -0.12042915
N       -0.30010748      -0.99046104       0.14680067
H        2.01951111      -1.38947458       0.29560869
H        0.96363927       2.05130854       0.13463904
H       -0.98574906      -1.87843749      -0.25400586
10
Frame=3 idx=007947 GeodesicLength=0.09434709581789691 rxn_smarts="[O:1]([c:2]1[c:3]([H:9])[n:4][n:5][c:6]([H:10])[n:7]1)[H:8]>>[O:1]([C:2]1=[C:3]([H:9])[N-:4][N:5]=[C:6]=[N+:7]1[H:10])[H:8]"
O        1.94284903      -0.43316038       0.19162641
C        0.66438339      -0.09293505       0.12315188
C        0.25789011       1.23666811       0.03683705
N       -1.00649789       1.54243759      -0.18871265
N       -1.93100516       0.61090059      -0.37331377
C       -1.62246631      -0.65844172      -0.10346194
N       -0.30059406      -0.99089112       0.15817031
H        2.01886261      -1.38871743       0.29566360
H        0.96418561       2.05169578       0.13311192
H       -0.98760733      -1.87755638      -0.27307280
10
Frame=4 idx=007947 GeodesicLength=0.12584725469809724 rxn_smarts="[O:1]([c:2]1[c:3]([H:9])[n:4][n:5][c:6]([H:10])[n:7]1)[H:8]>>[O:1]([C:2]1=[C:3]([H:9])[N-:4][N:5]=[C:6]=[N+:7]1[H:10])[H:8]"
O        1.94156478      -0.43264952       0.19052999
C        0.66252807      -0.09205890       0.12951930
C        0.25754198       1.23764269       0.03827766
N       -1.00573519       1.54212575      -0.19455679
N       -1.92681731       0.60726961      -0.37895197
C       -1.62121817      -0.65840988      -0.08839327
N       -0.30121665      -0.99113045       0.17051979
H        2.01814318      -1.38847751       0.29149979
H        0.96463450       2.05222608       0.13157081
H       -0.98942520      -1.87653787      -0.29001531
10
Frame=5 idx=007947 GeodesicLength=0.15737422106449075 rxn_smarts="[O:1]([c:2]1[c:3]([H:9])[n:4][n:5][c:6]([H:10])[n:7]1)[H:8]>>[O:1]([C:2]1=[C:3]([H:9])[N-:4][N:5]=[C:6]=[N+:7]1[H:10])[H:8]"
O        1.94014490      -0.43204670       0.19076450
C        0.66058498      -0.09103947       0.13723594
C        0.25712217       1.23869447       0.04016975
N       -1.00487039       1.54170709      -0.20098688
N       -1.92243247       0.60344730      -0.38514547
C       -1.61973362      -0.65842664      -0.07476051
N       -0.30195311      -0.99121597       0.18362214
H        2.01728446      -1.38856771       0.28433870
H        0.96502171       2.05286491       0.13009174
H       -0.99116862      -1.87541728      -0.30532992
10
Frame=6 idx=007947 GeodesicLength=0.1889425048027444 rxn_smarts="[O:1]([c:2]1[c:3]([H:9])[n:4][n:5][c:6]([H:10])[n:7]1)[H:8]>>[O:1]([C:2]1=[C:3]([H:9])[N-:4][N:5]=[C:6]=[N+:7]1[H:10])[H:8]"
O        1.93854071      -0.43136996       0.19223292
C        0.65851794      -0.08985803       0.14628376
C        0.25664945       1.23980746       0.04225782
N       -1.00376847       1.54112358      -0.20844632
N       -1.91774165       0.59938221      -0.39211431
C       -1.61801880      -0.65843883      -0.06218766
N       -0.30281995      -0.99107410       0.19765220
H        2.01615257      -1.38892846       0.27387324
H        0.96524618       2.05359604       0.12934473
H       -0.99275798      -1.87423992      -0.31889638
10
Frame=7 idx=007947 GeodesicLength=0.22050777800431756 rxn_smarts="[O:1]([c:2]1[c:3]([H:9])[n:4][n:5][c:6]([H:10])[n:7]1)[H:8]>>[O:1]([C:2]1=[C:3]([H:9])[N-:4][N:5]=[C:6]=[N+:7]1[H:10])[H:8]"
O        1.93691362      -0.43073880       0.19377409
C        0.65651469      -0.08865748       0.15500695
C        0.25621073       1.24090799       0.04422389
N       -1.00269181       1.54047725      -0.21549197
N       -1.91307794       0.59529418      -0.39860877
C       -1.61615904      -0.65850349      -0.05057640
N       -0.30364341      -0.99087606       0.21142726
H        2.01482435      -1.38918320       0.26363320
H        0.96548639       2.05428610       0.12849288
H       -0.99437758      -1.87300650      -0.33188114
10
Frame=8 idx=007947 GeodesicLength=0.25207652639584854 rxn_smarts="[O:1]([c:2]1[c:3]([H:9])[n:4][n:5][c:6]([H:10])[n:7]1)[H:8]>>[O:1]([C:2]1=[C:3]([H:9])[N-:4][N:5]=[C:6]=[N+:7]1[H:10])[H:8]"
O        1.93537251      -0.43018480       0.19467658
C        0.65464228      -0.08753218       0.16256055
C        0.25583516       1.24195541       0.04581579
N       -1.00181418       1.53985487      -0.22130130
N       -1.90866892       0.59131470      -0.40396837
C       -1.61418769      -0.65866795      -0.03977981
N       -0.30431860      -0.99073625       0.22430111
H        2.01343376      -1.38920645       0.25565780
H        0.96586340       2.05488320       0.12707432
H       -0.99615773      -1.87168056      -0.34503667
10
Frame=9 idx=007947 GeodesicLength=0.2836459427020514 rxn_smarts="[O:1]([c:2]1[c:3]([H:9])[n:4][n:5][c:6]([H:10])[n:7]1)[H:8]>>[O:1]([C:2]1=[C:3]([H:9])[N-:4][N:5]=[C:6]=[N+:7]1[H:10])[H:8]"
O        1.93390332      -0.42971146       0.19448034
C        0.65287580      -0.08646930       0.16918244
C        0.25548298       1.24296137       0.04725469
N       -1.00110648       1.53925459      -0.22609351
N       -1.90446409       0.58743223      -0.40839912
C       -1.61210989      -0.65892717      -0.02966750
N       -0.30485753      -0.99064847       0.23640802
H        2.01201976      -1.38904393       0.25001413
H        0.96634259       2.05538871       0.12521285
H       -0.99808646      -1.87023656      -0.35839234
10
Frame=10 idx=007947 GeodesicLength=0.3152193081759929 rxn_smarts="[O:1]([c:2]1[c:3]([H:9])[n:4][n:5][c:6]([H:10])[n:7]1)[H:8]>>[O:1]([C:2]1=[C:3]([H:9])[N-:4][N:5]=[C:6]=[N+:7]1[H:10])[H:8]"
O        1.93250777      -0.42932325       0.19287681
C        0.65121717      -0.08546875       0.17492680
C        0.25515325       1.24392872       0.04853107
N       -1.00053295       1.53867376      -0.23013293
N       -1.90045236       0.58363739      -0.41201335
C       -1.60993696      -0.65926934      -0.02007854
N       -0.30525697      -0.99060713       0.24783176
H        2.01063962      -1.38873351       0.24675145
H        0.96686149       2.05582441       0.12322865
H       -1.00020005      -1.86866230      -0.37192171
10
Frame=11 idx=007947 GeodesicLength=0.34680434464633475 rxn_smarts="[O:1]([c:2]1[c:3]([H:9])[n:4][n:5][c:6]([H:10])[n:7]1)[H:8]>>[O:1]([C:2]1=[C:3]([H:9])[N-:4][N:5]=[C:6]=[N+:7]1[H:10])[H:8]"
O        1.93102154      -0.42890145       0.19220476
C        0.64952473      -0.08438731       0.18115346
C        0.25480561       1.24493267       0.04992943
N       -0.99990640       1.53803339      -0.23435522
N       -1.89630770       0.57975192      -0.41590742
C       -1.60766361      -0.65965781      -0.01108084
N       -0.30571141      -0.99043562       0.25964119
H        2.00907630      -1.38852941       0.24191931
H        0.96737162       2.05628692       0.12123022
H       -1.00221067      -1.86709330      -0.38473489
10
Frame=12 idx=007947 GeodesicLength=0.37840566047095037 rxn_smarts="[O:1]([c:2]1[c:3]([H:9])[n:4][n:5][c:6]([H:10])[n:7]1)[H:8]>>[O:1]([C:2]1=[C:3]([H:9])[N-:4][N:5]=[C:6]=[N+:7]1[H:10])[H:8]"
O        1.92943241      -0.42845697       0.19242766
C        0.64778455      -0.08320888       0.18799972
C        0.25442979       1.24598156       0.05153306
N       -0.99918706       1.53731681      -0.23889786
N       -1.89199158       0.57575164      -0.42016789
C       -1.60529941      -0.66008715      -0.00261390
N       -0.30624206      -0.99011564       0.27193198
H        2.00726856      -1.38841436       0.23535528
H        0.96787233       2.05677886       0.11926333
H       -1.00406753      -1.86554587      -0.39683138
10
Frame=13 idx=007947 GeodesicLength=0.4100328254914467 rxn_smarts="[O:1]([c:2]1[c:3]([H:9])[n:4][n:5][c:6]([H:10])[n:7]1)[H:8]>>[O:1]([C:2]1=[C:3]([H:9])[N-:4][N:5]=[C:6]=[N+:7]1[H:10])[H:8]"
O        1.92770071      -0.42798177       0.19404123
C        0.64595685      -0.08189984       0.19578952
C        0.25400270       1.24709648       0.05351919
N       -0.99833547       1.53650258      -0.24386559
N       -1.88742946       0.57159630      -0.42497320
C       -1.60285337      -0.66056286       0.00531791
N       -0.30690230      -0.98961847       0.28490564
H        2.00510774      -1.38837952       0.22631571
H        0.96840706       2.05729320       0.11712002
H       -1.00565446      -1.86404611      -0.40817042
10
Frame=14 idx=007947 GeodesicLength=0.4416845391480735 rxn_smarts="[O:1]([c:2]1[c:3]([H:9])[n:4][n:5][c:6]([H:10])[n:7]1)[H:8]>>[O:1]([C:2]1=[C:3]([H:9])[N-:4][N:5]=[C:6]=[N+:7]1[H:10])[H:8]"
O        1.92580448      -0.42750297       0.19705616
C        0.64402277      -0.08045988       0.20459846
C        0.25351396       1.24826921       0.05597561
N       -0.99734162       1.53557701      -0.24918357
N       -1.88260309       0.56727917      -0.43028091
C       -1.60033009      -0.66109571       0.01273773
N       -0.30770976      -0.98895073       0.29855228
H        2.00252839      -1.38832049       0.21484911
H        0.96902730       2.05777844       0.11459216
H       -1.00691233      -1.86257405      -0.41889702
10
Frame=15 idx=007947 GeodesicLength=0.4733231962878368 rxn_smarts="[O:1]([c:2]1[c:3]([H:9])[n:4][n:5][c:6]([H:10])[n:7]1)[H:8]>>[O:1]([C:2]1=[C:3]([H:9])[N-:4][N:5]=[C:6]=[N+:7]1[H:10])[H:8]"
O        1.92401038      -0.42710828       0.19895822
C        0.64222069      -0.07910488       0.21223434
C        0.25309976       1.24938366       0.05794136
N       -0.99653185       1.53470193      -0.25362972
N       -1.87802515       0.56309106      -0.43466048
C       -1.59773443      -0.66172033       0.01988142
N       -0.30835946      -0.98831788       0.31146628
H        2.00001877      -1.38810983       0.20587629
H        0.96967517       2.05818132       0.11197435
H       -1.00837388      -1.86099676      -0.43004207
10
Frame=16 idx=007947 GeodesicLength=0.5049612462897676 rxn_smarts="[O:1]([c:2]1[c:3]([H:9])[n:4][n:5][c:6]([H:10])[n:7]1)[H:8]>>[O:1]([C:2]1=[C:3]([H:9])[N-:4][N:5]=[C:6]=[N+:7]1[H:10])[H:8]"
O        1.92225542      -0.42676368       0.20047915
C        0.64048723      -0.07777436       0.21932640
C        0.25272907       1.25047597       0.05963712
N       -0.99583179       1.53384945      -0.25756594
N       -1.87356815       0.55896024      -0.43854051
C       -1.59506869      -0.66243232       0.02671200
N       -0.30893545      -0.98765855       0.32407577
H        1.99747736      -1.38783747       0.19797550
H        0.97035426       2.05854012       0.10922603
H       -1.00989926      -1.85935939      -0.44132551
