13
Frame=0 idx=010407 GeodesicLength=0.0 rxn_smarts="[C:1]([c:2]1[c:3]([H:11])[n:4]([H:12])[c:5]([O:6][H:13])[n:7]1)([H:8])([H:9])[H:10]>>[C:1](=[C:2]1[C-:3]([H:11])[N:4]([H:12])[C+:5]([O:6][H:13])[N:7]1[H:10])([H:8])[H:9]"
C        2.08663679       0.64153364       0.09542077
C        0.83588273      -0.11779712      -0.07455954
C        0.22934088      -1.30333463      -0.33716116
N       -1.15553059      -1.08793694      -0.21370992
C       -1.35953398       0.18814201       0.11288986
O       -2.58076492       0.67389434       0.30620772
N       -0.19451907       0.78553077       0.20586942
H        2.49122204       0.96333141      -0.86795072
H        2.85788921       0.11172725       0.65520086
H        0.58550505       1.57916009       0.49048264
H        0.61582060      -2.26836861      -0.61060583
H       -1.88944175      -1.76704558      -0.31491660
H       -2.52250694       1.60116331       0.55283256
13
Frame=1 idx=010407 GeodesicLength=0.07656929839240766 rxn_smarts="[C:1]([c:2]1[c:3]([H:11])[n:4]([H:12])[c:5]([O:6][H:13])[n:7]1)([H:8])([H:9])[H:10]>>[C:1](=[C:2]1[C-:3]([H:11])[N:4]([H:12])[C+:5]([O:6][H:13])[N:7]1[H:10])([H:8])[H:9]"
C        2.08342739       0.63424159       0.09739821
C        0.83219961      -0.10926184      -0.11167856
C        0.22636284      -1.30308736      -0.34396016
N       -1.15620222      -1.09389093      -0.19611108
C       -1.36064323       0.18551450       0.11495249
O       -2.58253444       0.67368188       0.30250399
N       -0.19601722       0.78381027       0.21206684
H        2.47627582       1.03327315      -0.84130721
H        2.86558290       0.06694087       0.60198913
H        0.61080436       1.56441718       0.54622699
H        0.61703903      -2.27559507      -0.58275435
H       -1.88954702      -1.77382811      -0.29482479
H       -2.52674780       1.61378386       0.49549850
13
Frame=2 idx=010407 GeodesicLength=0.15334581834629424 rxn_smarts="[C:1]([c:2]1[c:3]([H:11])[n:4]([H:12])[c:5]([O:6][H:13])[n:7]1)([H:8])([H:9])[H:10]>>[C:1](=[C:2]1[C-:3]([H:11])[N:4]([H:12])[C+:5]([O:6][H:13])[N:7]1[H:10])([H:8])[H:9]"
C        2.08014133       0.62603356       0.09583105
C        0.82780408      -0.10196748      -0.14091201
C        0.22353503      -1.30361761      -0.34497448
N       -1.15735761      -1.09777535      -0.18482436
C       -1.36156223       0.18277020       0.11972666
O       -2.58428865       0.67706793       0.28906733
N       -0.19660033       0.77884283       0.23055752
H        2.45238930       1.10357914      -0.81364571
H        2.87774023       0.02750716       0.53487601
H        0.63936255       1.54208450       0.61292463
H        0.61847801      -2.28072534      -0.55619653
H       -1.88951161      -1.78052241      -0.27101284
H       -2.53013010       1.62672288       0.42858273
13
Frame=3 idx=010407 GeodesicLength=0.2300812973342742 rxn_smarts="[C:1]([c:2]1[c:3]([H:11])[n:4]([H:12])[c:5]([O:6][H:13])[n:7]1)([H:8])([H:9])[H:10]>>[C:1](=[C:2]1[C-:3]([H:11])[N:4]([H:12])[C+:5]([O:6][H:13])[N:7]1[H:10])([H:8])[H:9]"
C        2.07652852       0.61689284       0.09501330
C        0.82263494      -0.09316465      -0.17151108
C        0.22067955      -1.30220844      -0.34943951
N       -1.15859380      -1.10000338      -0.17782731
C       -1.36282053       0.18095626       0.12296371
O       -2.58574657       0.67831610       0.28670172
N       -0.19812498       0.77804952       0.23598334
H        2.43569288       1.16460815      -0.77903824
H        2.88437802      -0.00795619       0.47351113
H        0.66735379       1.52009591       0.66839687
H        0.62087340      -2.28393486      -0.52651779
H       -1.88885646      -1.78639378      -0.24823980
H       -2.53399875       1.63474252       0.37000366
13
Frame=4 idx=010407 GeodesicLength=0.30692440696906265 rxn_smarts="[C:1]([c:2]1[c:3]([H:11])[n:4]([H:12])[c:5]([O:6][H:13])[n:7]1)([H:8])([H:9])[H:10]>>[C:1](=[C:2]1[C-:3]([H:11])[N:4]([H:12])[C+:5]([O:6][H:13])[N:7]1[H:10])([H:8])[H:9]"
C        2.07304925       0.60834698       0.09022249
C        0.81715542      -0.08600659      -0.19490202
C        0.21814994      -1.30241194      -0.34588171
N       -1.16043762      -1.10130785      -0.17339105
C       -1.36381457       0.17847364       0.13104694
O       -2.58671852       0.68147652       0.28217085
N       -0.19900792       0.77549670       0.24818729
H        2.41318494       1.22263615      -0.74591063
H        2.89359562      -0.03551659       0.40270233
H        0.69798320       1.49355571       0.72693061
H        0.62336288      -2.28741649      -0.49033648
H       -1.89005587      -1.78863901      -0.23947036
H       -2.53644676       1.64131276       0.30863175
13
Frame=5 idx=010407 GeodesicLength=0.3838820884251516 rxn_smarts="[C:1]([c:2]1[c:3]([H:11])[n:4]([H:12])[c:5]([O:6][H:13])[n:7]1)([H:8])([H:9])[H:10]>>[C:1](=[C:2]1[C-:3]([H:11])[N:4]([H:12])[C+:5]([O:6][H:13])[N:7]1[H:10])([H:8])[H:9]"
C        2.06934635       0.59968497       0.08521132
C        0.81106098      -0.07826345      -0.21702919
C        0.21532112      -1.30123702      -0.34522056
N       -1.16239562      -1.10209820      -0.16914534
C       -1.36500456       0.17635256       0.13955273
O       -2.58774621       0.68589979       0.27472269
N       -0.20010095       0.77365321       0.25948612
H        2.39192149       1.27653853      -0.70800929
H        2.90055486      -0.05915132       0.32972388
H        0.72964866       1.46303488       0.78536258
H        0.62579569      -2.28826626      -0.45748833
H       -1.89045810      -1.79193104      -0.22345786
H       -2.53794372       1.64578336       0.24629123
13
Frame=6 idx=010407 GeodesicLength=0.46095339489103504 rxn_smarts="[C:1]([c:2]1[c:3]([H:11])[n:4]([H:12])[c:5]([O:6][H:13])[n:7]1)([H:8])([H:9])[H:10]>>[C:1](=[C:2]1[C-:3]([H:11])[N:4]([H:12])[C+:5]([O:6][H:13])[N:7]1[H:10])([H:8])[H:9]"
C        2.06547003       0.59107564       0.07960104
C        0.80451048      -0.07030304      -0.23754222
C        0.21229084      -1.29940726      -0.34537343
N       -1.16444108      -1.10268062      -0.16409154
C       -1.36640566       0.17469165       0.14785895
O       -2.58875877       0.69126590       0.26518899
N       -0.20135994       0.77237604       0.27006316
H        2.37176621       1.32603551      -0.66648146
H        2.90543607      -0.07798484       0.25541169
H        0.76234124       1.42927814       0.84216148
H        0.62814560      -2.28724961      -0.42692952
H       -1.89057116      -1.79534736      -0.20448430
H       -2.53842386       1.64824987       0.18461714
13
Frame=7 idx=010407 GeodesicLength=0.5381895593823094 rxn_smarts="[C:1]([c:2]1[c:3]([H:11])[n:4]([H:12])[c:5]([O:6][H:13])[n:7]1)([H:8])([H:9])[H:10]>>[C:1](=[C:2]1[C-:3]([H:11])[N:4]([H:12])[C+:5]([O:6][H:13])[N:7]1[H:10])([H:8])[H:9]"
C        2.06155849       0.58281087       0.07223498
C        0.79769262      -0.06302009      -0.25531774
C        0.20917927      -1.29799131      -0.34346775
N       -1.16682733      -1.10281539      -0.15974137
C       -1.36780468       0.17330353       0.15641847
O       -2.58917695       0.69760706       0.25559782
N       -0.20237839       0.77067025       0.28203851
H        2.35024359       1.37240232      -0.62279437
H        2.90953919      -0.09056103       0.17671547
H        0.79689146       1.39171376       0.89802592
H        0.63029275      -2.28583109      -0.39204563
H       -1.89169100      -1.79711668      -0.19089171
H       -2.53751901       1.64882779       0.12322742
13
Frame=8 idx=010407 GeodesicLength=0.61547946485265 rxn_smarts="[C:1]([c:2]1[c:3]([H:11])[n:4]([H:12])[c:5]([O:6][H:13])[n:7]1)([H:8])([H:9])[H:10]>>[C:1](=[C:2]1[C-:3]([H:11])[N:4]([H:12])[C+:5]([O:6][H:13])[N:7]1[H:10])([H:8])[H:9]"
C        2.05741612       0.57476783       0.06490377
C        0.79051736      -0.05521657      -0.27237569
C        0.20600914      -1.29583154      -0.34238934
N       -1.16916854      -1.10269514      -0.15483988
C       -1.36945658       0.17241313       0.16437876
O       -2.58966562       0.70423190       0.24530577
N       -0.20376111       0.76998904       0.29218325
H        2.33136675       1.41337183      -0.57603706
H        2.91056799      -0.09888539       0.09879785
H        0.83204810       1.35216304       0.95047380
H        0.63246294      -2.28250318      -0.35952181
H       -1.89227340      -1.79908586      -0.17457354
H       -2.53606314       1.64728090       0.06369413
13
Frame=9 idx=010407 GeodesicLength=0.6928611797055174 rxn_smarts="[C:1]([c:2]1[c:3]([H:11])[n:4]([H:12])[c:5]([O:6][H:13])[n:7]1)([H:8])([H:9])[H:10]>>[C:1](=[C:2]1[C-:3]([H:11])[N:4]([H:12])[C+:5]([O:6][H:13])[N:7]1[H:10])([H:8])[H:9]"
C        2.05331656       0.56723088       0.05620927
C        0.78336633      -0.04816549      -0.28741319
C        0.20302083      -1.29427266      -0.33873572
N       -1.17163419      -1.10224390      -0.15039171
C       -1.37105072       0.17185369       0.17198276
O       -2.58966447       0.71118389       0.23678010
N       -0.20499879       0.76949348       0.30187490
H        2.31264751       1.44995276      -0.52854264
H        2.91011175      -0.10120303       0.01948137
H        0.86871185       1.31054065       0.99971397
H        0.63451001      -2.27884708      -0.32189554
H       -1.89413438      -1.79918818      -0.16610291
H       -2.53420229       1.64366499       0.00703936
13
Frame=10 idx=010407 GeodesicLength=0.7702766226142372 rxn_smarts="[C:1]([c:2]1[c:3]([H:11])[n:4]([H:12])[c:5]([O:6][H:13])[n:7]1)([H:8])([H:9])[H:10]>>[C:1](=[C:2]1[C-:3]([H:11])[N:4]([H:12])[C+:5]([O:6][H:13])[N:7]1[H:10])([H:8])[H:9]"
C        2.04904853       0.56001884       0.04742615
C        0.77601147      -0.04079609      -0.30179415
C        0.20008151      -1.29222121      -0.33526946
N       -1.17401677      -1.10155632      -0.14555403
C       -1.37282568       0.17172208       0.17905187
O       -2.58974450       0.71824187       0.22790379
N       -0.20654434       0.76992305       0.31003566
H        2.29643855       1.48142551      -0.47931514
H        2.90677794      -0.09942491      -0.05825099
H        0.90611966       1.26733471       1.04557760
H        0.63653654      -2.27360563      -0.28575408
H       -1.89567901      -1.79928259      -0.15647254
H       -2.53220389       1.63822069      -0.04758466
13
Frame=11 idx=010407 GeodesicLength=0.8478107727838005 rxn_smarts="[C:1]([c:2]1[c:3]([H:11])[n:4]([H:12])[c:5]([O:6][H:13])[n:7]1)([H:8])([H:9])[H:10]>>[C:1](=[C:2]1[C-:3]([H:11])[N:4]([H:12])[C+:5]([O:6][H:13])[N:7]1[H:10])([H:8])[H:9]"
C        2.04474205       0.55322143       0.03797913
C        0.76862667      -0.03375111      -0.31497432
C        0.19724685      -1.29031351      -0.33067137
N       -1.17642374      -1.10065916      -0.14066568
C       -1.37465205       0.17194741       0.18560627
O       -2.58963527       0.72562059       0.21910194
N       -0.20813213       0.77075369       0.31753110
H        2.28123572       1.50870231      -0.42900116
H        2.90141006      -0.09257131      -0.13617736
H        0.94483440       1.22185730       1.08876255
H        0.63841331      -2.26745577      -0.24776844
H       -1.89770979      -1.79862382      -0.14945369
H       -2.52995607       1.63127195      -0.10026896
13
Frame=12 idx=010407 GeodesicLength=0.9253894623854594 rxn_smarts="[C:1]([c:2]1[c:3]([H:11])[n:4]([H:12])[c:5]([O:6][H:13])[n:7]1)([H:8])([H:9])[H:10]>>[C:1](=[C:2]1[C-:3]([H:11])[N:4]([H:12])[C+:5]([O:6][H:13])[N:7]1[H:10])([H:8])[H:9]"
C        2.04029712       0.54680351       0.02847308
C        0.76111791      -0.02651919      -0.32742392
C        0.19445671      -1.28804024      -0.32602306
N       -1.17875823      -1.09958324      -0.13526481
C       -1.37665748       0.17258620       0.19163619
O       -2.58963580       0.73310347       0.20960220
N       -0.21001026       0.77236383       0.32394642
H        2.26816520       1.53138486      -0.37762465
H        2.89345546      -0.08168674      -0.21227869
H        0.98448960       1.17468163       1.12900468
H        0.64022115      -2.26001967      -0.21142964
H       -1.89947963      -1.79798492      -0.14114594
H       -2.52766176       1.62291050      -0.15147187
13
Frame=13 idx=010407 GeodesicLength=1.0030737348569605 rxn_smarts="[C:1]([c:2]1[c:3]([H:11])[n:4]([H:12])[c:5]([O:6][H:13])[n:7]1)([H:8])([H:9])[H:10]>>[C:1](=[C:2]1[C-:3]([H:11])[N:4]([H:12])[C+:5]([O:6][H:13])[N:7]1[H:10])([H:8])[H:9]"
C        2.03581346       0.54075276       0.01861467
C        0.75367852      -0.01959765      -0.33893179
C        0.19174940      -1.28583296      -0.32061244
N       -1.18108915      -1.09828743      -0.12986792
C       -1.37871479       0.17363678       0.19686633
O       -2.58951986       0.74082189       0.19995728
N       -0.21198194       0.77447229       0.32943726
H        2.25620417       1.54997771      -0.32554021
H        2.88349956      -0.06600193      -0.28749788
H        1.02541597       1.12524584       1.16657564
H        0.64182744      -2.25168243      -0.17421519
H       -1.90147336      -1.79686429      -0.13382246
H       -2.52540941       1.61335942      -0.20096328
13
Frame=14 idx=010407 GeodesicLength=1.080827414765627 rxn_smarts="[C:1]([c:2]1[c:3]([H:11])[n:4]([H:12])[c:5]([O:6][H:13])[n:7]1)([H:8])([H:9])[H:10]>>[C:1](=[C:2]1[C-:3]([H:11])[N:4]([H:12])[C+:5]([O:6][H:13])[N:7]1[H:10])([H:8])[H:9]"
C        2.03118900       0.53513058       0.00874715
C        0.74612251      -0.01245425      -0.34974890
C        0.18903130      -1.28322373      -0.31517866
N       -1.18336085      -1.09679795      -0.12372363
C       -1.38094957       0.17510661       0.20184379
O       -2.58950940       0.74868054       0.18958894
N       -0.21424789       0.77735838       0.33413715
H        2.24612755       1.56437072      -0.27290309
H        2.87110857      -0.04644127      -0.36053377
H        1.06754943       1.07380091       1.20151607
H        0.64337135      -2.24221339      -0.13886325
H       -1.90323917      -1.79572302      -0.12500610
H       -2.52319282       1.60240588      -0.24987571
13
Frame=15 idx=010407 GeodesicLength=1.158642576903581 rxn_smarts="[C:1]([c:2]1[c:3]([H:11])[n:4]([H:12])[c:5]([O:6][H:13])[n:7]1)([H:8])([H:9])[H:10]>>[C:1](=[C:2]1[C-:3]([H:11])[N:4]([H:12])[C+:5]([O:6][H:13])[N:7]1[H:10])([H:8])[H:9]"
C        2.02646112       0.52995049      -0.00113749
C        0.73856281      -0.00521861      -0.35992361
C        0.18633567      -1.28031523      -0.30956978
N       -1.18558039      -1.09507278      -0.11713067
C       -1.38333899       0.17703721       0.20625884
O       -2.58963009       0.75659909       0.17874105
N       -0.21680046       0.78106194       0.33776828
H        2.23774106       1.57473705      -0.22012035
H        2.85659976      -0.02309127      -0.43094060
H        1.11092916       1.02034700       1.23367254
H        0.64484084      -2.23178891      -0.10471912
H       -1.90484218      -1.79445075      -0.11518154
H       -2.52127831       1.59020476      -0.29771755
13
Frame=16 idx=010407 GeodesicLength=1.2365378596773506 rxn_smarts="[C:1]([c:2]1[c:3]([H:11])[n:4]([H:12])[c:5]([O:6][H:13])[n:7]1)([H:8])([H:9])[H:10]>>[C:1](=[C:2]1[C-:3]([H:11])[N:4]([H:12])[C+:5]([O:6][H:13])[N:7]1[H:10])([H:8])[H:9]"
C        2.02164908       0.52521299      -0.01103536
C        0.73106138       0.00203067      -0.36950329
C        0.18366632      -1.27716870      -0.30373591
N       -1.18776403      -1.09308404      -0.11027368
C       -1.38587233       0.17944089       0.20996979
O       -2.58989206       0.76456200       0.16741485
N       -0.21963430       0.78557189       0.34024418
H        2.23079148       1.58130181      -0.16731395
H        2.84018668       0.00408355      -0.49869039
H        1.15567665       0.96461898       1.26304535
H        0.64620724      -2.22047843      -0.07124891
H       -1.90631033      -1.79299832      -0.10445603
H       -2.51976579       1.57690672      -0.34441666
