14
Frame=0 idx=000262 GeodesicLength=0.0 rxn_smarts="[C:1]([C@:2]12[C:3]([H:10])([H:11])[C@@:4]1([H:12])[O:5][C:6]2([H:13])[H:14])([H:7])([H:8])[H:9]>>[C:1]([C:2][C:3]([C@@:4]1([H:12])[O:5][C:6]1([H:13])[H:14])([H:10])[H:11])([H:7])([H:8])[H:9]"
C        1.44249619      -0.50845440      -0.63960184
C        0.63159670      -0.24920718       0.60100377
C       -0.61856890      -1.05723984       0.67350733
C       -1.06824676       0.11908436      -0.11057236
O       -1.84391840       1.13871424       0.42759202
C       -0.48732592       1.51637881       0.38635226
H        0.92360531      -0.96049734      -1.49983659
H        2.20485081      -1.22500171      -0.31517642
H        1.98470399       0.37770771      -0.97309095
H       -0.66282278      -1.97258555       0.08298475
H       -1.07770846      -1.16516681       1.65305135
H       -1.11621899       0.02340269      -1.19046866
H       -0.09836127       1.80089723       1.34992044
H       -0.21408147       2.16196784      -0.44566508
14
Frame=1 idx=000262 GeodesicLength=0.044725486001691246 rxn_smarts="[C:1]([C@:2]12[C:3]([H:10])([H:11])[C@@:4]1([H:12])[O:5][C:6]2([H:13])[H:14])([H:7])([H:8])[H:9]>>[C:1]([C:2][C:3]([C@@:4]1([H:12])[O:5][C:6]1([H:13])[H:14])([H:10])[H:11])([H:7])([H:8])[H:9]"
C        1.45077949      -0.51716364      -0.64629536
C        0.63084174      -0.24237819       0.58245955
C       -0.61723568      -1.05184235       0.67044270
C       -1.07093706       0.12050448      -0.11962149
O       -1.84787265       1.13579969       0.42752114
C       -0.49104661       1.51867557       0.39659005
H        0.93673792      -0.98490584      -1.50057605
H        2.21218221      -1.22721858      -0.30474894
H        1.99281976       0.36466866      -0.99122402
H       -0.66309480      -1.97105002       0.08613874
H       -1.06984990      -1.14904857       1.65413608
H       -1.12897333       0.02378628      -1.19881689
H       -0.11457912       1.79940745       1.36719111
H       -0.21977196       2.18076506      -0.42319661
14
Frame=2 idx=000262 GeodesicLength=0.0892366425288709 rxn_smarts="[C:1]([C@:2]12[C:3]([H:10])([H:11])[C@@:4]1([H:12])[O:5][C:6]2([H:13])[H:14])([H:7])([H:8])[H:9]>>[C:1]([C:2][C:3]([C@@:4]1([H:12])[O:5][C:6]1([H:13])[H:14])([H:10])[H:11])([H:7])([H:8])[H:9]"
C        1.45912597      -0.52590373      -0.65290366
C        0.62995123      -0.23542903       0.56347776
C       -0.61586315      -1.04629977       0.66718655
C       -1.07377586       0.12209235      -0.12869474
O       -1.85173775       1.13305814       0.42758640
C       -0.49471220       1.52092208       0.40681250
H        0.95011576      -1.00952363      -1.50087849
H        2.21947024      -1.22895945      -0.29395114
H        2.00108333       0.35132411      -1.00940294
H       -0.66337402      -1.96930502       0.08909641
H       -1.06173941      -1.13295300       1.65493242
H       -1.14238399       0.02406320      -1.20704697
H       -0.13051206       1.79756786       1.38422741
H       -0.22564808       2.19934591      -0.40044152
14
Frame=3 idx=000262 GeodesicLength=0.1335062035747283 rxn_smarts="[C:1]([C@:2]12[C:3]([H:10])([H:11])[C@@:4]1([H:12])[O:5][C:6]2([H:13])[H:14])([H:7])([H:8])[H:9]>>[C:1]([C:2][C:3]([C@@:4]1([H:12])[O:5][C:6]1([H:13])[H:14])([H:10])[H:11])([H:7])([H:8])[H:9]"
C        1.46753195      -0.53465316      -0.65940988
C        0.62890732      -0.22837029       0.54404844
C       -0.61445695      -1.04062397       0.66373345
C       -1.07678478       0.12383980      -0.13778217
O       -1.85550426       1.13049360       0.42781162
C       -0.49830380       1.52310900       0.41699496
H        0.96373793      -1.03427888      -1.50073598
H        2.22668194      -1.23020910      -0.28279243
H        2.00952173       0.33768694      -1.02756138
H       -0.66365983      -1.96735780       0.09184389
H       -1.05338301      -1.11690604       1.65543566
H       -1.15649251       0.02421246      -1.21513111
H       -0.14610459       1.79539319       1.40099342
H       -0.23169113       2.21766426      -0.37744848
14
Frame=4 idx=000262 GeodesicLength=0.17751217053779883 rxn_smarts="[C:1]([C@:2]12[C:3]([H:10])([H:11])[C@@:4]1([H:12])[O:5][C:6]2([H:13])[H:14])([H:7])([H:8])[H:9]>>[C:1]([C:2][C:3]([C@@:4]1([H:12])[O:5][C:6]1([H:13])[H:14])([H:10])[H:11])([H:7])([H:8])[H:9]"
C        1.47599205      -0.54338525      -0.66579724
C        0.62769085      -0.22122197       0.52416411
C       -0.61302406      -1.03483246       0.66008142
C       -1.07998816       0.12573268      -0.14687627
O       -1.85916525       1.12811466       0.42821470
C       -0.50180071       1.52522860       0.42710991
H        0.97760171      -1.05908051      -1.50014602
H        2.23377070      -1.23095497      -0.27129178
H        2.01816923       0.32377788      -1.04562197
H       -0.66395271      -1.96522503       0.09437180
H       -1.04478527      -1.10093466       1.65564898
H       -1.17133863       0.02420247      -1.22304167
H       -0.16129824       1.79290626       1.41745493
H       -0.23787150       2.23567229      -0.35427089
14
Frame=5 idx=000262 GeodesicLength=0.22123051921132011 rxn_smarts="[C:1]([C@:2]12[C:3]([H:10])([H:11])[C@@:4]1([H:12])[O:5][C:6]2([H:13])[H:14])([H:7])([H:8])[H:9]>>[C:1]([C:2][C:3]([C@@:4]1([H:12])[O:5][C:6]1([H:13])[H:14])([H:10])[H:11])([H:7])([H:8])[H:9]"
C        1.48450370      -0.55207901      -0.67204885
C        0.62628249      -0.21399791       0.50381825
C       -0.61157226      -1.02894122       0.65622849
C       -1.08340975       0.12775998      -0.15596603
O       -1.86270763       1.12591996       0.42882250
C       -0.50518103       1.52727244       0.43712963
H        0.99169578      -1.08384866      -1.49912091
H        2.24071430      -1.23119591      -0.25945829
H        2.02705741       0.30962270      -1.06349934
H       -0.66425069      -1.96292024       0.09666984
H       -1.03595856      -1.08506446       1.65557100
H       -1.18696846       0.02401766      -1.23075064
H       -0.17603351       1.79012685       1.43357670
H       -0.24417179       2.25332781      -0.33097235
14
Frame=6 idx=000262 GeodesicLength=0.2646757828670421 rxn_smarts="[C:1]([C@:2]12[C:3]([H:10])([H:11])[C@@:4]1([H:12])[O:5][C:6]2([H:13])[H:14])([H:7])([H:8])[H:9]>>[C:1]([C:2][C:3]([C@@:4]1([H:12])[O:5][C:6]1([H:13])[H:14])([H:10])[H:11])([H:7])([H:8])[H:9]"
C        1.49306183      -0.56069616      -0.67814389
C        0.62466218      -0.20674808       0.48301317
C       -0.61011179      -1.02298635       0.65218010
C       -1.08708285       0.12989255      -0.16505757
O       -1.86613361       1.12393227       0.42963158
C       -0.50841834       1.52924207       0.44702167
H        1.00601476      -1.10846285      -1.49765975
H        2.24743840      -1.23092005      -0.24733638
H        2.03623036       0.29526598      -1.08110389
H       -0.66455420      -1.96048883       0.09873867
H       -1.02690928      -1.06932433       1.65522423
H       -1.20342318       0.02359943      -1.23823922
H       -0.19023659       1.78710069       1.44934204
H       -0.25053768       2.27059368      -0.30761075
14
Frame=7 idx=000262 GeodesicLength=0.3076988622298864 rxn_smarts="[C:1]([C@:2]12[C:3]([H:10])([H:11])[C@@:4]1([H:12])[O:5][C:6]2([H:13])[H:14])([H:7])([H:8])[H:9]>>[C:1]([C:2][C:3]([C@@:4]1([H:12])[O:5][C:6]1([H:13])[H:14])([H:10])[H:11])([H:7])([H:8])[H:9]"
C        1.50167468      -0.56925266      -0.68404844
C        0.62283049      -0.19936218       0.46167871
C       -0.60861626      -1.01691369       0.64787752
C       -1.09099352       0.13215638      -0.17405475
O       -1.86939034       1.12203092       0.43080551
C       -0.51151625       1.53110000       0.45676447
H        1.02059655      -1.13292278      -1.49581786
H        2.25391331      -1.23028212      -0.23479370
H        2.04569106       0.28070884      -1.09832247
H       -0.66484411      -1.95780342       0.10047371
H       -1.01759686      -1.05371969       1.65449227
H       -1.22078247       0.02304184      -1.24535452
H       -0.20390534       1.78379878       1.46462219
H       -0.25706095       2.28741979      -0.28432263
14
Frame=8 idx=000262 GeodesicLength=0.35041451409624463 rxn_smarts="[C:1]([C@:2]12[C:3]([H:10])([H:11])[C@@:4]1([H:12])[O:5][C:6]2([H:13])[H:14])([H:7])([H:8])[H:9]>>[C:1]([C:2][C:3]([C@@:4]1([H:12])[O:5][C:6]1([H:13])[H:14])([H:10])[H:11])([H:7])([H:8])[H:9]"
C        1.51033408      -0.57770147      -0.68977193
C        0.62073761      -0.19198125       0.43984227
C       -0.60712968      -1.01080403       0.64336613
C       -1.09519580       0.13451670      -0.18304440
O       -1.87250723       1.12034298       0.43220076
C       -0.51443961       1.53286503       0.46633634
H        1.03542933      -1.15716322      -1.49353930
H        2.26013049      -1.22908709      -0.22195447
H        2.05547111       0.26598572      -1.11518343
H       -0.66516132      -1.95502407       0.10195727
H       -1.00805853      -1.03828057       1.65349507
H       -1.23903416       0.02225656      -1.25216739
H       -0.21696535       1.78025520       1.47950602
H       -0.26361094       2.30381950      -0.26104294
14
Frame=9 idx=000262 GeodesicLength=0.39285463544934685 rxn_smarts="[C:1]([C@:2]12[C:3]([H:10])([H:11])[C@@:4]1([H:12])[O:5][C:6]2([H:13])[H:14])([H:7])([H:8])[H:9]>>[C:1]([C:2][C:3]([C@@:4]1([H:12])[O:5][C:6]1([H:13])[H:14])([H:10])[H:11])([H:7])([H:8])[H:9]"
C        1.51903177      -0.58605636      -0.69531537
C        0.61837493      -0.18459040       0.41744346
C       -0.60565249      -1.00463196       0.63860639
C       -1.09969841       0.13697990      -0.19202660
O       -1.87548523       1.11885078       0.43384506
C       -0.51716957       1.53452125       0.47575961
H        1.05054538      -1.18129028      -1.49077354
H        2.26610096      -1.22724516      -0.20874709
H        2.06551022       0.25108225      -1.13173886
H       -0.66551809      -1.95210774       0.10314924
H       -0.99827346      -1.02298977       1.65218687
H       -1.25819820       0.02124544      -1.25866250
H       -0.22942340       1.77644603       1.49401507
H       -0.27014441       2.31978603      -0.23774174
14
Frame=10 idx=000262 GeodesicLength=0.43506401997685307 rxn_smarts="[C:1]([C@:2]12[C:3]([H:10])([H:11])[C@@:4]1([H:12])[O:5][C:6]2([H:13])[H:14])([H:7])([H:8])[H:9]>>[C:1]([C:2][C:3]([C@@:4]1([H:12])[O:5][C:6]1([H:13])[H:14])([H:10])[H:11])([H:7])([H:8])[H:9]"
C        1.52777092      -0.59432351      -0.70066885
C        0.61572303      -0.17716951       0.39442801
C       -0.60419094      -0.99839392       0.63356459
C       -1.10451981       0.13955875      -0.20100818
O       -1.87831605       1.11753538       0.43576872
C       -0.51968831       1.53606547       0.48503899
H        1.06597032      -1.20539549      -1.48748471
H        2.27186505      -1.22469150      -0.19509126
H        2.07578045       0.23598566      -1.14802684
H       -0.66593255      -1.94904345       0.10400994
H       -0.98822807      -1.00785334       1.65053270
H       -1.27832690       0.02003331      -1.26481893
H       -0.24125231       1.77235151       1.50816884
H       -0.27665482       2.33534065      -0.21441302
14
Frame=11 idx=000262 GeodesicLength=0.47707848212514825 rxn_smarts="[C:1]([C@:2]12[C:3]([H:10])([H:11])[C@@:4]1([H:12])[O:5][C:6]2([H:13])[H:14])([H:7])([H:8])[H:9]>>[C:1]([C:2][C:3]([C@@:4]1([H:12])[O:5][C:6]1([H:13])[H:14])([H:10])[H:11])([H:7])([H:8])[H:9]"
C        1.53655474      -0.60250236      -0.70582337
C        0.61275523      -0.16973984       0.37074455
C       -0.60275989      -0.99209741       0.62821170
C       -1.10968703       0.14226110      -0.21000170
O       -1.88099662       1.11641574       0.43797455
C       -0.52197722       1.53748958       0.49417479
H        1.08175750      -1.22955898      -1.48359089
H        2.27743721      -1.22131280      -0.18095636
H        2.08625224       0.22068749      -1.16409720
H       -0.66643035      -1.94584639       0.10450839
H       -0.97791337      -0.99288181       1.64851621
H       -1.29945920       0.01864256      -1.27060833
H       -0.25242463       1.76795170       1.52198022
H       -0.28310861       2.35049141      -0.19103257
14
Frame=12 idx=000262 GeodesicLength=0.5189147351925794 rxn_smarts="[C:1]([C@:2]12[C:3]([H:10])([H:11])[C@@:4]1([H:12])[O:5][C:6]2([H:13])[H:14])([H:7])([H:8])[H:9]>>[C:1]([C:2][C:3]([C@@:4]1([H:12])[O:5][C:6]1([H:13])[H:14])([H:10])[H:11])([H:7])([H:8])[H:9]"
C        1.54536925      -0.61058247      -0.71076754
C        0.60944243      -0.16230595       0.34632778
C       -0.60135665      -0.98573914       0.62251327
C       -1.11521298       0.14508440      -0.21901692
O       -1.88351370       1.11548724       0.44047176
C       -0.52401644       1.53877859       0.50316255
H        1.09794341      -1.25382016      -1.47902742
H        2.28276560      -1.21700861      -0.16628786
H        2.09689673       0.20516051      -1.17996759
H       -0.66702253      -1.94250015       0.10460671
H       -0.96728597      -0.97808309       1.64611189
H       -1.32162877       0.01707171      -1.27599814
H       -0.26292277       1.76322219       1.53545493
H       -0.28945761       2.36523492      -0.16758343
14
Frame=13 idx=000262 GeodesicLength=0.5605209304309962 rxn_smarts="[C:1]([C@:2]12[C:3]([H:10])([H:11])[C@@:4]1([H:12])[O:5][C:6]2([H:13])[H:14])([H:7])([H:8])[H:9]>>[C:1]([C:2][C:3]([C@@:4]1([H:12])[O:5][C:6]1([H:13])[H:14])([H:10])[H:11])([H:7])([H:8])[H:9]"
C        1.55421553      -0.61852562      -0.71546855
C        0.60574774      -0.15490471       0.32116582
C       -0.60000854      -0.97934740       0.61646597
C       -1.12114011       0.14801684      -0.22803444
O       -1.88584405       1.11474865       0.44328601
C       -0.52576980       1.53990726       0.51195538
H        1.11453264      -1.27807042      -1.47379292
H        2.28782270      -1.21176885      -0.15110909
H        2.10775347       0.18947558      -1.19552086
H       -0.66772979      -1.93903705       0.10429052
H       -0.95636742      -0.96348080       1.64331738
H       -1.34489725       0.01532123      -1.28092340
H       -0.27264635       1.75816245       1.54853128
H       -0.29566877       2.37950285      -0.14416310
14
Frame=14 idx=000262 GeodesicLength=0.6019623134729076 rxn_smarts="[C:1]([C@:2]12[C:3]([H:10])([H:11])[C@@:4]1([H:12])[O:5][C:6]2([H:13])[H:14])([H:7])([H:8])[H:9]>>[C:1]([C:2][C:3]([C@@:4]1([H:12])[O:5][C:6]1([H:13])[H:14])([H:10])[H:11])([H:7])([H:8])[H:9]"
C        1.56309388      -0.62633068      -0.71991336
C        0.60163415      -0.14755494       0.29518267
C       -0.59873636      -0.97293191       0.61002359
C       -1.12750127       0.15106594      -0.23706933
O       -1.88798424       1.11421144       0.44643569
C       -0.52720695       1.54086804       0.52055771
H        1.13159041      -1.30242214      -1.46777867
H        2.29262772      -1.20542129      -0.13534738
H        2.11876729       0.17361388      -1.21082919
H       -0.66859017      -1.93546563       0.10350818
H       -0.94514290      -0.94909558       1.64009562
H       -1.36931752       0.01340856      -1.28535578
H       -0.28155080       1.75274446       1.56122996
H       -0.30168326       2.39330986      -0.12073970
14
Frame=15 idx=000262 GeodesicLength=0.6431865818231787 rxn_smarts="[C:1]([C@:2]12[C:3]([H:10])([H:11])[C@@:4]1([H:12])[O:5][C:6]2([H:13])[H:14])([H:7])([H:8])[H:9]>>[C:1]([C:2][C:3]([C@@:4]1([H:12])[O:5][C:6]1([H:13])[H:14])([H:10])[H:11])([H:7])([H:8])[H:9]"
C        1.57197421      -0.63394065      -0.72407319
C        0.59705991      -0.14030035       0.26835030
C       -0.59754706      -0.96651781       0.60318108
C       -1.13432484       0.15419200      -0.24610142
O       -1.88990017       1.11385974       0.44994596
C       -0.52828969       1.54163281       0.52891650
H        1.14911437      -1.32670629      -1.46099846
H        2.29702712      -1.19796838      -0.11902184
H        2.12998638       0.15763921      -1.22572883
H       -0.66960025      -1.93179895       0.10224193
H       -0.93359418      -0.93494654       1.63644108
H       -1.39492625       0.01129095      -1.28922202
H       -0.28954815       1.74698305       1.57348453
H       -0.30743138       2.40658123      -0.09741560
14
Frame=16 idx=000262 GeodesicLength=0.684243398138082 rxn_smarts="[C:1]([C@:2]12[C:3]([H:10])([H:11])[C@@:4]1([H:12])[O:5][C:6]2([H:13])[H:14])([H:7])([H:8])[H:9]>>[C:1]([C:2][C:3]([C@@:4]1([H:12])[O:5][C:6]1([H:13])[H:14])([H:10])[H:11])([H:7])([H:8])[H:9]"
C        1.58086805      -0.64134997      -0.72792259
C        0.59197879      -0.13316794       0.24059143
C       -0.59647710      -0.96012466       0.59588870
C       -1.14165789       0.15741517      -0.25514092
O       -1.89158209       1.11371109       0.45384114
C       -0.52897759       1.54218555       0.53702394
H        1.16717799      -1.35104138      -1.45331952
H        2.30107939      -1.18921410      -0.10206336
H        2.14135578       0.14155244      -1.24028154
H       -0.67081610      -1.92806022       0.10043092
H       -0.92172288      -0.92107142       1.63231223
H       -1.42180845       0.00901396      -1.29247625
H       -0.29656352       1.74083283       1.58529759
H       -0.31285439       2.41931865      -0.07418178
