15
Frame=0 idx=006551 GeodesicLength=0.0 rxn_smarts="[C:1]([N:2]([C@@:3]([C:4]([O:5][H:15])([H:13])[H:14])([C:6]#[N:7])[H:12])[H:11])([H:8])([H:9])[H:10]>>[C:1]([N:2]([C:6]1=[N:7][C@@:3]1([C:4]([O:5][H:15])([H:13])[H:14])[H:12])[H:11])([H:8])([H:9])[H:10]"
C       -2.26064965       0.55102171       0.57897022
N       -1.01357088      -0.19539382       0.59301904
C        0.64543289       0.07670102      -0.66283184
C        2.01826174      -0.35039271      -0.31860237
O        2.94940137       0.69043472      -0.18420841
C       -0.49537373      -0.80956268      -0.66094019
N       -0.87667440      -1.68602382      -1.41198902
H       -3.12284071      -0.11781531       0.52504807
H       -2.34629823       1.17896452       1.46634256
H       -2.27660803       1.18712777      -0.30706736
H       -0.87168730      -0.76582115       1.41789332
H        0.52731380       1.08241753      -1.06523070
H        2.33700485      -0.97547572      -1.16287702
H        1.99870465      -1.01824807       0.55203293
H        2.78758370       1.15206606       0.64044083
15
Frame=1 idx=006551 GeodesicLength=0.06907651256810252 rxn_smarts="[C:1]([N:2]([C@@:3]([C:4]([O:5][H:15])([H:13])[H:14])([C:6]#[N:7])[H:12])[H:11])([H:8])([H:9])[H:10]>>[C:1]([N:2]([C:6]1=[N:7][C@@:3]1([C:4]([O:5][H:15])([H:13])[H:14])[H:12])[H:11])([H:8])([H:9])[H:10]"
C       -2.25409395       0.55594404       0.58126901
N       -0.99543844      -0.17030813       0.60772701
C        0.63802101       0.06283781      -0.66776492
C        2.01529666      -0.35981204      -0.32639808
O        2.92880989       0.69180867      -0.15579009
C       -0.49317646      -0.83201832      -0.64181091
N       -0.86467387      -1.66594453      -1.44014310
H       -3.10619789      -0.12635320       0.53124269
H       -2.35301278       1.18995293       1.46281575
H       -2.27833690       1.18372954      -0.31042979
H       -0.84496488      -0.72444944       1.44162118
H        0.52058238       1.05806242      -1.09528493
H        2.35092858      -0.95727891      -1.18340273
H        2.00133296      -1.04851696       0.52803543
H        2.73492370       1.14234613       0.66831346
15
Frame=2 idx=006551 GeodesicLength=0.13850263209905805 rxn_smarts="[C:1]([N:2]([C@@:3]([C:4]([O:5][H:15])([H:13])[H:14])([C:6]#[N:7])[H:12])[H:11])([H:8])([H:9])[H:10]>>[C:1]([N:2]([C:6]1=[N:7][C@@:3]1([C:4]([O:5][H:15])([H:13])[H:14])[H:12])[H:11])([H:8])([H:9])[H:10]"
C       -2.24740839       0.56053010       0.58350718
N       -0.97751708      -0.14533557       0.62023803
C        0.63019597       0.04912196      -0.67274213
C        2.01180533      -0.36898428      -0.33361543
O        2.90758821       0.69206876      -0.12789898
C       -0.49146338      -0.85416388      -0.62420828
N       -0.85090111      -1.64499481      -1.46704607
H       -3.08925199      -0.13507199       0.53856116
H       -2.35845262       1.20022184       1.45939777
H       -2.28102133       1.17994478      -0.31367749
H       -0.81729765      -0.68232146       1.46299926
H        0.51371579       1.03412100      -1.12328235
H        2.36391473      -0.93937582      -1.20179330
H        2.00319898      -1.07717181       0.50489459
H        2.68289456       1.13141119       0.69466606
15
Frame=3 idx=006551 GeodesicLength=0.2082150908381145 rxn_smarts="[C:1]([N:2]([C@@:3]([C:4]([O:5][H:15])([H:13])[H:14])([C:6]#[N:7])[H:12])[H:11])([H:8])([H:9])[H:10]>>[C:1]([N:2]([C:6]1=[N:7][C@@:3]1([C:4]([O:5][H:15])([H:13])[H:14])[H:12])[H:11])([H:8])([H:9])[H:10]"
C       -2.24062406       0.56488343       0.58572643
N       -0.95982898      -0.12037151       0.63048570
C        0.62203992       0.03582960      -0.67794680
C        2.00781984      -0.37781672      -0.34040109
O        2.88585069       0.69129900      -0.10026736
C       -0.49046100      -0.87537655      -0.60847376
N       -0.83521942      -1.62480496      -1.49148721
H       -3.07209555      -0.14378015       0.54667901
H       -2.36273474       1.20951885       1.45636615
H       -2.28458058       1.17624740      -0.31643227
H       -0.78884372      -0.63968896       1.48163115
H        0.50696396       1.01085237      -1.14975429
H        2.37607590      -0.92146830      -1.21837657
H        2.00412177      -1.10443113       0.48229686
H        2.63151598       1.11910763       0.71995406
15
Frame=4 idx=006551 GeodesicLength=0.27864859538294173 rxn_smarts="[C:1]([N:2]([C@@:3]([C:4]([O:5][H:15])([H:13])[H:14])([C:6]#[N:7])[H:12])[H:11])([H:8])([H:9])[H:10]>>[C:1]([N:2]([C:6]1=[N:7][C@@:3]1([C:4]([O:5][H:15])([H:13])[H:14])[H:12])[H:11])([H:8])([H:9])[H:10]"
C       -2.23382165       0.56917722       0.58799168
N       -0.94240865      -0.09543665       0.63862938
C        0.61365646       0.02311490      -0.68343396
C        2.00341984      -0.38632244      -0.34682370
O        2.86369637       0.68953768      -0.07277876
C       -0.49005245      -0.89547120      -0.59484656
N       -0.81760692      -1.60640267      -1.51310276
H       -3.05476830      -0.15230460       0.55535730
H       -2.36609950       1.21795361       1.45404585
H       -2.28903473       1.17308190      -0.31858841
H       -0.75986275      -0.59705045       1.49753164
H        0.50041895       0.98849929      -1.17497024
H        2.38755129      -0.90353647      -1.23341522
H        2.00417419      -1.13057196       0.46008731
H        2.58073785       1.10573184       0.74431644
15
Frame=5 idx=006551 GeodesicLength=0.3492162284042601 rxn_smarts="[C:1]([N:2]([C@@:3]([C:4]([O:5][H:15])([H:13])[H:14])([C:6]#[N:7])[H:12])[H:11])([H:8])([H:9])[H:10]>>[C:1]([N:2]([C:6]1=[N:7][C@@:3]1([C:4]([O:5][H:15])([H:13])[H:14])[H:12])[H:11])([H:8])([H:9])[H:10]"
C       -2.22691850       0.57336198       0.59024326
N       -0.92524055      -0.07035916       0.64481659
C        0.60510046       0.01102508      -0.68909642
C        1.99866556      -0.39434658      -0.35301192
O        2.84108128       0.68691388      -0.04523132
C       -0.49029180      -0.91424228      -0.58272667
N       -0.79858686      -1.59014536      -1.53178534
H       -3.03725031      -0.16061026       0.56459724
H       -2.36849521       1.22548906       1.45208147
H       -2.29415054       1.17011472      -0.32008547
H       -0.73055876      -0.55415705       1.51062366
H        0.49420871       0.96680805      -1.19928196
H        2.39847102      -0.88495475      -1.24715398
H        2.00342124      -1.15566418       0.43781975
H        2.53054427       1.09076686       0.76819112
15
Frame=6 idx=006551 GeodesicLength=0.42043120963985503 rxn_smarts="[C:1]([N:2]([C@@:3]([C:4]([O:5][H:15])([H:13])[H:14])([C:6]#[N:7])[H:12])[H:11])([H:8])([H:9])[H:10]>>[C:1]([N:2]([C:6]1=[N:7][C@@:3]1([C:4]([O:5][H:15])([H:13])[H:14])[H:12])[H:11])([H:8])([H:9])[H:10]"
C       -2.21997033       0.57754024       0.59260239
N       -0.90841679      -0.04548896       0.64930150
C        0.59642531      -0.00036754      -0.69487975
C        1.99356876      -0.40199022      -0.35873785
O        2.81835982       0.68347139      -0.01826314
C       -0.49101554      -0.93183118      -0.57254645
N       -0.77812872      -1.57609220      -1.54809533
H       -3.01964002      -0.16854834       0.57368997
H       -2.37020698       1.23187303       1.45120355
H       -2.29966513       1.16818411      -0.32064771
H       -0.70142948      -0.51220415       1.52109913
H        0.48829933       0.94607911      -1.22256715
H        2.40867841      -0.86674171      -1.25913712
H        2.00180471      -1.17933463       0.41636516
H        2.48133665       1.07545104       0.79061279
15
Frame=7 idx=006551 GeodesicLength=0.49199168423811673 rxn_smarts="[C:1]([N:2]([C@@:3]([C:4]([O:5][H:15])([H:13])[H:14])([C:6]#[N:7])[H:12])[H:11])([H:8])([H:9])[H:10]>>[C:1]([N:2]([C:6]1=[N:7][C@@:3]1([C:4]([O:5][H:15])([H:13])[H:14])[H:12])[H:11])([H:8])([H:9])[H:10]"
C       -2.21300090       0.58170881       0.59502669
N       -0.89193287      -0.02069132       0.65229069
C        0.58764967      -0.01112160      -0.70069030
C        1.98825305      -0.40921602      -0.36412040
O        2.79549308       0.67934238       0.00831830
C       -0.49219256      -0.94832565      -0.56374642
N       -0.75661926      -1.56412171      -1.56235791
H       -3.00196663      -0.17613727       0.58282129
H       -2.37125526       1.23735050       1.45106669
H       -2.30561175       1.16688882      -0.32043866
H       -0.67251064      -0.47085868       1.52919686
H        0.48264785       0.92606316      -1.24510369
H        2.41838621      -0.84846468      -1.26971612
H        1.99959621      -1.20183009       0.39538196
H        2.43306380       1.05941336       0.81207103
15
Frame=8 idx=006551 GeodesicLength=0.5639818356518821 rxn_smarts="[C:1]([N:2]([C@@:3]([C:4]([O:5][H:15])([H:13])[H:14])([C:6]#[N:7])[H:12])[H:11])([H:8])([H:9])[H:10]>>[C:1]([N:2]([C:6]1=[N:7][C@@:3]1([C:4]([O:5][H:15])([H:13])[H:14])[H:12])[H:11])([H:8])([H:9])[H:10]"
C       -2.20604107       0.58589276       0.59750497
N       -0.87578913       0.00406282       0.65394783
C        0.57881228      -0.02127858      -0.70647705
C        1.98278128      -0.41604482      -0.36920276
O        2.77251260       0.67456531       0.03461263
C       -0.49368886      -0.96387653      -0.55616413
N       -0.73429191      -1.55408637      -1.57482078
H       -2.98421046      -0.18342231       0.59208373
H       -2.37170730       1.24216612       1.45156376
H       -2.31205045       1.16607642      -0.31961723
H       -0.64387571      -0.43009756       1.53517217
H        0.47724580       0.90668217      -1.26696945
H        2.42766935      -0.83001439      -1.27906335
H        1.99695035      -1.22333688       0.37470408
H        2.38568323       1.04271186       0.83272558
15
Frame=9 idx=006551 GeodesicLength=0.6366342678689793 rxn_smarts="[C:1]([N:2]([C@@:3]([C:4]([O:5][H:15])([H:13])[H:14])([C:6]#[N:7])[H:12])[H:11])([H:8])([H:9])[H:10]>>[C:1]([N:2]([C:6]1=[N:7][C@@:3]1([C:4]([O:5][H:15])([H:13])[H:14])[H:12])[H:11])([H:8])([H:9])[H:10]"
C       -2.19908193       0.59010732       0.60001016
N       -0.86000604       0.02878045       0.65438885
C        0.56991548      -0.03088934      -0.71219103
C        1.97716236      -0.42247775      -0.37401998
O        2.74941098       0.66917292       0.06065008
C       -0.49546920      -0.97863511      -0.54967816
N       -0.71118580      -1.54577952      -1.58551654
H       -2.96635224      -0.19040107       0.60149142
H       -2.37155788       1.24645467       1.45259060
H       -2.31896782       1.16564826      -0.31828987
H       -0.61559423      -0.38994025       1.53921269
H        0.47207515       0.88783592      -1.28820465
H        2.43655332      -0.81125743      -1.28726785
H        1.99393580      -1.24398952       0.35415842
H        2.33916205       1.02537045       0.85266586
15
Frame=10 idx=006551 GeodesicLength=0.7094592684821313 rxn_smarts="[C:1]([N:2]([C@@:3]([C:4]([O:5][H:15])([H:13])[H:14])([C:6]#[N:7])[H:12])[H:11])([H:8])([H:9])[H:10]>>[C:1]([N:2]([C:6]1=[N:7][C@@:3]1([C:4]([O:5][H:15])([H:13])[H:14])[H:12])[H:11])([H:8])([H:9])[H:10]"
C       -2.19212548       0.59428020       0.60255005
N       -0.84459886       0.05339209       0.65376075
C        0.56097858      -0.03994189      -0.71770809
C        1.97142442      -0.42853362      -0.37848754
O        2.72636297       0.66324725       0.08612223
C       -0.49747604      -0.99261294      -0.54405508
N       -0.68762492      -1.53885567      -1.59504193
H       -2.94842175      -0.19712253       0.61085330
H       -2.37091153       1.25004886       1.45416165
H       -2.32617384       1.16558053      -0.31635469
H       -0.58786469      -0.35052875       1.54143066
H        0.46714139       0.86950551      -1.30878418
H        2.44496456      -0.79255650      -1.29421343
H        1.99055844      -1.26355576       0.33416014
H        2.29376675       1.00765319       0.87160617
15
Frame=11 idx=006551 GeodesicLength=0.7829006732975268 rxn_smarts="[C:1]([N:2]([C@@:3]([C:4]([O:5][H:15])([H:13])[H:14])([C:6]#[N:7])[H:12])[H:11])([H:8])([H:9])[H:10]>>[C:1]([N:2]([C:6]1=[N:7][C@@:3]1([C:4]([O:5][H:15])([H:13])[H:14])[H:12])[H:11])([H:8])([H:9])[H:10]"
C       -2.18519464       0.59847386       0.60511391
N       -0.82957587       0.07790115       0.65215517
C        0.55199592      -0.04849449      -0.72304862
C        1.96558029      -0.43424932      -0.38265190
O        2.70336735       0.65681724       0.11112825
C       -0.49966497      -1.00599196      -0.53937969
N       -0.66352285      -1.53324029      -1.60327828
H       -2.93041316      -0.20357205       0.62015912
H       -2.36978677       1.25314033       1.45627054
H       -2.33376261       1.16589834      -0.31392494
H       -0.56067318      -0.31193453       1.54203734
H        0.46239015       0.85165711      -1.32873180
H        2.45294385      -0.77383769      -1.30002278
H        1.98690350      -1.28226663       0.31449359
H        2.24941298       0.98969893       0.88968008
15
Frame=12 idx=006551 GeodesicLength=0.8564974691295264 rxn_smarts="[C:1]([N:2]([C@@:3]([C:4]([O:5][H:15])([H:13])[H:14])([C:6]#[N:7])[H:12])[H:11])([H:8])([H:9])[H:10]>>[C:1]([N:2]([C:6]1=[N:7][C@@:3]1([C:4]([O:5][H:15])([H:13])[H:14])[H:12])[H:11])([H:8])([H:9])[H:10]"
C       -2.17828706       0.60260248       0.60769372
N       -0.81496373       0.10226282       0.64967698
C        0.54298682      -0.05654270      -0.72809984
C        1.95964592      -0.43962606      -0.38646382
O        2.68057514       0.64994582       0.13541548
C       -0.50201870      -1.01874961      -0.53541574
N       -0.63912559      -1.52856831      -1.61062239
H       -2.91236403      -0.20979027       0.62929980
H       -2.36824965       1.25557278       1.45885011
H       -2.34155481       1.16649251      -0.31093056
H       -0.53420119      -0.27420418       1.54110624
H        0.45786891       0.83423407      -1.34799932
H        2.46043805      -0.75533614      -1.30464137
H        1.98293439      -1.29992097       0.29544976
H        2.20631553       0.97162775       0.90668095
15
Frame=13 idx=006551 GeodesicLength=0.9304311632917965 rxn_smarts="[C:1]([N:2]([C@@:3]([C:4]([O:5][H:15])([H:13])[H:14])([C:6]#[N:7])[H:12])[H:11])([H:8])([H:9])[H:10]>>[C:1]([N:2]([C:6]1=[N:7][C@@:3]1([C:4]([O:5][H:15])([H:13])[H:14])[H:12])[H:11])([H:8])([H:9])[H:10]"
C       -2.17141913       0.60670591       0.61030009
N       -0.80077709       0.12638522       0.64646342
C        0.53393661      -0.06413080      -0.73286373
C        1.95363566      -0.44471809      -0.38990664
O        2.65809221       0.64272933       0.15887392
C       -0.50451930      -1.03104462      -0.53227864
N       -0.61438739      -1.52472244      -1.61717254
H       -2.89433948      -0.21573502       0.63807762
H       -2.36635005       1.25736673       1.46201804
H       -2.34949898       1.16754138      -0.30737902
H       -0.50853595      -0.23763503       1.53887349
H        0.45350515       0.81726720      -1.36654703
H        2.46743516      -0.73728047      -1.30809874
H        1.97869499      -1.31657325       0.27715814
H        2.16452758       0.95384395       0.92248163
15
Frame=14 idx=006551 GeodesicLength=1.0045307813000028 rxn_smarts="[C:1]([N:2]([C@@:3]([C:4]([O:5][H:15])([H:13])[H:14])([C:6]#[N:7])[H:12])[H:11])([H:8])([H:9])[H:10]>>[C:1]([N:2]([C:6]1=[N:7][C@@:3]1([C:4]([O:5][H:15])([H:13])[H:14])[H:12])[H:11])([H:8])([H:9])[H:10]"
C       -2.16457295       0.61074754       0.61292266
N       -0.78701201       0.15023592       0.64259965
C        0.52484593      -0.07127302      -0.73729588
C        1.94753889      -0.44954981      -0.39295691
O        2.63599731       0.63524630       0.18138977
C       -0.50715153      -1.04290941      -0.52988979
N       -0.58942544      -1.52148728      -1.62310801
H       -2.87634525      -0.22143715       0.64638100
H       -2.36411051       1.25844100       1.46575245
H       -2.35748589       1.16903756      -0.30324471
H       -0.48374222      -0.20229129       1.53544785
H        0.44931212       0.80074082      -1.38434995
H        2.47389169      -0.71983866      -1.31041134
H        1.97414580      -1.33218959       0.25977505
H        2.12411405       0.93652708       0.93698817
15
Frame=15 idx=006551 GeodesicLength=1.0787601292367819 rxn_smarts="[C:1]([N:2]([C@@:3]([C:4]([O:5][H:15])([H:13])[H:14])([C:6]#[N:7])[H:12])[H:11])([H:8])([H:9])[H:10]>>[C:1]([N:2]([C:6]1=[N:7][C@@:3]1([C:4]([O:5][H:15])([H:13])[H:14])[H:12])[H:11])([H:8])([H:9])[H:10]"
C       -2.15774096       0.61472146       0.61555574
N       -0.77366401       0.17377533       0.63818021
C        0.51570956      -0.07800281      -0.74138435
C        1.94135506      -0.45414984      -0.39561071
O        2.61435333       0.62758086       0.20289164
C       -0.50990894      -1.05441326      -0.52823984
N       -0.56428580      -1.51871637      -1.62851853
H       -2.85841476      -0.22689448       0.65409660
H       -2.36155040       1.25876660       1.47005769
H       -2.36543646       1.17101878      -0.29852602
H       -0.45986824      -0.16827982       1.53097600
H        0.44527717       0.78464484      -1.40138128
H        2.47979997      -0.70314106      -1.31163080
H        1.96927839      -1.34679028       0.24338813
H        2.08509609       0.91988003       0.95014554
15
Frame=16 idx=006551 GeodesicLength=1.1530689381133816 rxn_smarts="[C:1]([N:2]([C@@:3]([C:4]([O:5][H:15])([H:13])[H:14])([C:6]#[N:7])[H:12])[H:11])([H:8])([H:9])[H:10]>>[C:1]([N:2]([C:6]1=[N:7][C@@:3]1([C:4]([O:5][H:15])([H:13])[H:14])[H:12])[H:11])([H:8])([H:9])[H:10]"
C       -2.15090855       0.61862317       0.61819005
N       -0.76071885       0.19697290       0.63329428
C        0.50651822      -0.08435479      -0.74512285
C        1.93508155      -0.45854186      -0.39787250
O        2.59319640       0.61981927       0.22334086
C       -0.51278429      -1.06562152      -0.52730639
N       -0.53902097      -1.51629137      -1.63348487
H       -2.84057107      -0.23210778       0.66113758
H       -2.35867536       1.25833424       1.47491519
H       -2.37327394       1.17350406      -0.29323472
H       -0.43693854      -0.13567452       1.52559861
H        0.44138107       0.76896819      -1.41762616
H        2.48515596      -0.68727766      -1.31182845
H        1.96409130      -1.36040967       0.22805598
H        2.04746708       0.90405732       0.96194340
