15
Frame=0 idx=005973 GeodesicLength=0.0 rxn_smarts="[C:1]([C:2]([C:3](=[O:4])[N:5]([C:6]([H:13])([H:14])[H:15])[H:12])([H:10])[H:11])([H:7])([H:8])[H:9]>>[C:1](/[C:2](=[C:3](\[O:4][H:10])[N:5]([C:6]([H:13])([H:14])[H:15])[H:12])[H:11])([H:7])([H:8])[H:9]"
C        2.30898878      -0.34089020      -0.15875852
C        1.22251309       0.70340142       0.08302169
C       -0.10211910       0.18180540       0.29665317
O       -0.20341819      -0.23148389       1.52068038
N       -1.15131780       0.16883510      -0.51199240
C       -2.49580573      -0.18000167      -0.10156794
H        2.31762227      -0.73329557      -1.18393132
H        3.29275038       0.09278004       0.02839334
H        2.20263427      -1.19405154       0.51520638
H        0.82123560       0.38316395       1.55444502
H        1.28403709       1.54649220      -0.60622718
H       -0.98061308       0.40040713      -1.47408216
H       -2.73810091      -1.21185962      -0.36279192
H       -2.56421006      -0.07280874       0.97912364
H       -3.21419657       0.48750592      -0.57817219
15
Frame=1 idx=005973 GeodesicLength=0.052788282972766616 rxn_smarts="[C:1]([C:2]([C:3](=[O:4])[N:5]([C:6]([H:13])([H:14])[H:15])[H:12])([H:10])[H:11])([H:7])([H:8])[H:9]>>[C:1](/[C:2](=[C:3](\[O:4][H:10])[N:5]([C:6]([H:13])([H:14])[H:15])[H:12])[H:11])([H:7])([H:8])[H:9]"
C        2.32560564      -0.33312821      -0.14631551
C        1.21374292       0.68964027       0.06462898
C       -0.09932824       0.14130932       0.28065253
O       -0.19959510      -0.24441621       1.51338162
N       -1.15706437       0.14522104      -0.51997288
C       -2.50521736      -0.17097037      -0.09733786
H        2.35511068      -0.74018260      -1.16501592
H        3.29732838       0.12529150       0.04592055
H        2.22966067      -1.17766760       0.54009163
H        0.82714288       0.39309633       1.54472585
H        1.25970025       1.51988703      -0.64100096
H       -0.99360942       0.40203323      -1.47692815
H       -2.78797185      -1.18127552      -0.39939382
H       -2.55713508      -0.10983504       0.98774128
H       -3.20837000       0.54099683      -0.53117734
15
Frame=2 idx=005973 GeodesicLength=0.10485443151763006 rxn_smarts="[C:1]([C:2]([C:3](=[O:4])[N:5]([C:6]([H:13])([H:14])[H:15])[H:12])([H:10])[H:11])([H:7])([H:8])[H:9]>>[C:1](/[C:2](=[C:3](\[O:4][H:10])[N:5]([C:6]([H:13])([H:14])[H:15])[H:12])[H:11])([H:7])([H:8])[H:9]"
C        2.34141982      -0.32429923      -0.13401597
C        1.20419046       0.67486486       0.04632699
C       -0.09665569       0.09983869       0.26467348
O       -0.19601385      -0.25903311       1.50512859
N       -1.16239736       0.11948238      -0.52832303
C       -2.51364286      -0.16120614      -0.09286514
H        2.39240574      -0.74501272      -1.14575166
H        3.30001622       0.15921417       0.06302333
H        2.25606585      -1.16002399       0.56436334
H        0.83162128       0.40287696       1.53420390
H        1.23485131       1.49197240      -0.67486258
H       -1.00521963       0.39969005      -1.47967588
H       -2.83889745      -1.14585821      -0.43406059
H       -2.55042066      -0.14702143       0.99420886
H       -3.19732320       0.59451531      -0.48237364
15
Frame=3 idx=005973 GeodesicLength=0.15648968208411285 rxn_smarts="[C:1]([C:2]([C:3](=[O:4])[N:5]([C:6]([H:13])([H:14])[H:15])[H:12])([H:10])[H:11])([H:7])([H:8])[H:9]>>[C:1](/[C:2](=[C:3](\[O:4][H:10])[N:5]([C:6]([H:13])([H:14])[H:15])[H:12])[H:11])([H:7])([H:8])[H:9]"
C        2.35528142      -0.31579303      -0.12218256
C        1.19493711       0.66009479       0.02827301
C       -0.09422515       0.06082971       0.24972595
O       -0.19299773      -0.27148141       1.49734250
N       -1.16741555       0.09501321      -0.53631703
C       -2.52062283      -0.15246200      -0.08853238
H        2.42692266      -0.74948025      -1.12668372
H        3.30086636       0.19141127       0.07890166
H        2.27920193      -1.14236720       0.58802966
H        0.83583192       0.41449249       1.52356913
H        1.21180041       1.46350785      -0.70824073
H       -1.01556438       0.39721968      -1.48179036
H       -2.88699584      -1.10794310      -0.46877188
H       -2.54454973      -0.18755144       0.99826440
H       -3.18247060       0.64450945      -0.43158766
15
Frame=4 idx=005973 GeodesicLength=0.207696923575051 rxn_smarts="[C:1]([C:2]([C:3](=[O:4])[N:5]([C:6]([H:13])([H:14])[H:15])[H:12])([H:10])[H:11])([H:7])([H:8])[H:9]>>[C:1](/[C:2](=[C:3](\[O:4][H:10])[N:5]([C:6]([H:13])([H:14])[H:15])[H:12])[H:11])([H:7])([H:8])[H:9]"
C        2.36754898      -0.30737341      -0.11078375
C        1.18580454       0.64523936       0.01059733
C       -0.09204597       0.02366549       0.23564614
O       -0.19052285      -0.28260361       1.48977463
N       -1.17212980       0.07115108      -0.54415083
C       -2.52636649      -0.14435749      -0.08426845
H        2.45926998      -0.75323117      -1.10783085
H        3.30008327       0.22241299       0.09373961
H        2.29978950      -1.12464094       0.61094036
H        0.83963347       0.42727425       1.51276412
H        1.18999651       1.43461337      -0.74080947
H       -1.02473279       0.39393943      -1.48355415
H       -2.93282123      -1.06720471      -0.50253010
H       -2.53956458      -0.22998525       0.99979542
H       -3.16394254       0.69110061      -0.37933002
15
Frame=5 idx=005973 GeodesicLength=0.25847960598384445 rxn_smarts="[C:1]([C:2]([C:3](=[O:4])[N:5]([C:6]([H:13])([H:14])[H:15])[H:12])([H:10])[H:11])([H:7])([H:8])[H:9]>>[C:1](/[C:2](=[C:3](\[O:4][H:10])[N:5]([C:6]([H:13])([H:14])[H:15])[H:12])[H:11])([H:7])([H:8])[H:9]"
C        2.37808928      -0.29950311      -0.09983289
C        1.17707986       0.63055156      -0.00669391
C       -0.09014936      -0.01086332       0.22258422
O       -0.18867317      -0.29130084       1.48265332
N       -1.17659691       0.04896876      -0.55164847
C       -2.53088953      -0.13738106      -0.08018247
H        2.48892932      -0.75698843      -1.08917552
H        3.29789955       0.25134465       0.10734951
H        2.31742138      -1.10719391       0.63321205
H        0.84339152       0.44174899       1.50179523
H        1.16994910       1.40544537      -0.77271013
H       -1.03300481       0.39150246      -1.48468223
H       -2.97518606      -1.02449855      -0.53560407
H       -2.53546785      -0.27483185       0.99851847
H       -3.14279234       0.73299926      -0.32558311
15
Frame=6 idx=005973 GeodesicLength=0.30889718014763046 rxn_smarts="[C:1]([C:2]([C:3](=[O:4])[N:5]([C:6]([H:13])([H:14])[H:15])[H:12])([H:10])[H:11])([H:7])([H:8])[H:9]>>[C:1](/[C:2](=[C:3](\[O:4][H:10])[N:5]([C:6]([H:13])([H:14])[H:15])[H:12])[H:11])([H:7])([H:8])[H:9]"
C        2.38713225      -0.29208536      -0.08937055
C        1.16875218       0.61605967      -0.02339676
C       -0.08852854      -0.04309812       0.21045516
O       -0.18747017      -0.29819965       1.47584979
N       -1.18082385       0.02831564      -0.55891078
C       -2.53440519      -0.13132229      -0.07627004
H        2.51615545      -0.76051285      -1.07089941
H        3.29457829       0.27841957       0.11982477
H        2.33248348      -1.09014986       0.65462156
H        0.84713705       0.45733735       1.49076507
H        1.15147764       1.37629190      -0.80353949
H       -1.04039243       0.38976686      -1.48533325
H       -3.01417781      -0.98032552      -0.56695947
H       -2.53230823      -0.32046276       0.99453077
H       -3.11961012       0.76996542      -0.27136737
15
Frame=7 idx=005973 GeodesicLength=0.3589948969203045 rxn_smarts="[C:1]([C:2]([C:3](=[O:4])[N:5]([C:6]([H:13])([H:14])[H:15])[H:12])([H:10])[H:11])([H:7])([H:8])[H:9]>>[C:1](/[C:2](=[C:3](\[O:4][H:10])[N:5]([C:6]([H:13])([H:14])[H:15])[H:12])[H:11])([H:7])([H:8])[H:9]"
C        2.39469001      -0.28556263      -0.07935669
C        1.16107641       0.60192616      -0.03963370
C       -0.08720100      -0.07245221       0.19930792
O       -0.18694830      -0.30226249       1.46952710
N       -1.18487508       0.01016868      -0.56580803
C       -2.53702135      -0.12665249      -0.07262685
H        2.54070324      -0.76464841      -1.05286451
H        3.29046548       0.30290415       0.13104184
H        2.34478779      -1.07374584       0.67544052
H        0.85122887       0.47464745       1.47957167
H        1.13501256       1.34718717      -0.83359619
H       -1.04726426       0.39052892      -1.48507816
H       -3.04908952      -0.93560885      -0.59705954
H       -2.52985080      -0.36742962       0.98764921
H       -3.09571405       0.80100000      -0.21651459
15
Frame=8 idx=005973 GeodesicLength=0.40891401191081334 rxn_smarts="[C:1]([C:2]([C:3](=[O:4])[N:5]([C:6]([H:13])([H:14])[H:15])[H:12])([H:10])[H:11])([H:7])([H:8])[H:9]>>[C:1](/[C:2](=[C:3](\[O:4][H:10])[N:5]([C:6]([H:13])([H:14])[H:15])[H:12])[H:11])([H:7])([H:8])[H:9]"
C        2.40131232      -0.27870449      -0.06987203
C        1.15337246       0.58778933      -0.05475175
C       -0.08605763      -0.10129165       0.18871063
O       -0.18686997      -0.30741037       1.46295303
N       -1.18867531      -0.00803421      -0.57279857
C       -2.53900355      -0.12174925      -0.06905627
H        2.56379956      -0.76700948      -1.03565978
H        3.28538332       0.32705176       0.14167546
H        2.35585277      -1.05761938       0.69473343
H        0.85500525       0.49105680       1.46861226
H        1.11894938       1.31853388      -0.86150206
H       -1.05298822       0.38945111      -1.48513940
H       -3.08178683      -0.88982185      -0.62315414
H       -2.52846908      -0.41084712       0.97904333
H       -3.06982447       0.82860491      -0.16379414
15
Frame=9 idx=005973 GeodesicLength=0.4584405733694914 rxn_smarts="[C:1]([C:2]([C:3](=[O:4])[N:5]([C:6]([H:13])([H:14])[H:15])[H:12])([H:10])[H:11])([H:7])([H:8])[H:9]>>[C:1](/[C:2](=[C:3](\[O:4][H:10])[N:5]([C:6]([H:13])([H:14])[H:15])[H:12])[H:11])([H:7])([H:8])[H:9]"
C        2.40692276      -0.27204371      -0.06100602
C        1.14588334       0.57392115      -0.06880471
C       -0.08511875      -0.12878041       0.17883349
O       -0.18728451      -0.31255398       1.45647688
N       -1.19223084      -0.02511033      -0.57962436
C       -2.54034603      -0.11713354      -0.06567056
H        2.58511771      -0.76841096      -1.01941169
H        3.27958504       0.34988455       0.15153717
H        2.36533394      -1.04227206       0.71255290
H        0.85880584       0.50714811       1.45800760
H        1.10374622       1.29067215      -0.88739559
H       -1.05778150       0.38830122      -1.48508228
H       -3.11118627      -0.84448881      -0.64581049
H       -2.52793019      -0.45101788       0.96901972
H       -3.04351676       0.85188450      -0.11362206
15
Frame=10 idx=005973 GeodesicLength=0.5078991366238148 rxn_smarts="[C:1]([C:2]([C:3](=[O:4])[N:5]([C:6]([H:13])([H:14])[H:15])[H:12])([H:10])[H:11])([H:7])([H:8])[H:9]>>[C:1](/[C:2](=[C:3](\[O:4][H:10])[N:5]([C:6]([H:13])([H:14])[H:15])[H:12])[H:11])([H:7])([H:8])[H:9]"
C        2.41165589      -0.26553228      -0.05262598
C        1.13862586       0.56028050      -0.08195914
C       -0.08435494      -0.15518264       0.16955328
O       -0.18807283      -0.31773381       1.45007738
N       -1.19561811      -0.04127034      -0.58631836
C       -2.54119276      -0.11275889      -0.06244424
H        2.60479290      -0.76904269      -1.00390460
H        3.27320709       0.37167014       0.16070040
H        2.37346184      -1.02749486       0.72925478
H        0.86270746       0.52312893       1.44763779
H        1.08936550       1.26339183      -0.91167494
H       -1.06182620       0.38710041      -1.48494502
H       -3.13775978      -0.79947434      -0.66568001
H       -2.52821739      -0.48861731       0.95777803
H       -3.01677453       0.87153537      -0.06544937
15
Frame=11 idx=005973 GeodesicLength=0.5572230988242489 rxn_smarts="[C:1]([C:2]([C:3](=[O:4])[N:5]([C:6]([H:13])([H:14])[H:15])[H:12])([H:10])[H:11])([H:7])([H:8])[H:9]>>[C:1](/[C:2](=[C:3](\[O:4][H:10])[N:5]([C:6]([H:13])([H:14])[H:15])[H:12])[H:11])([H:7])([H:8])[H:9]"
C        2.41572883      -0.25899265      -0.04462048
C        1.13140204       0.54671282      -0.09434416
C       -0.08371860      -0.18101228       0.16065205
O       -0.18914550      -0.32350354       1.44359981
N       -1.19886195      -0.05697598      -0.59298850
C       -2.54158258      -0.10836965      -0.05931105
H        2.62338118      -0.76887163      -0.98896350
H        3.26620420       0.39289434       0.16930138
H        2.38072992      -1.01303669       0.74507169
H        0.86640627       0.53885769       1.43739280
H        1.07540566       1.23654436      -0.93451296
H       -1.06520805       0.38536653      -1.48490291
H       -3.16212139      -0.75429433      -0.68294302
H       -2.52921086      -0.52368830       0.94557770
H       -2.98940917       0.88836932      -0.01900883
15
Frame=12 idx=005973 GeodesicLength=0.6064672829895628 rxn_smarts="[C:1]([C:2]([C:3](=[O:4])[N:5]([C:6]([H:13])([H:14])[H:15])[H:12])([H:10])[H:11])([H:7])([H:8])[H:9]>>[C:1](/[C:2](=[C:3](\[O:4][H:10])[N:5]([C:6]([H:13])([H:14])[H:15])[H:12])[H:11])([H:7])([H:8])[H:9]"
C        2.41909074      -0.25241579      -0.03710052
C        1.12427238       0.53334483      -0.10572514
C       -0.08320779      -0.20623075       0.15224390
O       -0.19043783      -0.33001267       1.43711371
N       -1.20194696      -0.07226780      -0.59951396
C       -2.54155837      -0.10391150      -0.05634421
H        2.64057104      -0.76762966      -0.97486489
H        3.25869846       0.41343917       0.17733812
H        2.38707068      -0.99908951       0.75965800
H        0.87019654       0.55404420       1.42748885
H        1.06187929       1.21046338      -0.95548422
H       -1.06783577       0.38293702      -1.48488947
H       -3.18408481      -0.70985543      -0.69745421
H       -2.53099859      -0.55541194       0.93288343
H       -2.96170900       0.90259645       0.02465061
15
Frame=13 idx=005973 GeodesicLength=0.6556378855468579 rxn_smarts="[C:1]([C:2]([C:3](=[O:4])[N:5]([C:6]([H:13])([H:14])[H:15])[H:12])([H:10])[H:11])([H:7])([H:8])[H:9]>>[C:1](/[C:2](=[C:3](\[O:4][H:10])[N:5]([C:6]([H:13])([H:14])[H:15])[H:12])[H:11])([H:7])([H:8])[H:9]"
C        2.42182489      -0.24598648      -0.02998721
C        1.11729636       0.52021597      -0.11630992
C       -0.08280595      -0.23066601       0.14428853
O       -0.19191433      -0.33678975       1.43076437
N       -1.20489794      -0.08681244      -0.60589628
C       -2.54116977      -0.09958133      -0.05352701
H        2.65648572      -0.76583913      -0.96147050
H        3.25081952       0.43312547       0.18480621
H        2.39252968      -0.98567775       0.77335925
H        0.87413849       0.56916117       1.41785349
H        1.04888524       1.18507641      -0.97502802
H       -1.06989319       0.38041696      -1.48488250
H       -3.20372654      -0.66620144      -0.70991151
H       -2.53335433      -0.58469052       0.91975995
H       -2.93421787       0.91424887       0.06618115
15
Frame=14 idx=005973 GeodesicLength=0.7048210623919696 rxn_smarts="[C:1]([C:2]([C:3](=[O:4])[N:5]([C:6]([H:13])([H:14])[H:15])[H:12])([H:10])[H:11])([H:7])([H:8])[H:9]>>[C:1](/[C:2](=[C:3](\[O:4][H:10])[N:5]([C:6]([H:13])([H:14])[H:15])[H:12])[H:11])([H:7])([H:8])[H:9]"
C        2.42399389      -0.23958122      -0.02317423
C        1.11036318       0.50721520      -0.12624496
C       -0.08249555      -0.25464882       0.13665501
O       -0.19355199      -0.34401482       1.42443835
N       -1.20773324      -0.10097846      -0.61218223
C       -2.54041396      -0.09526101      -0.05078928
H        2.67135599      -0.76355532      -0.94855213
H        3.24247476       0.45231455       0.19174545
H        2.39729279      -0.97250855       0.78643615
H        0.87803409       0.58431639       1.40829873
H        1.03624854       1.16010586      -0.99343344
H       -1.07144259       0.37752414      -1.48491948
H       -3.22141774      -0.62268816      -0.72068889
H       -2.53629309      -0.61209679       0.90613762
H       -2.90641509       0.92385702       0.10627332
15
Frame=15 idx=005973 GeodesicLength=0.7538265696491686 rxn_smarts="[C:1]([C:2]([C:3](=[O:4])[N:5]([C:6]([H:13])([H:14])[H:15])[H:12])([H:10])[H:11])([H:7])([H:8])[H:9]>>[C:1](/[C:2](=[C:3](\[O:4][H:10])[N:5]([C:6]([H:13])([H:14])[H:15])[H:12])[H:11])([H:7])([H:8])[H:9]"
C        2.42562850      -0.23324397      -0.01678746
C        1.10349544       0.49448095      -0.13528741
C       -0.08225462      -0.27807598       0.12945165
O       -0.19530720      -0.35184642       1.41823699
N       -1.21041318      -0.11471864      -0.61829581
C       -2.53934033      -0.09089543      -0.04822532
H        2.68506436      -0.76055084      -0.93644273
H        3.23382239       0.47078164       0.19817574
H        2.40141580      -0.95990575       0.79851019
H        0.88210707       0.59915332       1.39910894
H        1.02388401       1.13605369      -1.01019250
H       -1.07239221       0.37416165      -1.48500722
H       -3.23701424      -0.58034740      -0.72952605
H       -2.53976040      -0.63669713       0.89256572
H       -2.87893540       0.93165029       0.14371528
15
Frame=16 idx=005973 GeodesicLength=0.8028205802528656 rxn_smarts="[C:1]([C:2]([C:3](=[O:4])[N:5]([C:6]([H:13])([H:14])[H:15])[H:12])([H:10])[H:11])([H:7])([H:8])[H:9]>>[C:1](/[C:2](=[C:3](\[O:4][H:10])[N:5]([C:6]([H:13])([H:14])[H:15])[H:12])[H:11])([H:7])([H:8])[H:9]"
C        2.42678444      -0.22699625      -0.01072814
C        1.09670997       0.48197521      -0.14362195
C       -0.08208632      -0.30100616       0.12260370
O       -0.19716597      -0.36009403       1.41217876
N       -1.21298866      -0.12804460      -0.62427142
C       -2.53799324      -0.08655231      -0.04579069
H        2.69772092      -0.75708871      -0.92495046
H        3.22491710       0.48862146       0.20412581
H        2.40494200      -0.94771764       0.80989117
H        0.88635111       0.61400185       1.39013331
H        1.01183844       1.11269768      -1.02570711
H       -1.07288113       0.37051549      -1.48514623
H       -3.25078107      -0.53880886      -0.73693677
H       -2.54371633      -0.65929106       0.87892972
H       -2.85165126       0.93778793       0.17929028
