15
Frame=0 idx=009596 GeodesicLength=0.0 rxn_smarts="[O:1]([C@@:2]1([H:9])[C:3]([H:10])([H:11])[C@@:4]2([O:5][H:12])[C:6]([H:13])([H:14])[C@@:7]12[H:15])[H:8]>>[O:1]([C@@:2]1([H:9])[C:3]([H:10])([H:11])[C@@:7]1([C:4]([O:5][H:12])=[C:6]([H:13])[H:14])[H:15])[H:8]"
O        2.52343074       0.47386000       0.15722382
C        1.23203002       0.48966388       0.71356849
C        0.17568125       0.93822538      -0.26669208
C       -0.91534261      -0.27330861       0.05062189
O       -1.86708571       0.07011116       1.00818944
C       -1.32298271      -0.94810050      -1.09313935
C        0.41846034      -0.75269179       0.63560940
H        3.11520851       0.03906106       0.77352375
H        1.20878736       1.00650666       1.67532068
H       -0.38065243       1.83327638       0.00051604
H        0.52978279       0.93756278      -1.29099339
H       -2.65760420       0.34004488       0.53056891
H       -2.20421909      -1.57973717      -1.08385288
H       -0.70907685      -0.93934889      -1.98102319
H        0.85358259      -1.63512518       0.17055853
15
Frame=1 idx=009596 GeodesicLength=0.07859636789142034 rxn_smarts="[O:1]([C@@:2]1([H:9])[C:3]([H:10])([H:11])[C@@:4]2([O:5][H:12])[C:6]([H:13])([H:14])[C@@:7]12[H:15])[H:8]>>[O:1]([C@@:2]1([H:9])[C:3]([H:10])([H:11])[C@@:7]1([C:4]([O:5][H:12])=[C:6]([H:13])[H:14])[H:15])[H:8]"
O        2.52753516       0.46655344       0.16185194
C        1.23162484       0.49084637       0.70607061
C        0.18628074       0.94893030      -0.28000669
C       -0.92716803      -0.25770997       0.05389596
O       -1.87425659       0.06208504       1.02068224
C       -1.31174125      -0.95405024      -1.08419369
C        0.40934184      -0.74410872       0.60742548
H        3.11041446       0.02671765       0.78310678
H        1.19971554       1.00261190       1.67011417
H       -0.36510438       1.84795377      -0.01647654
H        0.54742457       0.95669369      -1.30206997
H       -2.67636648       0.31184842       0.55167512
H       -2.19007591      -1.58955939      -1.07463902
H       -0.71237200      -0.92353905      -1.98143902
H        0.84474748      -1.64527321       0.18400264
15
Frame=2 idx=009596 GeodesicLength=0.15714479178551644 rxn_smarts="[O:1]([C@@:2]1([H:9])[C:3]([H:10])([H:11])[C@@:4]2([O:5][H:12])[C:6]([H:13])([H:14])[C@@:7]12[H:15])[H:8]>>[O:1]([C@@:2]1([H:9])[C:3]([H:10])([H:11])[C@@:7]1([C:4]([O:5][H:12])=[C:6]([H:13])[H:14])[H:15])[H:8]"
O        2.53149789       0.45907335       0.16670649
C        1.23104256       0.49215441       0.69825105
C        0.19720031       0.95954843      -0.29405490
C       -0.93883570      -0.24213311       0.05672277
O       -1.88044831       0.05242857       1.03357456
C       -1.30080093      -0.95864465      -1.07580480
C        0.40034295      -0.73518875       0.57850543
H        3.10510710       0.01436327       0.79316419
H        1.19005387       0.99903439       1.66435633
H       -0.34924676       1.86252001      -0.03435270
H        0.56612761       0.97593711      -1.31349729
H       -2.69407786       0.28174135       0.57427065
H       -2.17596361      -1.59838476      -1.06597166
H       -0.71672376      -0.90744114      -1.98214354
H        0.83472463      -1.65500847       0.20027342
15
Frame=3 idx=009596 GeodesicLength=0.2356126009918561 rxn_smarts="[O:1]([C@@:2]1([H:9])[C:3]([H:10])([H:11])[C@@:4]2([O:5][H:12])[C:6]([H:13])([H:14])[C@@:7]12[H:15])[H:8]>>[O:1]([C@@:2]1([H:9])[C:3]([H:10])([H:11])[C@@:7]1([C:4]([O:5][H:12])=[C:6]([H:13])[H:14])[H:15])[H:8]"
O        2.53528247       0.45144319       0.17175420
C        1.23027686       0.49355755       0.69010271
C        0.20842010       0.97005259      -0.30881150
C       -0.95032747      -0.22666618       0.05917899
O       -1.88557882       0.04105526       1.04684733
C       -1.29023646      -0.96185852      -1.06803987
C        0.39151247      -0.72599653       0.54881135
H        3.09927312       0.00202721       0.80362832
H        1.17981540       0.99573216       1.65804171
H       -0.33311118       1.87693089      -0.05305356
H        0.58585404       0.99529362      -1.32523252
H       -2.71052283       0.24981315       0.59827402
H       -2.16192701      -1.60621448      -1.05792194
H       -0.72204428      -0.89107570      -1.98314647
H        0.82331359      -1.66409420       0.21956723
15
Frame=4 idx=009596 GeodesicLength=0.3139688167721732 rxn_smarts="[O:1]([C@@:2]1([H:9])[C:3]([H:10])([H:11])[C@@:4]2([O:5][H:12])[C:6]([H:13])([H:14])[C@@:7]12[H:15])[H:8]>>[O:1]([C@@:2]1([H:9])[C:3]([H:10])([H:11])[C@@:7]1([C:4]([O:5][H:12])=[C:6]([H:13])[H:14])[H:15])[H:8]"
O        2.53886351       0.44368385       0.17695766
C        1.22933100       0.49502082       0.68162101
C        0.21992036       0.98041578      -0.32424052
C       -0.96161844      -0.21140964       0.06135246
O       -1.88957199       0.02789621       1.06046179
C       -1.28011780      -0.96369668      -1.06095560
C        0.38290144      -0.71660714       0.51831378
H        3.09291864      -0.01027346       0.81441992
H        1.16902888       0.99265751       1.65116940
H       -0.31673624       1.89114155      -0.07250182
H        0.60655823       1.01476986      -1.33722074
H       -2.72550934       0.21616390       0.62356433
H       -2.14800765      -1.61307560      -1.05054979
H       -0.72826003      -0.87444678      -1.98446392
H        0.81029944      -1.67224018       0.24207203
15
Frame=5 idx=009596 GeodesicLength=0.39217824174989296 rxn_smarts="[O:1]([C@@:2]1([H:9])[C:3]([H:10])([H:11])[C@@:4]2([O:5][H:12])[C:6]([H:13])([H:14])[C@@:7]12[H:15])[H:8]>>[O:1]([C@@:2]1([H:9])[C:3]([H:10])([H:11])[C@@:7]1([C:4]([O:5][H:12])=[C:6]([H:13])[H:14])[H:15])[H:8]"
O        2.54218559       0.43585213       0.18230168
C        1.22817521       0.49647687       0.67280960
C        0.23167264       0.99055234      -0.34030592
C       -0.97265356      -0.19652956       0.06336688
O       -1.89233271       0.01287696       1.07438097
C       -1.27048413      -0.96421159      -1.05455999
C        0.37457749      -0.70713727       0.48699192
H        3.08600804      -0.02247918       0.82547457
H        1.15766988       0.98971356       1.64374137
H       -0.30017387       1.90502854      -0.09263632
H        0.62818577       1.03431217      -1.34940396
H       -2.73877834       0.18103745       0.64997154
H       -2.13429278      -1.61893243      -1.04390156
H       -0.73532315      -0.85753068      -1.98609425
H        0.79556391      -1.67902931       0.26786345
15
Frame=6 idx=009596 GeodesicLength=0.4702364882940486 rxn_smarts="[O:1]([C@@:2]1([H:9])[C:3]([H:10])([H:11])[C@@:4]2([O:5][H:12])[C:6]([H:13])([H:14])[C@@:7]12[H:15])[H:8]>>[O:1]([C@@:2]1([H:9])[C:3]([H:10])([H:11])[C@@:7]1([C:4]([O:5][H:12])=[C:6]([H:13])[H:14])[H:15])[H:8]"
O        2.54527436       0.42793342       0.18781492
C        1.22683147       0.49788727       0.66367615
C        0.24368799       1.00043301      -0.35699826
C       -0.98339643      -0.18211829       0.06531633
O       -1.89377243      -0.00399725       1.08857156
C       -1.26142862      -0.96343731      -1.04890171
C        0.36659248      -0.69769208       0.45482845
H        3.07857283      -0.03462296       0.83681358
H        1.14576610       0.98688401       1.63576678
H       -0.28344019       1.91857305      -0.11344124
H        0.65074951       1.05390272      -1.36174466
H       -2.75023388       0.14444068       0.67739343
H       -2.12077245      -1.62394907      -1.03795907
H       -0.74331835      -0.84021715      -1.98811048
H        0.77888763      -1.68402006       0.29697421
15
Frame=7 idx=009596 GeodesicLength=0.548150816317818 rxn_smarts="[O:1]([C@@:2]1([H:9])[C:3]([H:10])([H:11])[C@@:4]2([O:5][H:12])[C:6]([H:13])([H:14])[C@@:7]12[H:15])[H:8]>>[O:1]([C@@:2]1([H:9])[C:3]([H:10])([H:11])[C@@:7]1([C:4]([O:5][H:12])=[C:6]([H:13])[H:14])[H:15])[H:8]"
O        2.54811549       0.41993829       0.19355499
C        1.22528615       0.49919312       0.65423982
C        0.25597749       1.00997067      -0.37430485
C       -0.99378393      -0.16830266       0.06733243
O       -1.89380024      -0.02270388       1.10298942
C       -1.25300562      -0.96142992      -1.04396929
C        0.35899141      -0.68837798       0.42185587
H        3.07058088      -0.04672341       0.84847136
H        1.13329634       0.98413490       1.62723724
H       -0.26654848       1.93167566      -0.13492874
H        0.67427012       1.07345177      -1.37418867
H       -2.75973644       0.10645080       0.70568668
H       -2.10744327      -1.62822600      -1.03266361
H       -0.75234383      -0.82237066      -1.99052800
H        0.76014393      -1.68668070       0.32921535
15
Frame=8 idx=009596 GeodesicLength=0.6260943930883649 rxn_smarts="[O:1]([C@@:2]1([H:9])[C:3]([H:10])([H:11])[C@@:4]2([O:5][H:12])[C:6]([H:13])([H:14])[C@@:7]12[H:15])[H:8]>>[O:1]([C@@:2]1([H:9])[C:3]([H:10])([H:11])[C@@:7]1([C:4]([O:5][H:12])=[C:6]([H:13])[H:14])[H:15])[H:8]"
O        2.55073405       0.41184138       0.19957258
C        1.22353877       0.50033985       0.64450924
C        0.26860820       1.01908207      -0.39219612
C       -1.00378373      -0.15517388       0.06955070
O       -1.89243265      -0.04314869       1.11754804
C       -1.24527928      -0.95822119      -1.03969938
C        0.35174517      -0.67928352       0.38816547
H        3.06201247      -0.05882347       0.86046621
H        1.12024195       0.98146724       1.61809320
H       -0.24943980       1.94424880      -0.15711235
H        0.69887146       1.09286745      -1.38663275
H       -2.76729374       0.06698715       0.73469591
H       -2.09424855      -1.63193714      -1.02785580
H       -0.76248007      -0.80383181      -1.99327244
H        0.73920574      -1.68641424       0.36416750
15
Frame=9 idx=009596 GeodesicLength=0.7036525626249646 rxn_smarts="[O:1]([C@@:2]1([H:9])[C:3]([H:10])([H:11])[C@@:4]2([O:5][H:12])[C:6]([H:13])([H:14])[C@@:7]12[H:15])[H:8]>>[O:1]([C@@:2]1([H:9])[C:3]([H:10])([H:11])[C@@:7]1([C:4]([O:5][H:12])=[C:6]([H:13])[H:14])[H:15])[H:8]"
O        2.55300187       0.40368686       0.20608505
C        1.22153643       0.50122309       0.63467517
C        0.28146237       1.02754675      -0.41062548
C       -1.01328961      -0.14296273       0.07219344
O       -1.88955981      -0.06511875       1.13226707
C       -1.23829372      -0.95405761      -1.03602153
C        0.34491307      -0.67062961       0.35410058
H        3.05282400      -0.07084278       0.87305835
H        1.10665455       0.97890927       1.60853798
H       -0.23226146       1.95609676      -0.18002193
H        0.72431112       1.11182531      -1.39906445
H       -2.77266240       0.02672098       0.76412932
H       -2.08139104      -1.63504692      -1.02358712
H       -0.77391991      -0.78476190      -1.99633870
H        0.71667454      -1.68258871       0.40061225
15
Frame=10 idx=009596 GeodesicLength=0.7815077450161277 rxn_smarts="[O:1]([C@@:2]1([H:9])[C:3]([H:10])([H:11])[C@@:4]2([O:5][H:12])[C:6]([H:13])([H:14])[C@@:7]12[H:15])[H:8]>>[O:1]([C@@:2]1([H:9])[C:3]([H:10])([H:11])[C@@:7]1([C:4]([O:5][H:12])=[C:6]([H:13])[H:14])[H:15])[H:8]"
O        2.55499399       0.39539728       0.21306086
C        1.21927290       0.50184702       0.62471362
C        0.29473473       1.03528808      -0.42949331
C       -1.02238155      -0.13165853       0.07542932
O       -1.88558293      -0.08846169       1.14698376
C       -1.23206524      -0.94890422      -1.03265761
C        0.33823359      -0.66236411       0.32000757
H        3.04297144      -0.08281157       0.88614795
H        1.09246890       0.97661343       1.59833943
H       -0.21480614       1.96712382      -0.20367828
H        0.75098154       1.13020968      -1.41123233
H       -2.77624411      -0.01458428       0.79380542
H       -2.06869613      -1.63778562      -1.01941969
H       -0.78644653      -0.76501758      -1.99929736
H        0.69256553      -1.67489171       0.43729064
15
Frame=11 idx=009596 GeodesicLength=0.8589010211824043 rxn_smarts="[O:1]([C@@:2]1([H:9])[C:3]([H:10])([H:11])[C@@:4]2([O:5][H:12])[C:6]([H:13])([H:14])[C@@:7]12[H:15])[H:8]>>[O:1]([C@@:2]1([H:9])[C:3]([H:10])([H:11])[C@@:7]1([C:4]([O:5][H:12])=[C:6]([H:13])[H:14])[H:15])[H:8]"
O        2.55655367       0.38698302       0.22079976
C        1.21672838       0.50219972       0.61494648
C        0.30820000       1.04212473      -0.44872001
C       -1.03102711      -0.12137053       0.07948121
O       -1.88049882      -0.11278355       1.16177973
C       -1.22663937      -0.94310031      -1.02951970
C        0.33170088      -0.65461723       0.28654231
H        3.03247480      -0.09464397       0.90015939
H        1.07792945       0.97483544       1.58786140
H       -0.19732351       1.97724109      -0.22811588
H        0.77841843       1.14763688      -1.42315798
H       -2.77796800      -0.05595139       0.82338792
H       -2.05644312      -1.64012491      -1.01548948
H       -0.80021591      -0.74504238      -2.00214187
H        0.66811022      -1.66338662       0.47218673
15
Frame=12 idx=009596 GeodesicLength=0.9366769247779854 rxn_smarts="[O:1]([C@@:2]1([H:9])[C:3]([H:10])([H:11])[C@@:4]2([O:5][H:12])[C:6]([H:13])([H:14])[C@@:7]12[H:15])[H:8]>>[O:1]([C@@:2]1([H:9])[C:3]([H:10])([H:11])[C@@:7]1([C:4]([O:5][H:12])=[C:6]([H:13])[H:14])[H:15])[H:8]"
O        2.55768455       0.37833148       0.22914912
C        1.21385546       0.50236817       0.60530716
C        0.32205356       1.04805390      -0.46821214
C       -1.03939379      -0.11194182       0.08445882
O       -1.87483692      -0.13790552       1.17653571
C       -1.22193597      -0.93652665      -1.02626443
C        0.32493620      -0.64717484       0.25409732
H        3.02117234      -0.10638281       0.91486746
H        1.06294064       0.97381422       1.57682990
H       -0.17957958       1.98640690      -0.25335694
H        0.80702170       1.16403840      -1.43461970
H       -2.77836966      -0.09772042       0.85280084
H       -2.04437110      -1.64217303      -1.01132763
H       -0.81473370      -0.72472115      -2.00434881
H        0.64355625      -1.64846681       0.50408333
15
Frame=13 idx=009596 GeodesicLength=1.014178396882414 rxn_smarts="[O:1]([C@@:2]1([H:9])[C:3]([H:10])([H:11])[C@@:4]2([O:5][H:12])[C:6]([H:13])([H:14])[C@@:7]12[H:15])[H:8]>>[O:1]([C@@:2]1([H:9])[C:3]([H:10])([H:11])[C@@:7]1([C:4]([O:5][H:12])=[C:6]([H:13])[H:14])[H:15])[H:8]"
O        2.55825994       0.36947941       0.23823306
C        1.21067926       0.50242962       0.59600977
C        0.33607724       1.05303067      -0.48787751
C       -1.04750052      -0.10336877       0.09045878
O       -1.86863144      -0.16360931       1.19128203
C       -1.21793862      -0.92945158      -1.02283926
C        0.31791974      -0.63999252       0.22312233
H        3.00913632      -0.11787807       0.93049671
H        1.04780784       0.97376865       1.56551562
H       -0.16182879       1.99460647      -0.27934712
H        0.83631096       1.17925519      -1.44560803
H       -2.77748909      -0.13903985       0.88176536
H       -2.03275944      -1.64378862      -1.00716265
H       -0.82997647      -0.70447171      -2.00591261
H        0.61993306      -1.63096959       0.53186351
15
Frame=14 idx=009596 GeodesicLength=1.091733312408734 rxn_smarts="[O:1]([C@@:2]1([H:9])[C:3]([H:10])([H:11])[C@@:4]2([O:5][H:12])[C:6]([H:13])([H:14])[C@@:7]12[H:15])[H:8]>>[O:1]([C@@:2]1([H:9])[C:3]([H:10])([H:11])[C@@:7]1([C:4]([O:5][H:12])=[C:6]([H:13])[H:14])[H:15])[H:8]"
O        2.55834032       0.36037194       0.24792866
C        1.20722690       0.50250032       0.58700579
C        0.35035913       1.05717249      -0.50769683
C       -1.05548628      -0.09548171       0.09747114
O       -1.86216109      -0.18977024       1.20600409
C       -1.21462092      -0.92182463      -1.01914868
C        0.31048438      -0.63292862       0.19370187
H        2.99635807      -0.12918164       0.94690605
H        1.03256084       0.97488309       1.55383748
H       -0.14398878       2.00197575      -0.30608179
H        0.86643051       1.19336127      -1.45608096
H       -2.77569712      -0.18020109       0.91032938
H       -2.02149969      -1.64505721      -1.00286647
H       -0.84569769      -0.68422012      -2.00670823
H        0.59739143      -1.61159959       0.55539850
15
Frame=15 idx=009596 GeodesicLength=1.16927908055705 rxn_smarts="[O:1]([C@@:2]1([H:9])[C:3]([H:10])([H:11])[C@@:4]2([O:5][H:12])[C:6]([H:13])([H:14])[C@@:7]12[H:15])[H:8]>>[O:1]([C@@:2]1([H:9])[C:3]([H:10])([H:11])[C@@:7]1([C:4]([O:5][H:12])=[C:6]([H:13])[H:14])[H:15])[H:8]"
O        2.55789348       0.35100289       0.25823375
C        1.20352184       0.50266913       0.57828369
C        0.36489159       1.06054944      -0.52768923
C       -1.06338815      -0.08815205       0.10545071
O       -1.85540482      -0.21629662       1.22068509
C       -1.21198440      -0.91362426      -1.01519057
C        0.30257955      -0.62584310       0.16581949
H        2.98279294      -0.14029869       0.96411458
H        1.01730309       0.97725053       1.54178779
H       -0.12606208       2.00857247      -0.33360671
H        0.89729510       1.20639925      -1.46604881
H       -2.77304139      -0.22136258       0.93849391
H       -2.01057387      -1.64595519      -0.99847980
H       -0.86191633      -0.66388203      -2.00675061
H        0.57609345      -1.59102919       0.57489674
15
Frame=16 idx=009596 GeodesicLength=1.2469516356709711 rxn_smarts="[O:1]([C@@:2]1([H:9])[C:3]([H:10])([H:11])[C@@:4]2([O:5][H:12])[C:6]([H:13])([H:14])[C@@:7]12[H:15])[H:8]>>[O:1]([C@@:2]1([H:9])[C:3]([H:10])([H:11])[C@@:7]1([C:4]([O:5][H:12])=[C:6]([H:13])[H:14])[H:15])[H:8]"
O        2.55683425       0.34138756       0.26906453
C        1.19952030       0.50296048       0.56976857
C        0.37969157       1.06312992      -0.54785257
C       -1.07120014      -0.08134259       0.11439369
O       -1.84836594      -0.24323188       1.23532121
C       -1.20992271      -0.90481966      -1.01090278
C        0.29419177      -0.61863551       0.13937762
H        2.96831672      -0.15107710       0.98205992
H        1.00197018       0.98082751       1.52927778
H       -0.10806588       2.01427529      -0.36191455
H        0.92890979       1.21833258      -1.47547156
H       -2.76953946      -0.26250860       0.96629393
H       -1.99998559      -1.64625672      -0.99403048
H       -0.87850234      -0.64334986      -2.00596410
H        0.55614748      -1.56969145       0.59057878
