17
Frame=0 idx=011553 GeodesicLength=0.0 rxn_smarts="[C:1]([O:2][C:3]([C@@:4]1([H:13])[C:5]([H:14])([H:15])[C@:6]1([O:7][H:17])[H:16])([H:11])[H:12])([H:8])([H:9])[H:10]>>[C:1]([O:2][C:3]([C@@:4]([C:5]([H:14])([H:15])[H:16])([C:6][O:7][H:17])[H:13])([H:11])[H:12])([H:8])([H:9])[H:10]"
C        2.26835333      -0.48966468       0.79150756
O        0.89241180      -0.26769287       0.59201090
C        0.55573597      -0.08000231      -0.76975647
C       -0.91997944       0.20247921      -0.92427414
C       -1.92075638      -0.53394208      -0.09895741
C       -1.57587091       1.33203969      -0.14743063
O       -0.94144134       1.70583801       0.98612697
H        2.60183085      -1.38279168       0.25080450
H        2.42418099      -0.63987603       1.85831674
H        2.86261232       0.36866892       0.45648091
H        1.13143660       0.76375054      -1.17680655
H        0.82862304      -0.97533982      -1.34357792
H       -1.16745123       0.23765487      -1.98319963
H       -2.72441478      -1.05563717      -0.60720300
H       -1.56410338      -0.97284112       0.82423378
H       -2.60699393       0.61440690       0.14513379
H       -0.14417344       1.17294965       1.14659058
17
Frame=1 idx=011553 GeodesicLength=0.041844513709731274 rxn_smarts="[C:1]([O:2][C:3]([C@@:4]1([H:13])[C:5]([H:14])([H:15])[C@:6]1([O:7][H:17])[H:16])([H:11])[H:12])([H:8])([H:9])[H:10]>>[C:1]([O:2][C:3]([C@@:4]([C:5]([H:14])([H:15])[H:16])([C:6][O:7][H:17])[H:13])([H:11])[H:12])([H:8])([H:9])[H:10]"
C        2.26834979      -0.49120465       0.79084663
O        0.89295200      -0.26485170       0.59278531
C        0.55494830      -0.07945515      -0.76907174
C       -0.91996893       0.20649141      -0.92303620
C       -1.92114559      -0.53240141      -0.09740326
C       -1.57539346       1.33072656      -0.14042289
O       -0.93729111       1.71247442       0.98740509
H        2.59759274      -1.38729926       0.25244644
H        2.42544617      -0.63849756       1.85788185
H        2.86539769       0.36373574       0.45207773
H        1.13236705       0.76201877      -1.17846089
H        0.82414459      -0.97748813      -1.34057322
H       -1.16941999       0.24641455      -1.98128835
H       -2.70857630      -1.07109186      -0.61325611
H       -1.56296625      -0.97210732       0.82507562
H       -2.62585975       0.61396776       0.13672071
H       -0.14057695       1.17856784       1.14827328
17
Frame=2 idx=011553 GeodesicLength=0.08368113471687577 rxn_smarts="[C:1]([O:2][C:3]([C@@:4]1([H:13])[C:5]([H:14])([H:15])[C@:6]1([O:7][H:17])[H:16])([H:11])[H:12])([H:8])([H:9])[H:10]>>[C:1]([O:2][C:3]([C@@:4]([C:5]([H:14])([H:15])[H:16])([C:6][O:7][H:17])[H:13])([H:11])[H:12])([H:8])([H:9])[H:10]"
C        2.26831426      -0.49277350       0.79017426
O        0.89347185      -0.26205826       0.59355114
C        0.55412835      -0.07889977      -0.76838139
C       -0.91998465       0.21052784      -0.92174412
C       -1.92160821      -0.53088041      -0.09584828
C       -1.57497958       1.32932436      -0.13325102
O       -0.93296773       1.71925614       0.98854799
H        2.59334143      -1.39176975       0.25403773
H        2.42669571      -0.63721411       1.85741465
H        2.86810567       0.35879074       0.44772298
H        1.13323943       0.76031426      -1.18007337
H        0.81961571      -0.97958862      -1.33758604
H       -1.17143666       0.25525180      -1.97928946
H       -2.69233939      -1.08645022      -0.61898360
H       -1.56185572      -0.97135046       0.82592691
H       -2.64477411       0.61337151       0.12778901
H       -0.13696636       1.18414846       1.14999260
17
Frame=3 idx=011553 GeodesicLength=0.125500967139834 rxn_smarts="[C:1]([O:2][C:3]([C@@:4]1([H:13])[C:5]([H:14])([H:15])[C@:6]1([O:7][H:17])[H:16])([H:11])[H:12])([H:8])([H:9])[H:10]>>[C:1]([O:2][C:3]([C@@:4]([C:5]([H:14])([H:15])[H:16])([C:6][O:7][H:17])[H:13])([H:11])[H:12])([H:8])([H:9])[H:10]"
C        2.26824836      -0.49436194       0.78949216
O        0.89396787      -0.25933464       0.59430611
C        0.55327505      -0.07834989      -0.76768749
C       -0.92002734       0.21457848      -0.92039886
C       -1.92215105      -0.52938192      -0.09429570
C       -1.57461605       1.32782930      -0.12591753
O       -0.92845218       1.72618259       0.98953776
H        2.58911363      -1.39616774       0.25555528
H        2.42792454      -0.63604439       1.85691468
H        2.87071306       0.35387569       0.44345104
H        1.13405204       0.75862552      -1.18164417
H        0.81503858      -0.98165266      -1.33462090
H       -1.17350181       0.26415054      -1.97720336
H       -2.67574610      -1.10166275      -0.62437018
H       -1.56078076      -0.97057782       0.82678316
H       -2.66371577       0.61262059       0.11834466
H       -0.13334207       1.18967105       1.15175335
17
Frame=4 idx=011553 GeodesicLength=0.16729728883978062 rxn_smarts="[C:1]([O:2][C:3]([C@@:4]1([H:13])[C:5]([H:14])([H:15])[C@:6]1([O:7][H:17])[H:16])([H:11])[H:12])([H:8])([H:9])[H:10]>>[C:1]([O:2][C:3]([C@@:4]([C:5]([H:14])([H:15])[H:16])([C:6][O:7][H:17])[H:13])([H:11])[H:12])([H:8])([H:9])[H:10]"
C        2.26815444      -0.49595990       0.78880214
O        0.89443675      -0.25670295       0.59504822
C        0.55238754      -0.07782008      -0.76699197
C       -0.92009739       0.21863300      -0.91900173
C       -1.92278070      -0.52790871      -0.09274897
C       -1.57428860       1.32623800      -0.11842573
O       -0.92372680       1.73325096       0.99035732
H        2.58494763      -1.40045783       0.25697596
H        2.42912801      -0.63500554       1.85638197
H        2.87319768       0.34903408       0.43929590
H        1.13480370       0.75693949      -1.18317420
H        0.81041511      -0.98369321      -1.33168130
H       -1.17561516       0.27309499      -1.97503091
H       -2.65884357      -1.11667804      -0.62940337
H       -1.55975030      -0.96979762       0.82763920
H       -2.68266391       0.61171822       0.10839714
H       -0.12970443       1.19511513       1.15356033
17
Frame=5 idx=011553 GeodesicLength=0.20906765683269957 rxn_smarts="[C:1]([O:2][C:3]([C@@:4]1([H:13])[C:5]([H:14])([H:15])[C@:6]1([O:7][H:17])[H:16])([H:11])[H:12])([H:8])([H:9])[H:10]>>[C:1]([O:2][C:3]([C@@:4]([C:5]([H:14])([H:15])[H:16])([C:6][O:7][H:17])[H:13])([H:11])[H:12])([H:8])([H:9])[H:10]"
C        2.26803588      -0.49755597       0.78810618
O        0.89487526      -0.25418667       0.59577563
C        0.55146515      -0.07732666      -0.76629674
C       -0.92019469       0.22268036      -0.91755458
C       -1.92350358      -0.52646307      -0.09121151
C       -1.57398078       1.32454811      -0.11078030
O       -0.91877431       1.74045573       0.99099042
H        2.58088597      -1.40460200       0.25827469
H        2.43030157      -0.63411512       1.85581699
H        2.87553683       0.34431403       0.43529396
H        1.13549398       0.75524058      -1.18466535
H        0.80574684      -0.98572589      -1.32876977
H       -1.17777557       0.28206875      -1.97277388
H       -2.64168669      -1.13144139      -0.63407257
H       -1.55877380      -0.96901851       0.82848953
H       -2.70159884       0.61066851       0.09795877
H       -0.12605323       1.20045922       1.15541853
17
Frame=6 idx=011553 GeodesicLength=0.2508254043403923 rxn_smarts="[C:1]([O:2][C:3]([C@@:4]1([H:13])[C:5]([H:14])([H:15])[C@:6]1([O:7][H:17])[H:16])([H:11])[H:12])([H:8])([H:9])[H:10]>>[C:1]([O:2][C:3]([C@@:4]([C:5]([H:14])([H:15])[H:16])([C:6][O:7][H:17])[H:13])([H:11])[H:12])([H:8])([H:9])[H:10]"
C        2.26789722      -0.49913863       0.78740637
O        0.89528105      -0.25180765       0.59648733
C        0.55050742      -0.07688592      -0.76560355
C       -0.92031866       0.22670981      -0.91605930
C       -1.92432600      -0.52504761      -0.08968415
C       -1.57367421       1.32275965      -0.10298566
O       -0.91358055       1.74778844       0.99142173
H        2.57697012      -1.40856518       0.25942788
H        2.43144218      -0.63338769       1.85522132
H        2.87771139       0.33976258       0.43147854
H        1.13612319       0.75351290      -1.18612060
H        0.80103491      -0.98776715      -1.32588813
H       -1.17998110       0.29105587      -1.97043502
H       -2.62433294      -1.14589639      -0.63837510
H       -1.55786050      -0.96824966       0.82933098
H       -2.72050659       0.60947260       0.08704466
H       -0.12238695       1.20568403       1.15733269
17
Frame=7 idx=011553 GeodesicLength=0.29249173847080023 rxn_smarts="[C:1]([O:2][C:3]([C@@:4]1([H:13])[C:5]([H:14])([H:15])[C@:6]1([O:7][H:17])[H:16])([H:11])[H:12])([H:8])([H:9])[H:10]>>[C:1]([O:2][C:3]([C@@:4]([C:5]([H:14])([H:15])[H:16])([C:6][O:7][H:17])[H:13])([H:11])[H:12])([H:8])([H:9])[H:10]"
C        2.26774009      -0.50069409       0.78670453
O        0.89564862      -0.24958438       0.59718498
C        0.54950781      -0.07651685      -0.76490958
C       -0.92047505       0.23071261      -0.91450786
C       -1.92525399      -0.52364972      -0.08815768
C       -1.57335714       1.32086450      -0.09502829
O       -0.90810027       1.75526251       0.99162002
H        2.57323931      -1.41231017       0.26041275
H        2.43254513      -0.63283522       1.85459444
H        2.87969771       0.33542859       0.42788141
H        1.13668484       0.75173411      -1.18754226
H        0.79626991      -0.98983945      -1.32302864
H       -1.18223937       0.30004745      -1.96800265
H       -2.60684386      -1.16007799      -0.64239457
H       -1.55702339      -0.96750615       0.83016080
H       -2.73933955       0.60817851       0.07570348
H       -0.11870079       1.21078575       1.15930913
17
Frame=8 idx=011553 GeodesicLength=0.3341225092717601 rxn_smarts="[C:1]([O:2][C:3]([C@@:4]1([H:13])[C:5]([H:14])([H:15])[C@:6]1([O:7][H:17])[H:16])([H:11])[H:12])([H:8])([H:9])[H:10]>>[C:1]([O:2][C:3]([C@@:4]([C:5]([H:14])([H:15])[H:16])([C:6][O:7][H:17])[H:13])([H:11])[H:12])([H:8])([H:9])[H:10]"
C        2.26756451      -0.50223357       0.78599893
O        0.89598317      -0.24749118       0.59786938
C        0.54847297      -0.07619763      -0.76421642
C       -0.92065822       0.23469918      -0.91290749
C       -1.92627660      -0.52229316      -0.08665313
C       -1.57303732       1.31886206      -0.08691550
O       -0.90238271       1.76285530       0.99160235
H        2.56964715      -1.41588791       0.26126193
H        2.43361829      -0.63242767       1.85394089
H        2.88153160       0.33126020       0.42445479
H        1.13718461       0.74992895      -1.18892885
H        0.79146144      -0.99191888      -1.32019559
H       -1.18454086       0.30906035      -1.96548571
H       -2.58919583      -1.17392947      -0.64604386
H       -1.55624710      -0.96678702       0.83096983
H       -2.75811646       0.60673043       0.06389968
H       -0.11500863       1.21577003       1.16134876
17
Frame=9 idx=011553 GeodesicLength=0.3757407025238468 rxn_smarts="[C:1]([O:2][C:3]([C@@:4]1([H:13])[C:5]([H:14])([H:15])[C@:6]1([O:7][H:17])[H:16])([H:11])[H:12])([H:8])([H:9])[H:10]>>[C:1]([O:2][C:3]([C@@:4]([C:5]([H:14])([H:15])[H:16])([C:6][O:7][H:17])[H:13])([H:11])[H:12])([H:8])([H:9])[H:10]"
C        2.26736986      -0.50376392       0.78528759
O        0.89628913      -0.24549814       0.59854561
C        0.54740380      -0.07591449      -0.76352044
C       -0.92086836       0.23867988      -0.91125081
C       -1.92738638      -0.52098463      -0.08516668
C       -1.57272388       1.31674944      -0.07863226
O       -0.89644378       1.77056596       0.99136724
H        2.56615199      -1.41934004       0.26200222
H        2.43466555      -0.63213716       1.85326288
H        2.88324265       0.32721420       0.42115335
H        1.13762312       0.74810927      -1.19028412
H        0.78660545      -0.99399822      -1.31737908
H       -1.18688348       0.31811600      -1.96287575
H       -2.57137091      -1.18746999      -0.64935616
H       -1.55551984      -0.96610228       0.83175813
H       -2.77684118       0.60510693       0.05163879
H       -0.11131376       1.22066723       1.16344948
17
Frame=10 idx=011553 GeodesicLength=0.4173441767786321 rxn_smarts="[C:1]([O:2][C:3]([C@@:4]1([H:13])[C:5]([H:14])([H:15])[C@:6]1([O:7][H:17])[H:16])([H:11])[H:12])([H:8])([H:9])[H:10]>>[C:1]([O:2][C:3]([C@@:4]([C:5]([H:14])([H:15])[H:16])([C:6][O:7][H:17])[H:13])([H:11])[H:12])([H:8])([H:9])[H:10]"
C        2.26715603      -0.50528961       0.78456883
O        0.89657058      -0.24358136       0.59921773
C        0.54629991      -0.07565660      -0.76281785
C       -0.92110642       0.24266269      -0.90953183
C       -1.92857431      -0.51973209      -0.08370040
C       -1.57242352       1.31451950      -0.07016520
O       -0.89030061       1.77838765       0.99091726
H        2.56272085      -1.42269788       0.26265784
H        2.43569522      -0.63194138       1.85256077
H        2.88485228       0.32325775       0.41794367
H        1.13800129       0.74628061      -1.19161080
H        0.78169815      -0.99606992      -1.31457069
H       -1.18926843       0.32723446      -1.96016429
H       -2.55336636      -1.20071088      -0.65235223
H       -1.55483254      -0.96545961       0.83252348
H       -2.79550816       0.60329227       0.03891824
H       -0.10761394       1.22550441       1.16560547
17
Frame=11 idx=011553 GeodesicLength=0.458945191671648 rxn_smarts="[C:1]([O:2][C:3]([C@@:4]1([H:13])[C:5]([H:14])([H:15])[C@:6]1([O:7][H:17])[H:16])([H:11])[H:12])([H:8])([H:9])[H:10]>>[C:1]([O:2][C:3]([C@@:4]([C:5]([H:14])([H:15])[H:16])([C:6][O:7][H:17])[H:13])([H:11])[H:12])([H:8])([H:9])[H:10]"
C        2.26692698      -0.50681989       0.78384148
O        0.89683228      -0.24171705       0.59988985
C        0.54516509      -0.07541101      -0.76210692
C       -0.92137422       0.24665655      -0.90774548
C       -1.92983827      -0.51854642      -0.08225583
C       -1.57214750       1.31216915      -0.06149954
O       -0.88397615       1.78632296       0.99025549
H        2.55932040      -1.42600476       0.26325605
H        2.43671826      -0.63181334       1.85183755
H        2.88639155       0.31935170       0.41478783
H        1.13832495       0.74445791      -1.19290887
H        0.77674285      -0.99812603      -1.31176888
H       -1.19169819       0.33643244      -1.95734496
H       -2.53517779      -1.21366391      -0.65505196
H       -1.55418205      -0.96487311       0.83326254
H       -2.81411885       0.60126690       0.02574055
H       -0.10390933       1.23031791       1.16781112
17
Frame=12 idx=011553 GeodesicLength=0.5005284783388703 rxn_smarts="[C:1]([O:2][C:3]([C@@:4]1([H:13])[C:5]([H:14])([H:15])[C@:6]1([O:7][H:17])[H:16])([H:11])[H:12])([H:8])([H:9])[H:10]>>[C:1]([O:2][C:3]([C@@:4]([C:5]([H:14])([H:15])[H:16])([C:6][O:7][H:17])[H:13])([H:11])[H:12])([H:8])([H:9])[H:10]"
C        2.26667241      -0.50835236       0.78310544
O        0.89707303      -0.23989659       0.60056502
C        0.54399519      -0.07517409      -0.76138502
C       -0.92166779       0.25066331      -0.90588799
C       -1.93116403      -0.51742736      -0.08083124
C       -1.57188503       1.30969329      -0.05262802
O       -0.87746775       1.79434638       0.98937218
H        2.55593400      -1.42925583       0.26379612
H        2.43772862      -0.63175452       1.85109272
H        2.88785124       0.31549050       0.41168098
H        1.13858650       0.74263992      -1.19418112
H        0.77173119      -1.00015913      -1.30896645
H       -1.19416815       0.34571961      -1.95441204
H       -2.51681845      -1.22632716      -0.65745185
H       -1.55355419      -0.96434153       0.83397747
H       -2.83265301       0.59901746       0.01209304
H       -0.10019379       1.23511810       1.17006077
17
Frame=13 idx=011553 GeodesicLength=0.5420807588604489 rxn_smarts="[C:1]([O:2][C:3]([C@@:4]1([H:13])[C:5]([H:14])([H:15])[C@:6]1([O:7][H:17])[H:16])([H:11])[H:12])([H:8])([H:9])[H:10]>>[C:1]([O:2][C:3]([C@@:4]([C:5]([H:14])([H:15])[H:16])([C:6][O:7][H:17])[H:13])([H:11])[H:12])([H:8])([H:9])[H:10]"
C        2.26639944      -0.50987972       0.78236093
O        0.89729611      -0.23812615       0.60124143
C        0.54278679      -0.07495350      -0.76064952
C       -0.92199035       0.25467861      -0.90396021
C       -1.93255465      -0.51637399      -0.07943268
C       -1.57162309       1.30708402      -0.04356292
O       -0.87079150       1.80244082       0.98827162
H        2.55257154      -1.43244585       0.26429368
H        2.43873578      -0.63173740       1.85032602
H        2.88923408       0.31167424       0.40861045
H        1.13877822       0.74081583      -1.19542518
H        0.76666087      -1.00217799      -1.30615251
H       -1.19668430       0.35509079      -1.95136256
H       -2.49830309      -1.23865061      -0.65957273
H       -1.55294855      -0.96387703       0.83465363
H       -2.85109422       0.59655436      -0.00199495
H       -0.09647310       1.23988359       1.17235549
17
Frame=14 idx=011553 GeodesicLength=0.5836412645856222 rxn_smarts="[C:1]([O:2][C:3]([C@@:4]1([H:13])[C:5]([H:14])([H:15])[C@:6]1([O:7][H:17])[H:16])([H:11])[H:12])([H:8])([H:9])[H:10]>>[C:1]([O:2][C:3]([C@@:4]([C:5]([H:14])([H:15])[H:16])([C:6][O:7][H:17])[H:13])([H:11])[H:12])([H:8])([H:9])[H:10]"
C        2.26611687      -0.51140350       0.78160699
O        0.89750430      -0.23639624       0.60192359
C        0.54154911      -0.07474879      -0.75990210
C       -0.92234001       0.25870561      -0.90196129
C       -1.93401662      -0.51539386      -0.07806155
C       -1.57136293       1.30435179      -0.03428907
O       -0.86396020       1.81060694       0.98695998
H        2.54923343      -1.43559322       0.26474721
H        2.43974615      -0.63175367       1.84954087
H        2.89056505       0.30789963       0.40556532
H        1.13892023       0.73899020      -1.19664607
H        0.76154115      -1.00419150      -1.30333361
H       -1.19923576       0.36455546      -1.94819837
H       -2.47968046      -1.25064996      -0.66141670
H       -1.55237733      -0.96349173       0.83528984
H       -2.86945315       0.59386648      -0.01652815
H       -0.09274982       1.24464636       1.17470310
17
Frame=15 idx=011553 GeodesicLength=0.6252058188345109 rxn_smarts="[C:1]([O:2][C:3]([C@@:4]1([H:13])[C:5]([H:14])([H:15])[C@:6]1([O:7][H:17])[H:16])([H:11])[H:12])([H:8])([H:9])[H:10]>>[C:1]([O:2][C:3]([C@@:4]([C:5]([H:14])([H:15])[H:16])([C:6][O:7][H:17])[H:13])([H:11])[H:12])([H:8])([H:9])[H:10]"
C        2.26581730      -0.51293510       0.78084218
O        0.89770344      -0.23466935       0.60261466
C        0.54028059      -0.07453655      -0.75913856
C       -0.92271679       0.26275747      -0.89988547
C       -1.93553092      -0.51449518      -0.07671935
C       -1.57111224       1.30148551      -0.02479644
O       -0.85700791       1.81882791       0.98544607
H        2.54585091      -1.43875322       0.26520934
H        2.44076947      -0.63175933       1.84873835
H        2.89187192       0.30409370       0.40248107
H        1.13900527       0.73718320      -1.19784301
H        0.75637124      -1.00617259      -1.30050226
H       -1.20182598       0.37413931      -1.94490901
H       -2.46091566      -1.26233387      -0.66300055
H       -1.55181594      -0.96319399       0.83588209
H       -2.88772294       0.59092275      -0.03150938
H       -0.08902176       1.24943934       1.17709024
17
Frame=16 idx=011553 GeodesicLength=0.6667833047177009 rxn_smarts="[C:1]([O:2][C:3]([C@@:4]1([H:13])[C:5]([H:14])([H:15])[C@:6]1([O:7][H:17])[H:16])([H:11])[H:12])([H:8])([H:9])[H:10]>>[C:1]([O:2][C:3]([C@@:4]([C:5]([H:14])([H:15])[H:16])([C:6][O:7][H:17])[H:13])([H:11])[H:12])([H:8])([H:9])[H:10]"
C        2.26549767      -0.51448065       0.78006670
O        0.89789594      -0.23292581       0.60331692
C        0.53898130      -0.07430806      -0.75835724
C       -0.92312146       0.26684067      -0.89772849
C       -1.93709064      -0.51368251      -0.07540477
C       -1.57087189       1.29848149      -0.01507683
O       -0.84995714       1.82709656       0.98373418
H        2.54239926      -1.44194371       0.26569039
H        2.44180439      -0.63175281       1.84791887
H        2.89316816       0.30022938       0.39934165
H        1.13903369       0.73540095      -1.19901836
H        0.75114868      -1.00811471      -1.29765383
H       -1.20445739       0.38385502      -1.94148709
H       -2.44199680      -1.27370990      -0.66433176
H       -1.55125486      -0.96298928       0.83642979
H       -2.90590036       0.58770497      -0.04694061
H       -0.08527854       1.25429840       1.17950047
