12
Frame=0 idx=009615 GeodesicLength=0.0 rxn_smarts="[C:1]([O:2][c:3]1[n:4][o:5][c:6]([H:11])[c:7]1[H:12])([H:8])([H:9])[H:10]>>[C:1]([O:2][C:3]1=[C:7]([H:12])[C@@:6]2([H:11])[N:4]1[O:5]2)([H:8])([H:9])[H:10]"
C       -0.56860421      -1.97926349      -0.45165205
O       -0.01779217      -0.79405686      -1.04271477
C        0.23851541       0.21327936      -0.24709649
N       -0.22864458       0.17732067       1.08278144
O        0.73126066       1.17374310       1.79002736
C        0.34582260       1.90046924       0.77822087
C        0.76144927       1.43678072      -0.52616504
H        0.16184963      -2.45599917       0.20041685
H       -1.46678416      -1.74281342       0.11816851
H       -0.80851729      -2.63058027      -1.28780935
H       -0.28218081       2.77091115       0.98830847
H        1.13362566       1.93020892      -1.40248576
12
Frame=1 idx=009615 GeodesicLength=0.029621851383715272 rxn_smarts="[C:1]([O:2][c:3]1[n:4][o:5][c:6]([H:11])[c:7]1[H:12])([H:8])([H:9])[H:10]>>[C:1]([O:2][C:3]1=[C:7]([H:12])[C@@:6]2([H:11])[N:4]1[O:5]2)([H:8])([H:9])[H:10]"
C       -0.56712353      -1.98135223      -0.45189379
O       -0.01653865      -0.79732964      -1.04442967
C        0.23535965       0.21194407      -0.24874792
N       -0.23533983       0.18545506       1.07853577
O        0.72973089       1.16284311       1.78684825
C        0.34541311       1.90144347       0.77874381
C        0.75533662       1.43837553      -0.52602974
H        0.15974093      -2.45126566       0.20929689
H       -1.47114241      -1.74586260       0.10915602
H       -0.79738894      -2.63847135      -1.28623591
H       -0.26286534       2.78238136       0.99842838
H        1.12481750       1.93183889      -1.40367211
12
Frame=2 idx=009615 GeodesicLength=0.05926539884520149 rxn_smarts="[C:1]([O:2][c:3]1[n:4][o:5][c:6]([H:11])[c:7]1[H:12])([H:8])([H:9])[H:10]>>[C:1]([O:2][C:3]1=[C:7]([H:12])[C@@:6]2([H:11])[N:4]1[O:5]2)([H:8])([H:9])[H:10]"
C       -0.56555913      -1.98346883      -0.45211033
O       -0.01539100      -0.80056609      -1.04616832
C        0.23181226       0.21074547      -0.25049314
N       -0.24234190       0.19369663       1.07416163
O        0.72786796       1.15183500       1.78362181
C        0.34501428       1.90244205       0.77929665
C        0.74919351       1.43997840      -0.52586534
H        0.15765084      -2.44633650       0.21821833
H       -1.47542911      -1.74915308       0.10004188
H       -0.78596867      -2.64645085      -1.28448899
H       -0.24269596       2.79376333       1.00864399
H        1.11584692       1.93351448      -1.40485816
12
Frame=3 idx=009615 GeodesicLength=0.08897360512188018 rxn_smarts="[C:1]([O:2][c:3]1[n:4][o:5][c:6]([H:11])[c:7]1[H:12])([H:8])([H:9])[H:10]>>[C:1]([O:2][C:3]1=[C:7]([H:12])[C@@:6]2([H:11])[N:4]1[O:5]2)([H:8])([H:9])[H:10]"
C       -0.56381201      -1.98565940      -0.45226947
O       -0.01460993      -0.80370974      -1.04801654
C        0.22733773       0.20986443      -0.25250384
N       -0.25019272       0.20225363       1.06947181
O        0.72550795       1.14041236       1.78029958
C        0.34481527       1.90344595       0.77993730
C        0.74301242       1.44158012      -0.52567031
H        0.15578870      -2.44096088       0.22727404
H       -1.47961529      -1.75295113       0.09080959
H       -0.77392241      -2.65472623      -1.28245423
H       -0.22103178       2.80522306       1.01914555
H        1.10672207       1.93522783      -1.40602347
12
Frame=4 idx=009615 GeodesicLength=0.11878187578944496 rxn_smarts="[C:1]([O:2][c:3]1[n:4][o:5][c:6]([H:11])[c:7]1[H:12])([H:8])([H:9])[H:10]>>[C:1]([O:2][C:3]1=[C:7]([H:12])[C@@:6]2([H:11])[N:4]1[O:5]2)([H:8])([H:9])[H:10]"
C       -0.56179996      -1.98795114      -0.45233602
O       -0.01440939      -0.80670098      -1.05005311
C        0.22152304       0.20944317      -0.25492172
N       -0.25933745       0.21129123       1.06432333
O        0.72246381       1.12831060       1.77685800
C        0.34495570       1.90442602       0.78071002
C        0.73682240       1.44317494      -0.52544817
H        0.15433953      -2.43494346       0.23653116
H       -1.48367272      -1.75747196       0.08148530
H       -0.76099134      -2.66342830      -1.28003287
H       -0.19734039       2.81684788       1.03006004
H        1.09744676       1.93700200      -1.40717595
12
Frame=5 idx=009615 GeodesicLength=0.1485557704466568 rxn_smarts="[C:1]([O:2][c:3]1[n:4][o:5][c:6]([H:11])[c:7]1[H:12])([H:8])([H:9])[H:10]>>[C:1]([O:2][C:3]1=[C:7]([H:12])[C@@:6]2([H:11])[N:4]1[O:5]2)([H:8])([H:9])[H:10]"
C       -0.55985848      -1.99016717      -0.45240991
O       -0.01390649      -0.80973588      -1.05197309
C        0.21615190       0.20888485      -0.25719261
N       -0.26788239       0.22011866       1.05931344
O        0.71926389       1.11662387       1.77340526
C        0.34475636       1.90545263       0.78140401
C        0.73062122       1.44480432      -0.52518932
H        0.15254241      -2.42907662       0.24567967
H       -1.48766749      -1.76180490       0.07209676
H       -0.74827880      -2.67184414      -1.27755672
H       -0.17372933       2.82788343       1.04074270
H        1.08798722       1.93886094      -1.40832018
12
Frame=6 idx=009615 GeodesicLength=0.1783249368385872 rxn_smarts="[C:1]([O:2][c:3]1[n:4][o:5][c:6]([H:11])[c:7]1[H:12])([H:8])([H:9])[H:10]>>[C:1]([O:2][C:3]1=[C:7]([H:12])[C@@:6]2([H:11])[N:4]1[O:5]2)([H:8])([H:9])[H:10]"
C       -0.55790775      -1.99235265      -0.45246888
O       -0.01330451      -0.81276643      -1.05384599
C        0.21079234       0.20833643      -0.25944650
N       -0.27628293       0.22889859       1.05430666
O        0.71578832       1.10509962       1.76992237
C        0.34437305       1.90651602       0.78207170
C        0.72441579       1.44646076      -0.52489300
H        0.15056996      -2.42317479       0.25480203
H       -1.49158969      -1.76617336       0.06262349
H       -0.73551113      -2.68014820      -1.27494893
H       -0.14967649       2.83849374       1.05133494
H        1.07833304       1.94081027      -1.40945790
12
Frame=7 idx=009615 GeodesicLength=0.20814845005891666 rxn_smarts="[C:1]([O:2][c:3]1[n:4][o:5][c:6]([H:11])[c:7]1[H:12])([H:8])([H:9])[H:10]>>[C:1]([O:2][C:3]1=[C:7]([H:12])[C@@:6]2([H:11])[N:4]1[O:5]2)([H:8])([H:9])[H:10]"
C       -0.55581189      -1.99455900      -0.45246451
O       -0.01300744      -0.81569098      -1.05580326
C        0.20472868       0.20803741      -0.26191598
N       -0.28526110       0.23790347       1.04906298
O        0.71178451       1.09333227       1.76634394
C        0.34402575       1.90758635       0.78278152
C        0.71819307       1.44813312      -0.52456687
H        0.14875923      -2.41690009       0.26397133
H       -1.49537052      -1.77095286       0.05312531
H       -0.72228366      -2.68857641      -1.27205715
H       -0.12436403       2.84886622       1.06206922
H        1.06860738       1.94282050      -1.41054653
12
Frame=8 idx=009615 GeodesicLength=0.23788761530102587 rxn_smarts="[C:1]([O:2][c:3]1[n:4][o:5][c:6]([H:11])[c:7]1[H:12])([H:8])([H:9])[H:10]>>[C:1]([O:2][C:3]1=[C:7]([H:12])[C@@:6]2([H:11])[N:4]1[O:5]2)([H:8])([H:9])[H:10]"
C       -0.55391618      -1.99664457      -0.45252430
O       -0.01208494      -0.81872933      -1.05751602
C        0.19975563       0.20738125      -0.26399881
N       -0.29294331       0.24642579       1.04422507
O        0.70792252       1.08242844       1.76281397
C        0.34306426       1.90876849       0.78334460
C        0.71191972       1.44985211      -0.52419693
H        0.14633284      -2.41110515       0.27289500
H       -1.49912706      -1.77522050       0.04354777
H       -0.70969251      -2.69648859      -1.26927586
H       -0.09993790       2.85845283       1.07230351
H        1.05870692       1.94487924      -1.41161800
12
Frame=9 idx=009615 GeodesicLength=0.267580432532814 rxn_smarts="[C:1]([O:2][c:3]1[n:4][o:5][c:6]([H:11])[c:7]1[H:12])([H:8])([H:9])[H:10]>>[C:1]([O:2][C:3]1=[C:7]([H:12])[C@@:6]2([H:11])[N:4]1[O:5]2)([H:8])([H:9])[H:10]"
C       -0.55210912      -1.99866640      -0.45261635
O       -0.01085333      -0.82180236      -1.05908811
C        0.19528178       0.20656691      -0.26587430
N       -0.29995136       0.25468584       1.03960471
O        0.70402431       1.07204414       1.75930581
C        0.34169062       1.91004683       0.78382746
C        0.70560776       1.45160578      -0.52378039
H        0.14356075      -2.40552691       0.28165659
H       -1.50282577      -1.77929457       0.03390407
H       -0.69739180      -2.70410538      -1.26650010
H       -0.07571317       2.86746898       1.08221888
H        1.04867934       1.94697714      -1.41265826
12
Frame=10 idx=009615 GeodesicLength=0.2972634435963717 rxn_smarts="[C:1]([O:2][c:3]1[n:4][o:5][c:6]([H:11])[c:7]1[H:12])([H:8])([H:9])[H:10]>>[C:1]([O:2][C:3]1=[C:7]([H:12])[C@@:6]2([H:11])[N:4]1[O:5]2)([H:8])([H:9])[H:10]"
C       -0.55030672      -2.00065883      -0.45271092
O       -0.00946963      -0.82487817      -1.06058022
C        0.19087726       0.20574207      -0.26768360
N       -0.30673426       0.26285157       1.03505406
O        0.69995528       1.06190938       1.75578357
C        0.34006459       1.91140119       0.78428240
C        0.69925489       1.45339142      -0.52332208
H        0.14057316      -2.39996880       0.29037454
H       -1.50646233      -1.78336628       0.02414194
H       -0.68507717      -2.71159043      -1.26363559
H       -0.05113984       2.87602832       1.09197485
H        1.03846477       1.94913856      -1.41367895
12
Frame=11 idx=009615 GeodesicLength=0.3269730787477542 rxn_smarts="[C:1]([O:2][c:3]1[n:4][o:5][c:6]([H:11])[c:7]1[H:12])([H:8])([H:9])[H:10]>>[C:1]([O:2][C:3]1=[C:7]([H:12])[C@@:6]2([H:11])[N:4]1[O:5]2)([H:8])([H:9])[H:10]"
C       -0.54841571      -2.00264932      -0.45277107
O       -0.00816901      -0.82789454      -1.06207566
C        0.18607784       0.20506771      -0.26958739
N       -0.31378029       0.27111359       1.03040103
O        0.69551399       1.05174337       1.75221084
C        0.33834659       1.91280440       0.78475801
C        0.69289359       1.45519747      -0.52281770
H        0.13756074      -2.39419973       0.29912981
H       -1.50999828      -1.78767211       0.01427505
H       -0.67245369      -2.71909306      -1.26056858
H       -0.02563419       2.88419856       1.10171582
H        1.02805843       1.95138365      -1.41467015
12
Frame=12 idx=009615 GeodesicLength=0.356745848845341 rxn_smarts="[C:1]([O:2][c:3]1[n:4][o:5][c:6]([H:11])[c:7]1[H:12])([H:8])([H:9])[H:10]>>[C:1]([O:2][C:3]1=[C:7]([H:12])[C@@:6]2([H:11])[N:4]1[O:5]2)([H:8])([H:9])[H:10]"
C       -0.54634430      -2.00465804      -0.45275529
O       -0.00719103      -0.83078253      -1.06366155
C        0.18043893       0.20469970      -0.27174747
N       -0.32156087       0.27965832       1.02547478
O        0.69046989       1.04127366       1.74855145
C        0.33668277       1.91422689       0.78529875
C        0.68656565       1.45701765      -0.52226458
H        0.13471676      -2.38799163       0.30799257
H       -1.51338783      -1.79244576       0.00434069
H       -0.65923885      -2.72673984      -1.25717827
H        0.00138073       2.89199770       1.11157109
H        1.01746817       1.95374386      -1.41562216
12
Frame=13 idx=009615 GeodesicLength=0.38664383141691755 rxn_smarts="[C:1]([O:2][c:3]1[n:4][o:5][c:6]([H:11])[c:7]1[H:12])([H:8])([H:9])[H:10]>>[C:1]([O:2][C:3]1=[C:7]([H:12])[C@@:6]2([H:11])[N:4]1[O:5]2)([H:8])([H:9])[H:10]"
C       -0.54397587      -2.00670113      -0.45259736
O       -0.00684521      -0.83345804      -1.06545262
C        0.17336196       0.20485228      -0.27439952
N       -0.33065561       0.28873323       1.02003726
O        0.68453499       1.03015293       1.74471366
C        0.33525593       1.91562717       0.78595215
C        0.68027132       1.45886142      -0.52168029
H        0.13228012      -2.38102193       0.31706449
H       -1.51656768      -1.79798220      -0.00560756
H       -0.64505831      -2.73468538      -1.25328191
H        0.03062234       2.89937181       1.12175511
H        1.00677602       1.95624984      -1.41650340
12
Frame=14 idx=009615 GeodesicLength=0.41671622954604987 rxn_smarts="[C:1]([O:2][c:3]1[n:4][o:5][c:6]([H:11])[c:7]1[H:12])([H:8])([H:9])[H:10]>>[C:1]([O:2][C:3]1=[C:7]([H:12])[C@@:6]2([H:11])[N:4]1[O:5]2)([H:8])([H:9])[H:10]"
C       -0.54120825      -2.00876833      -0.45223942
O       -0.00742411      -0.83582690      -1.06754676
C        0.16438933       0.20568694      -0.27772310
N       -0.34154739       0.29853967       1.01389293
O        0.67738108       1.01811265       1.74064925
C        0.33419310       1.91694991       0.78675296
C        0.67408766       1.46070555      -0.52105216
H        0.13048984      -2.37301500       0.32638166
H       -1.51944749      -1.80452968      -0.01545913
H       -0.62963779      -2.74299266      -1.24873189
H        0.06270413       2.90619687       1.13235347
H        0.99601989       1.95894097      -1.41727781
12
Frame=15 idx=009615 GeodesicLength=0.44684048103469476 rxn_smarts="[C:1]([O:2][c:3]1[n:4][o:5][c:6]([H:11])[c:7]1[H:12])([H:8])([H:9])[H:10]>>[C:1]([O:2][C:3]1=[C:7]([H:12])[C@@:6]2([H:11])[N:4]1[O:5]2)([H:8])([H:9])[H:10]"
C       -0.53834421      -2.01075864      -0.45179673
O       -0.00812469      -0.83808314      -1.06965639
C        0.15501257       0.20670659      -0.28119839
N       -0.35266339       0.30847873       1.00761326
O        0.66974727       1.00605184       1.73648143
C        0.33301271       1.91830947       0.78755482
C        0.66792582       1.46258799      -0.52039815
H        0.12867217      -2.36471120       0.33573350
H       -1.52217120      -1.81128619      -0.02531330
H       -0.61389183      -2.75118390      -1.24388120
H        0.09567698       2.91212049       1.14286244
H        0.98514780       1.96176796      -1.41800129
12
Frame=16 idx=009615 GeodesicLength=0.477101924866718 rxn_smarts="[C:1]([O:2][c:3]1[n:4][o:5][c:6]([H:11])[c:7]1[H:12])([H:8])([H:9])[H:10]>>[C:1]([O:2][C:3]1=[C:7]([H:12])[C@@:6]2([H:11])[N:4]1[O:5]2)([H:8])([H:9])[H:10]"
C       -0.53522287      -2.01268232      -0.45118839
O       -0.00946441      -0.84007366      -1.07195319
C        0.14447150       0.20817631      -0.28511219
N       -0.36477806       0.31886691       1.00089424
O        0.66118807       0.99354417       1.73211484
C        0.33191166       1.91964258       0.78841614
C        0.66183328       1.46448664      -0.51971249
H        0.12726449      -2.35569312       0.34514156
H       -1.52459565      -1.81867773      -0.03496275
H       -0.59742220      -2.75940560      -1.23852240
H        0.13043608       2.91708855       1.15347381
H        0.97437812       1.96472726      -1.41858918
