14
Frame=0 idx=008994 GeodesicLength=0.0 rxn_smarts="[C:1]([N:2]([C:3](=[O:4])[N:5](/[C:6](=[N:7]/[H:14])[H:13])[H:12])[H:11])([H:8])([H:9])[H:10]>>[C:1]([N:2]([C:3](=[O:4])[N:5]([C-:6]=[N+:7]([H:13])[H:14])[H:12])[H:11])([H:8])([H:9])[H:10]"
C        2.62271215       0.18123099       0.24230258
N        1.23615161      -0.09493147       0.54545233
C        0.26964023       0.12332039      -0.39182729
O        0.49012502       0.45438562      -1.52740537
N       -1.02552457      -0.12100106       0.10761901
C       -2.15394152       0.20691046      -0.55063302
N       -3.25527334      -0.26732334       0.08015902
H        2.80951869      -0.07732084      -0.79751008
H        3.26081466      -0.42880884       0.88086394
H        2.87540796       1.23587680       0.38235204
H        0.96670364      -0.13670704       1.51184489
H       -1.12727217      -0.55527613       1.02024930
H       -2.89545462      -0.64340716      -1.11791090
H       -4.07360776       0.12305162      -0.38555641
14
Frame=1 idx=008994 GeodesicLength=0.04342584847048051 rxn_smarts="[C:1]([N:2]([C:3](=[O:4])[N:5](/[C:6](=[N:7]/[H:14])[H:13])[H:12])[H:11])([H:8])([H:9])[H:10]>>[C:1]([N:2]([C:3](=[O:4])[N:5]([C-:6]=[N+:7]([H:13])[H:14])[H:12])[H:11])([H:8])([H:9])[H:10]"
C        2.62383519       0.17725589       0.23990393
N        1.23442032      -0.07169546       0.54958280
C        0.26560515       0.12760945      -0.38873870
O        0.48219243       0.42099313      -1.53555004
N       -1.02847149      -0.10290460       0.11887696
C       -2.15781977       0.20295913      -0.54985578
N       -3.25298773      -0.29634293       0.06344441
H        2.80488793      -0.03605771      -0.81083336
H        3.25197441      -0.47866470       0.84246921
H        2.90467347       1.21694177       0.42829769
H        0.96821787      -0.11103067       1.51690076
H       -1.12981322      -0.50893505       1.04423124
H       -2.88861855      -0.65000127      -1.14375280
H       -4.07809602       0.10987302      -0.37497630
14
Frame=2 idx=008994 GeodesicLength=0.08670070058250326 rxn_smarts="[C:1]([N:2]([C:3](=[O:4])[N:5](/[C:6](=[N:7]/[H:14])[H:13])[H:12])[H:11])([H:8])([H:9])[H:10]>>[C:1]([N:2]([C:3](=[O:4])[N:5]([C-:6]=[N+:7]([H:13])[H:14])[H:12])[H:11])([H:8])([H:9])[H:10]"
C        2.62456070       0.17452978       0.23802114
N        1.23262259      -0.04747311       0.55324841
C        0.26189207       0.13070380      -0.38657484
O        0.47515346       0.38133106      -1.54428488
N       -1.03130272      -0.08420985       0.12891973
C       -2.16131754       0.19883997      -0.55018219
N       -3.24935433      -0.32386301       0.04730945
H        2.80124395       0.01042339      -0.82198044
H        3.24003242      -0.52743712       0.80112181
H        2.93408796       1.19525033       0.47720173
H        0.96925446      -0.08695038       1.52124562
H       -1.13270732      -0.46149559       1.06612248
H       -2.88237611      -0.65660323      -1.16873284
H       -4.08178960       0.09695395      -0.36143518
14
Frame=3 idx=008994 GeodesicLength=0.12971019593844124 rxn_smarts="[C:1]([N:2]([C:3](=[O:4])[N:5](/[C:6](=[N:7]/[H:14])[H:13])[H:12])[H:11])([H:8])([H:9])[H:10]>>[C:1]([N:2]([C:3](=[O:4])[N:5]([C-:6]=[N+:7]([H:13])[H:14])[H:12])[H:11])([H:8])([H:9])[H:10]"
C        2.62482057       0.17492977       0.23698947
N        1.23106474      -0.02424749       0.55631249
C        0.25893930       0.12812696      -0.38589629
O        0.46952268       0.32968796      -1.55382903
N       -1.03379886      -0.06678771       0.13745431
C       -2.16391556       0.19517862      -0.55138336
N       -3.24474655      -0.34795934       0.03183685
H        2.79893109       0.06450851      -0.83013066
H        3.22701265      -0.57109574       0.75678413
H        2.96046617       1.17319335       0.52902486
H        0.96993194      -0.06787242       1.52463163
H       -1.13600418      -0.41478775       1.08560064
H       -2.87797608      -0.66086847      -1.19323220
H       -4.08424792       0.08799375      -0.34416284
14
Frame=4 idx=008994 GeodesicLength=0.17237259088260612 rxn_smarts="[C:1]([N:2]([C:3](=[O:4])[N:5](/[C:6](=[N:7]/[H:14])[H:13])[H:12])[H:11])([H:8])([H:9])[H:10]>>[C:1]([N:2]([C:3](=[O:4])[N:5]([C-:6]=[N+:7]([H:13])[H:14])[H:12])[H:11])([H:8])([H:9])[H:10]"
C        2.62474538       0.17697462       0.23626267
N        1.22945693      -0.00004150       0.55934009
C        0.25639483       0.12357821      -0.38552651
O        0.46512842       0.27047557      -1.56213817
N       -1.03620747      -0.04818617       0.14504254
C       -2.16595157       0.19154552      -0.55395743
N       -3.23925048      -0.36993905       0.01659446
H        2.79634560       0.12437673      -0.83549460
H        3.21190065      -0.61214091       0.70808126
H        2.98653780       1.14810361       0.58276603
H        0.97044743      -0.05259029       1.52767863
H       -1.13984431      -0.36636908       1.10322819
H       -2.87399010      -0.66549665      -1.21696050
H       -4.08571312       0.07970939      -0.32491666
14
Frame=5 idx=008994 GeodesicLength=0.21437081243477124 rxn_smarts="[C:1]([N:2]([C:3](=[O:4])[N:5](/[C:6](=[N:7]/[H:14])[H:13])[H:12])[H:11])([H:8])([H:9])[H:10]>>[C:1]([N:2]([C:3](=[O:4])[N:5]([C-:6]=[N+:7]([H:13])[H:14])[H:12])[H:11])([H:8])([H:9])[H:10]"
C        2.62430540       0.18108521       0.23574696
N        1.22789037       0.02294410       0.56197139
C        0.25459888       0.11493506      -0.38581332
O        0.46279024       0.20597561      -1.56836723
N       -1.03841139      -0.02798031       0.15100376
C       -2.16693024       0.18608712      -0.55971421
N       -3.23354994      -0.38660908       0.00294732
H        2.79333551       0.19176720      -0.83753526
H        3.19588057      -0.64899735       0.65401390
H        3.01048289       1.12006385       0.63930481
H        0.97099607      -0.04522397       1.52978885
H       -1.14456686      -0.31333753       1.11898414
H       -2.87103110      -0.67555267      -1.23675223
H       -4.08579041       0.07484276      -0.30557886
14
Frame=6 idx=008994 GeodesicLength=0.25592479095449205 rxn_smarts="[C:1]([N:2]([C:3](=[O:4])[N:5](/[C:6](=[N:7]/[H:14])[H:13])[H:12])[H:11])([H:8])([H:9])[H:10]>>[C:1]([N:2]([C:3](=[O:4])[N:5]([C-:6]=[N+:7]([H:13])[H:14])[H:12])[H:11])([H:8])([H:9])[H:10]"
C        2.62333108       0.18648370       0.23534737
N        1.22614219       0.04704328       0.56550202
C        0.25324654       0.10383976      -0.38516750
O        0.46171724       0.13671748      -1.57090772
N       -1.04034460      -0.00825637       0.15611337
C       -2.16708251       0.18166852      -0.56564096
N       -3.22685665      -0.40289883      -0.01168068
H        2.78810857       0.25969526      -0.83608466
H        3.17869168      -0.68041465       0.59769435
H        3.03340498       1.08999032       0.69214176
H        0.97161919      -0.04046544       1.53228658
H       -1.14954346      -0.26138145       1.13243694
H       -2.86803992      -0.68257926      -1.25834207
H       -4.08439432       0.07055768      -0.28369880
14
Frame=7 idx=008994 GeodesicLength=0.29703706868306085 rxn_smarts="[C:1]([N:2]([C:3](=[O:4])[N:5](/[C:6](=[N:7]/[H:14])[H:13])[H:12])[H:11])([H:8])([H:9])[H:10]>>[C:1]([N:2]([C:3](=[O:4])[N:5]([C-:6]=[N+:7]([H:13])[H:14])[H:12])[H:11])([H:8])([H:9])[H:10]"
C        2.62208747       0.19091679       0.23484655
N        1.22405624       0.07263773       0.56947548
C        0.25217992       0.09498316      -0.38369990
O        0.46214996       0.07325457      -1.56965092
N       -1.04214620       0.01224071       0.15965821
C       -2.16675436       0.17578703      -0.57327301
N       -3.21956946      -0.41852829      -0.02585112
H        2.78170032       0.32535173      -0.83144903
H        3.15852755      -0.70965153       0.53968767
H        3.05718047       1.05485666       0.74173389
H        0.97200222      -0.03544153       1.53478262
H       -1.15478150      -0.20805110       1.14330353
H       -2.86477019      -0.69337718      -1.27855462
H       -4.08186244       0.06502124      -0.26100934
14
Frame=8 idx=008994 GeodesicLength=0.3376510009222221 rxn_smarts="[C:1]([N:2]([C:3](=[O:4])[N:5](/[C:6](=[N:7]/[H:14])[H:13])[H:12])[H:11])([H:8])([H:9])[H:10]>>[C:1]([N:2]([C:3](=[O:4])[N:5]([C-:6]=[N+:7]([H:13])[H:14])[H:12])[H:11])([H:8])([H:9])[H:10]"
C        2.62056561       0.19354803       0.23434851
N        1.22172951       0.09739820       0.57337328
C        0.25138350       0.08865540      -0.38183847
O        0.46387409       0.02053615      -1.56579988
N       -1.04384008       0.03415318       0.16142752
C       -2.16601215       0.16792630      -0.58266104
N       -3.21179550      -0.43326398      -0.03876763
H        2.77513926       0.38669041      -0.82371346
H        3.13621412      -0.73654685       0.48178275
H        3.08023802       1.01496564       0.78756871
H        0.97187815      -0.02979885       1.53692254
H       -1.16022955      -0.15253678       1.15135339
H       -2.86097957      -0.70994446      -1.29605489
H       -4.07816542       0.05821763      -0.23794133
14
Frame=9 idx=008994 GeodesicLength=0.37814702639843645 rxn_smarts="[C:1]([N:2]([C:3](=[O:4])[N:5](/[C:6](=[N:7]/[H:14])[H:13])[H:12])[H:11])([H:8])([H:9])[H:10]>>[C:1]([N:2]([C:3](=[O:4])[N:5]([C-:6]=[N+:7]([H:13])[H:14])[H:12])[H:11])([H:8])([H:9])[H:10]"
C        2.61878501       0.19384684       0.23395865
N        1.21921439       0.12323836       0.57744566
C        0.25052490       0.08596376      -0.37919649
O        0.46570821      -0.02358119      -1.55976000
N       -1.04549898       0.05509710       0.16246445
C       -2.16535518       0.16126807      -0.59096425
N       -3.20264941      -0.45127083      -0.05302913
H        2.76911874       0.43831020      -0.81417460
H        3.11115132      -0.76139084       0.42816328
H        3.10311731       0.97259069       0.82593877
H        0.97100388      -0.01658136       1.53970738
H       -1.16541952      -0.10180191       1.15690820
H       -2.85647459      -0.72259318      -1.31665778
H       -4.07322609       0.04690429      -0.21080414
14
Frame=10 idx=008994 GeodesicLength=0.4181648930697215 rxn_smarts="[C:1]([N:2]([C:3](=[O:4])[N:5](/[C:6](=[N:7]/[H:14])[H:13])[H:12])[H:11])([H:8])([H:9])[H:10]>>[C:1]([N:2]([C:3](=[O:4])[N:5]([C-:6]=[N+:7]([H:13])[H:14])[H:12])[H:11])([H:8])([H:9])[H:10]"
C        2.61685729       0.19237606       0.23389066
N        1.21668930       0.14686233       0.58086805
C        0.24987567       0.08503811      -0.37695394
O        0.46828669      -0.05622667      -1.55375612
N       -1.04707903       0.07644616       0.16170041
C       -2.16443656       0.15282419      -0.60047316
N       -3.19340045      -0.46802516      -0.06566479
H        2.76461154       0.48479531      -0.80240263
H        3.08530140      -0.78391646       0.37694631
H        3.12363323       0.92761313       0.86112315
H        0.96934092      -0.00247658       1.54198093
H       -1.17068377      -0.05008618       1.15980344
H       -2.85193827      -0.74036017      -1.33430316
H       -4.06705795       0.03513593      -0.18275916
14
Frame=11 idx=008994 GeodesicLength=0.4580140169954864 rxn_smarts="[C:1]([N:2]([C:3](=[O:4])[N:5](/[C:6](=[N:7]/[H:14])[H:13])[H:12])[H:11])([H:8])([H:9])[H:10]>>[C:1]([N:2]([C:3](=[O:4])[N:5]([C-:6]=[N+:7]([H:13])[H:14])[H:12])[H:11])([H:8])([H:9])[H:10]"
C        2.61468029       0.18900934       0.23414334
N        1.21409723       0.17037762       0.58385489
C        0.24914786       0.08636848      -0.37477096
O        0.47077155      -0.08118150      -1.54772100
N       -1.04871110       0.09762293       0.16006040
C       -2.16364952       0.14521773      -0.60944663
N       -3.18312047      -0.48653716      -0.07884432
H        2.76176171       0.52351847      -0.78961722
H        3.05796241      -0.80483595       0.33040277
H        3.14246648       0.88160030       0.89135093
H        0.96688033       0.01631067       1.54434067
H       -1.17587909      -0.00128197       1.16062486
H       -2.84706570      -0.75601031      -1.35351316
H       -4.05934197       0.01982136      -0.15086456
14
Frame=12 idx=008994 GeodesicLength=0.49741991981369016 rxn_smarts="[C:1]([N:2]([C:3](=[O:4])[N:5](/[C:6](=[N:7]/[H:14])[H:13])[H:12])[H:11])([H:8])([H:9])[H:10]>>[C:1]([N:2]([C:3](=[O:4])[N:5]([C-:6]=[N+:7]([H:13])[H:14])[H:12])[H:11])([H:8])([H:9])[H:10]"
C        2.61240532       0.18626363       0.23473012
N        1.21166869       0.19033205       0.58637635
C        0.24882431       0.08439355      -0.37284067
O        0.47408586      -0.10256478      -1.54234726
N       -1.05003045       0.11617452       0.15709914
C       -2.16215890       0.13652361      -0.61914097
N       -3.17407947      -0.50117334      -0.09085587
H        2.75949068       0.56045411      -0.77537666
H        3.03317219      -0.82082619       0.28621472
H        3.15713763       0.83750777       0.91928682
H        0.96424794       0.03308430       1.54636685
H       -1.18099546       0.04464128       1.15929649
H       -2.84361532      -0.77383119      -1.37034656
H       -4.05015302       0.00902068      -0.11846252
14
Frame=13 idx=008994 GeodesicLength=0.5365837589545543 rxn_smarts="[C:1]([N:2]([C:3](=[O:4])[N:5](/[C:6](=[N:7]/[H:14])[H:13])[H:12])[H:11])([H:8])([H:9])[H:10]>>[C:1]([N:2]([C:3](=[O:4])[N:5]([C-:6]=[N+:7]([H:13])[H:14])[H:12])[H:11])([H:8])([H:9])[H:10]"
C        2.61004842       0.18388609       0.23549396
N        1.20934597       0.20922848       0.58855160
C        0.24865749       0.08014555      -0.37066496
O        0.47761314      -0.12242970      -1.53702820
N       -1.05113812       0.13134348       0.15378760
C       -2.16031915       0.12848002      -0.62840455
N       -3.16588771      -0.51408935      -0.10356729
H        2.75782851       0.59324063      -0.76097856
H        3.00979511      -0.83320007       0.24618982
H        3.16910259       0.79622212       0.94350851
H        0.96162092       0.05183777       1.54852617
H       -1.18587475       0.08386214       1.15670191
H       -2.84143864      -0.78870128      -1.38826500
H       -4.03935379       0.00017413      -0.08385100
14
Frame=14 idx=008994 GeodesicLength=0.5755138815388674 rxn_smarts="[C:1]([N:2]([C:3](=[O:4])[N:5](/[C:6](=[N:7]/[H:14])[H:13])[H:12])[H:11])([H:8])([H:9])[H:10]>>[C:1]([N:2]([C:3](=[O:4])[N:5]([C-:6]=[N+:7]([H:13])[H:14])[H:12])[H:11])([H:8])([H:9])[H:10]"
C        2.60763050       0.18227615       0.23639006
N        1.20707816       0.22548307       0.59051167
C        0.24866208       0.07254787      -0.36817081
O        0.48146010      -0.14198015      -1.53180965
N       -1.05203913       0.14430337       0.14996497
C       -2.15807131       0.12073060      -0.63782523
N       -3.15883568      -0.52421006      -0.11642577
H        2.75598234       0.62440917      -0.74609721
H        2.98910740      -0.84169853       0.20849882
H        3.17801770       0.75783313       0.96541762
H        0.95908692       0.06927636       1.55068749
H       -1.19070181       0.11972183       1.15295654
H       -2.84032957      -0.80274417      -1.40590165
H       -4.02704771      -0.00594864      -0.04819685
14
Frame=15 idx=008994 GeodesicLength=0.6143150781017777 rxn_smarts="[C:1]([N:2]([C:3](=[O:4])[N:5](/[C:6](=[N:7]/[H:14])[H:13])[H:12])[H:11])([H:8])([H:9])[H:10]>>[C:1]([N:2]([C:3](=[O:4])[N:5]([C-:6]=[N+:7]([H:13])[H:14])[H:12])[H:11])([H:8])([H:9])[H:10]"
C        2.60511396       0.18072805       0.23744345
N        1.20475477       0.24036412       0.59219083
C        0.24870644       0.06377536      -0.36552476
O        0.48548519      -0.15941235      -1.52691414
N       -1.05285036       0.15601308       0.14557804
C       -2.15561651       0.11296624      -0.64747218
N       -3.15264176      -0.53247581      -0.12926585
H        2.75441834       0.65368336      -0.73065310
H        2.96961280      -0.84797535       0.17266322
H        3.18494405       0.72055098       0.98562931
H        0.95641728       0.08628007       1.55269696
H       -1.19551625       0.15375625       1.14809464
H       -2.83965404      -0.81724874      -1.42292086
H       -4.01317391      -0.01100525      -0.01154556
14
Frame=16 idx=008994 GeodesicLength=0.6531222252340055 rxn_smarts="[C:1]([N:2]([C:3](=[O:4])[N:5](/[C:6](=[N:7]/[H:14])[H:13])[H:12])[H:11])([H:8])([H:9])[H:10]>>[C:1]([N:2]([C:3](=[O:4])[N:5]([C-:6]=[N+:7]([H:13])[H:14])[H:12])[H:11])([H:8])([H:9])[H:10]"
C        2.60244143       0.17901944       0.23866449
N        1.20230016       0.25406628       0.59363562
C        0.24870020       0.05458289      -0.36280239
O        0.48958651      -0.17517559      -1.52226703
N       -1.05364257       0.16739403       0.14056479
C       -2.15308045       0.10544296      -0.65738029
N       -3.14698437      -0.53938653      -0.14216855
H        2.75309998       0.68133931      -0.71453982
H        2.95093100      -0.85258408       0.13814569
H        3.19015372       0.68369619       1.00455716
H        0.95347403       0.10278087       1.55453358
H       -1.20039172       0.18729731       1.14208503
H       -2.83903904      -0.83224255      -1.43947402
H       -3.99754889      -0.01623053       0.02644574
