15
Frame=0 idx=009694 GeodesicLength=0.0 rxn_smarts="[O:1]([C:2]([C:3]1([H:11])[C:4]([H:12])([H:13])[C:5](=[O:6])[C:7]1([H:14])[H:15])([H:9])[H:10])[H:8]>>[O:1]([C:2]([C:3]([C:7]([C:5](=[C+:4][H:12])[O-:6])([H:14])[H:15])([H:11])[H:13])([H:9])[H:10])[H:8]"
O       -1.40697010       0.98187524       0.56623367
C       -1.51499904      -0.22076120      -0.16440743
C       -0.13724777      -0.82424193      -0.30598924
C        1.37795501      -0.26221048       1.43473550
C        1.71159988       0.54102056       0.28457035
O        2.56837256       1.39504955       0.35603501
C        0.92443604       0.08907600      -0.92146540
H       -2.25245869       1.43173864       0.56988051
H       -2.18369048      -0.93004258       0.33786535
H       -1.91459269      -0.03539374      -1.17087706
H       -0.20447660      -1.79480672      -0.80026409
H        0.71476595       0.25389168       2.13867670
H        0.24502425      -1.14336127       0.72812025
H        0.49551490       0.95188795      -1.43121143
H        1.57676679      -0.43372173      -1.62190270
15
Frame=1 idx=009694 GeodesicLength=0.06940834906640785 rxn_smarts="[O:1]([C:2]([C:3]1([H:11])[C:4]([H:12])([H:13])[C:5](=[O:6])[C:7]1([H:14])[H:15])([H:9])[H:10])[H:8]>>[O:1]([C:2]([C:3]([C:7]([C:5](=[C+:4][H:12])[O-:6])([H:14])[H:15])([H:11])[H:13])([H:9])[H:10])[H:8]"
O       -1.40740086       0.97599345       0.58321978
C       -1.51353822      -0.22060268      -0.15697414
C       -0.13564709      -0.82510633      -0.30103215
C        1.37867462      -0.26340884       1.42660624
C        1.70768458       0.53926761       0.27752316
O        2.53306304       1.42194556       0.37566201
C        0.92303359       0.08581018      -0.92764321
H       -2.23023102       1.46335541       0.53279121
H       -2.18314483      -0.93115423       0.34196098
H       -1.91557290      -0.03251249      -1.16197051
H       -0.20873649      -1.78947037      -0.80719174
H        0.72393018       0.24123991       2.14539856
H        0.25915706      -1.17543542       0.73650638
H        0.49271387       0.94767256      -1.43795485
H        1.57601447      -0.43759432      -1.62690171
15
Frame=2 idx=009694 GeodesicLength=0.13898143445767402 rxn_smarts="[O:1]([C:2]([C:3]1([H:11])[C:4]([H:12])([H:13])[C:5](=[O:6])[C:7]1([H:14])[H:15])([H:9])[H:10])[H:8]>>[O:1]([C:2]([C:3]([C:7]([C:5](=[C+:4][H:12])[O-:6])([H:14])[H:15])([H:11])[H:13])([H:9])[H:10])[H:8]"
O       -1.40863494       0.97013252       0.59962677
C       -1.51228459      -0.22052450      -0.14988158
C       -0.13411484      -0.82585327      -0.29604749
C        1.37860123      -0.26412372       1.41848538
C        1.70345798       0.53809084       0.27056541
O        2.49618187       1.44786525       0.39529999
C        0.92141910       0.08277118      -0.93379653
H       -2.20352964       1.49417438       0.49701713
H       -2.18271715      -0.93245624       0.34565923
H       -1.91662013      -0.02982641      -1.15346342
H       -0.21277834      -1.78422152      -0.81332707
H        0.73254866       0.22882564       2.15194835
H        0.27369979      -1.20707617       0.74458288
H        0.48967896       0.94353625      -1.44488457
H        1.57509203      -0.44131424      -1.63178450
15
Frame=3 idx=009694 GeodesicLength=0.20875683675661894 rxn_smarts="[O:1]([C:2]([C:3]1([H:11])[C:4]([H:12])([H:13])[C:5](=[O:6])[C:7]1([H:14])[H:15])([H:9])[H:10])[H:8]>>[O:1]([C:2]([C:3]([C:7]([C:5](=[C+:4][H:12])[O-:6])([H:14])[H:15])([H:11])[H:13])([H:9])[H:10])[H:8]"
O       -1.41072054       0.96432937       0.61540254
C       -1.51125936      -0.22051189      -0.14316179
C       -0.13266495      -0.82645663      -0.29104934
C        1.37773273      -0.26430226       1.41039561
C        1.69884526       0.53757749       0.26372232
O        2.45802683       1.47262668       0.41479667
C        0.91960043       0.07996787      -0.93991567
H       -2.17256084       1.52399161       0.46276288
H       -2.18242829      -0.93394696       0.34890837
H       -1.91774305      -0.02728383      -1.14538788
H       -0.21658534      -1.77907288      -0.81868082
H        0.74061634       0.21671124       2.15833321
H        0.28867064      -1.23821692       0.75240176
H        0.48643082       0.93947273      -1.45202645
H        1.57403932      -0.44488563      -1.63650142
15
Frame=4 idx=009694 GeodesicLength=0.2788068623158938 rxn_smarts="[O:1]([C:2]([C:3]1([H:11])[C:4]([H:12])([H:13])[C:5](=[O:6])[C:7]1([H:14])[H:15])([H:9])[H:10])[H:8]>>[O:1]([C:2]([C:3]([C:7]([C:5](=[C+:4][H:12])[O-:6])([H:14])[H:15])([H:11])[H:13])([H:9])[H:10])[H:8]"
O       -1.41367369       0.95865646       0.63047255
C       -1.51048829      -0.22053787      -0.13686861
C       -0.13131506      -0.82691255      -0.28606199
C        1.37609529      -0.26391050       1.40237320
C        1.69380901       0.53777786       0.25701618
O        2.41883859       1.49617778       0.43404526
C        0.91759781       0.07737894      -0.94600449
H       -2.13758367       1.55261757       0.43032103
H       -2.18231454      -0.93561001       0.35163818
H       -1.91896565      -0.02480706      -1.13780762
H       -0.22016541      -1.77407492      -0.82327406
H        0.74816012       0.20496487       2.16456803
H        0.30409442      -1.26881734       0.76002309
H        0.48300171       0.93545686      -1.45943336
H        1.57290935      -0.44836010      -1.64100740
15
Frame=5 idx=009694 GeodesicLength=0.34907766994058587 rxn_smarts="[O:1]([C:2]([C:3]1([H:11])[C:4]([H:12])([H:13])[C:5](=[O:6])[C:7]1([H:14])[H:15])([H:9])[H:10])[H:8]>>[O:1]([C:2]([C:3]([C:7]([C:5](=[C+:4][H:12])[O-:6])([H:14])[H:15])([H:11])[H:13])([H:9])[H:10])[H:8]"
O       -1.41755533       0.95312374       0.64478384
C       -1.50995221      -0.22058033      -0.13097668
C       -0.13007537      -0.82714999      -0.28107482
C        1.37362373      -0.26292865       1.39440225
C        1.68828021       0.53867943       0.25043789
O        2.37894016       1.51831729       0.45286701
C        0.91541648       0.07503026      -0.95204282
H       -2.09883097       1.57974811       0.39975379
H       -2.18235680      -0.93738870       0.35387935
H       -1.92021918      -0.02237602      -1.13067375
H       -0.22349319      -1.76913737      -0.82710123
H        0.75510772       0.19362892       2.17059441
H        0.31995975      -1.29878455       0.76748950
H        0.47944473       0.93149994      -1.46705835
H        1.57171027      -0.45168209      -1.64528040
15
Frame=6 idx=009694 GeodesicLength=0.41967046837993544 rxn_smarts="[O:1]([C:2]([C:3]1([H:11])[C:4]([H:12])([H:13])[C:5](=[O:6])[C:7]1([H:14])[H:15])([H:9])[H:10])[H:8]>>[O:1]([C:2]([C:3]([C:7]([C:5](=[C+:4][H:12])[O-:6])([H:14])[H:15])([H:11])[H:13])([H:9])[H:10])[H:8]"
O       -1.42233110       0.94785738       0.65823037
C       -1.50967626      -0.22058973      -0.12558773
C       -0.12896013      -0.82719208      -0.27612960
C        1.37037728      -0.26133135       1.38654611
C        1.68229501       0.54027049       0.24400069
O        2.33857670       1.53909841       0.47120657
C        0.91309862       0.07285685      -0.95805766
H       -2.05679585       1.60519139       0.37155388
H       -2.18260506      -0.93924277       0.35550575
H       -1.92152818      -0.01986895      -1.12411831
H       -0.22659248      -1.76436987      -0.83019372
H        0.76153039       0.18283934       2.17644132
H        0.33629486      -1.32809993       0.77488423
H        0.47581553       0.92756072      -1.47497943
H        1.57050067      -0.45497989      -1.64930246
15
Frame=7 idx=009694 GeodesicLength=0.49057398788247897 rxn_smarts="[O:1]([C:2]([C:3]1([H:11])[C:4]([H:12])([H:13])[C:5](=[O:6])[C:7]1([H:14])[H:15])([H:9])[H:10])[H:8]>>[O:1]([C:2]([C:3]([C:7]([C:5](=[C+:4][H:12])[O-:6])([H:14])[H:15])([H:11])[H:13])([H:9])[H:10])[H:8]"
O       -1.42798475       0.94289048       0.67074634
C       -1.50966066      -0.22053541      -0.12073161
C       -0.12798129      -0.82701522      -0.27123563
C        1.36635770      -0.25911378       1.37879935
C        1.67586240       0.54250661       0.23768730
O        2.29799138       1.55849540       0.48896247
C        0.91067776       0.07083313      -0.96404488
H       -2.01188512       1.62876083       0.34595953
H       -2.18308374      -0.94112494       0.35647581
H       -1.92286328      -0.01721467      -1.11816171
H       -0.22947191      -1.75976415      -0.83255067
H        0.76743378       0.17266406       2.18206086
H        0.35310712      -1.35671306       0.78226414
H        0.47218128       0.92361145      -1.48318974
H        1.56931933      -0.45828073      -1.65304156
15
Frame=8 idx=009694 GeodesicLength=0.5618585957072848 rxn_smarts="[O:1]([C:2]([C:3]1([H:11])[C:4]([H:12])([H:13])[C:5](=[O:6])[C:7]1([H:14])[H:15])([H:9])[H:10])[H:8]>>[O:1]([C:2]([C:3]([C:7]([C:5](=[C+:4][H:12])[O-:6])([H:14])[H:15])([H:11])[H:13])([H:9])[H:10])[H:8]"
O       -1.43449261       0.93830685       0.68229094
C       -1.50990028      -0.22038027      -0.11643270
C       -0.12714480      -0.82662122      -0.26641201
C        1.36160499      -0.25630520       1.37119735
C        1.66901220       0.54532985       0.23149560
O        2.25736698       1.57655756       0.50608948
C        0.90817616       0.06892530      -0.97002412
H       -1.96453181       1.65035398       0.32313833
H       -2.18379827      -0.94298456       0.35677395
H       -1.92421113      -0.01435046      -1.11285014
H       -0.23214146      -1.75535843      -0.83421219
H        0.77286274       0.16314706       2.18747728
H        0.37043553      -1.38462826       0.78970108
H        0.46858017       0.91964727      -1.49171093
H        1.56818159      -0.46163949      -1.65652192
15
Frame=9 idx=009694 GeodesicLength=0.6334812909120527 rxn_smarts="[O:1]([C:2]([C:3]1([H:11])[C:4]([H:12])([H:13])[C:5](=[O:6])[C:7]1([H:14])[H:15])([H:9])[H:10])[H:8]>>[O:1]([C:2]([C:3]([C:7]([C:5](=[C+:4][H:12])[O-:6])([H:14])[H:15])([H:11])[H:13])([H:9])[H:10])[H:8]"
O       -1.44183438       0.93413168       0.69280697
C       -1.51037209      -0.22008562      -0.11263956
C       -0.12645870      -0.82595913      -0.26165111
C        1.35610988      -0.25295872       1.36367755
C        1.66176361       0.54865365       0.22538567
O        2.21677942       1.59329512       0.52251598
C        0.90563297       0.06712798      -0.97597871
H       -1.91503647       1.66977946       0.30306226
H       -2.18474776      -0.94471301       0.35648771
H       -1.92551680      -0.01126104      -1.10809324
H       -0.23460968      -1.75106727      -0.83517279
H        0.77778673       0.15423596       2.19260081
H        0.38828298      -1.41180350       0.79721360
H        0.46509633       0.91565276      -1.50048832
H        1.56712395      -0.46502831      -1.65972682
15
Frame=10 idx=009694 GeodesicLength=0.7054747022023201 rxn_smarts="[O:1]([C:2]([C:3]1([H:11])[C:4]([H:12])([H:13])[C:5](=[O:6])[C:7]1([H:14])[H:15])([H:9])[H:10])[H:8]>>[O:1]([C:2]([C:3]([C:7]([C:5](=[C+:4][H:12])[O-:6])([H:14])[H:15])([H:11])[H:13])([H:9])[H:10])[H:8]"
O       -1.44992460       0.93047223       0.70224487
C       -1.51106532      -0.21960288      -0.10944422
C       -0.12592061      -0.82505261      -0.25698713
C        1.34994528      -0.24908345       1.35630523
C        1.65420593       0.55239914       0.21936107
O        2.17653048       1.60873364       0.53820902
C        0.90308104       0.06537656      -0.98193680
H       -1.86417900       1.68699609       0.28610500
H       -2.18593615      -0.94627218       0.35550167
H       -1.92675970      -0.00785625      -1.10402926
H       -0.23689041      -1.74698377      -0.83547432
H        0.78230535       0.14607123       2.19747535
H        0.40669314      -1.43824580       0.80490236
H        0.46177088       0.91161427      -1.50954310
H        1.56614367      -0.46856623      -1.66268973
15
Frame=11 idx=009694 GeodesicLength=0.7778433402069111 rxn_smarts="[O:1]([C:2]([C:3]1([H:11])[C:4]([H:12])([H:13])[C:5](=[O:6])[C:7]1([H:14])[H:15])([H:9])[H:10])[H:8]>>[O:1]([C:2]([C:3]([C:7]([C:5](=[C+:4][H:12])[O-:6])([H:14])[H:15])([H:11])[H:13])([H:9])[H:10])[H:8]"
O       -1.45872141       0.92734901       0.71058999
C       -1.51197361      -0.21890844      -0.10682815
C       -0.12553799      -0.82388842      -0.25242273
C        1.34314665      -0.24473641       1.34905850
C        1.64637736       0.55649776       0.21340003
O        2.13671950       1.62292804       0.55314438
C        0.90054546       0.06365752      -0.98789685
H       -1.81231498       1.70198666       0.27223772
H       -2.18737423      -0.94760927       0.35385678
H       -1.92792460      -0.00412092      -1.10063394
H       -0.23899841      -1.74308867      -0.83513057
H        0.78645005       0.13861598       2.20207658
H        0.42570508      -1.46396034       0.81281037
H        0.45864427       0.90753086      -1.51884670
H        1.56525686      -0.47225337      -1.66541541
15
Frame=12 idx=009694 GeodesicLength=0.8506093804013124 rxn_smarts="[O:1]([C:2]([C:3]1([H:11])[C:4]([H:12])([H:13])[C:5](=[O:6])[C:7]1([H:14])[H:15])([H:9])[H:10])[H:8]>>[O:1]([C:2]([C:3]([C:7]([C:5](=[C+:4][H:12])[O-:6])([H:14])[H:15])([H:11])[H:13])([H:9])[H:10])[H:8]"
O       -1.46817406       0.92480235       0.71784369
C       -1.51308722      -0.21797791      -0.10479400
C       -0.12531331      -0.82247172      -0.24797050
C        1.33575916      -0.23997064       1.34194472
C        1.63832371       0.56088091       0.20749095
O        2.09746545       1.63593901       0.56731463
C        0.89804377       0.06194652      -0.99387115
H       -1.75985826       1.71479144       0.26148213
H       -2.18906051      -0.94868690       0.35156402
H       -1.92899739      -0.00003552      -1.09792450
H       -0.24094269      -1.73940201      -0.83417411
H        0.79026833       0.13186660       2.20641836
H        0.44537076      -1.48897108       0.82099636
H        0.45573949       0.90340836      -1.52838511
H        1.56446278      -0.47611941      -1.66793549
15
Frame=13 idx=009694 GeodesicLength=0.9237607172725742 rxn_smarts="[O:1]([C:2]([C:3]1([H:11])[C:4]([H:12])([H:13])[C:5](=[O:6])[C:7]1([H:14])[H:15])([H:9])[H:10])[H:8]>>[O:1]([C:2]([C:3]([C:7]([C:5](=[C+:4][H:12])[O-:6])([H:14])[H:15])([H:11])[H:13])([H:9])[H:10])[H:8]"
O       -1.47823185       0.92284444       0.72397319
C       -1.51439982      -0.21679068      -0.10329244
C       -0.12525943      -0.82077742      -0.24362893
C        1.32782179      -0.23485758       1.33490108
C        1.63007326       0.56548813       0.20161504
O        2.05872805       1.64783581       0.58072970
C        0.89559523       0.06024104      -0.99983380
H       -1.70698502       1.72539788       0.25367403
H       -2.19099763      -0.94943070       0.34871644
H       -1.92997985       0.00436731      -1.09581814
H       -0.24275221      -1.73586285      -0.83261359
H        0.79378524       0.12571578       2.21043469
H        0.46573735      -1.51327401       0.82945993
H        0.45308961       0.89923499      -1.53809439
H        1.56377527      -0.48013214      -1.67022281
15
Frame=14 idx=009694 GeodesicLength=0.9972911315131442 rxn_smarts="[O:1]([C:2]([C:3]1([H:11])[C:4]([H:12])([H:13])[C:5](=[O:6])[C:7]1([H:14])[H:15])([H:9])[H:10])[H:8]>>[O:1]([C:2]([C:3]([C:7]([C:5](=[C+:4][H:12])[O-:6])([H:14])[H:15])([H:11])[H:13])([H:9])[H:10])[H:8]"
O       -1.48883044       0.92152377       0.72899779
C       -1.51589531      -0.21532319      -0.10236234
C       -0.12537179      -0.81882295      -0.23941770
C        1.31937869      -0.22943548       1.32797488
C        1.62169396       0.57023886       0.19576874
O        2.02076591       1.65862642       0.59338315
C        0.89320897       0.05851144      -1.00581283
H       -1.65429440       1.73389865       0.24891899
H       -2.19317061      -0.94982941       0.34527229
H       -1.93084734       0.00911169      -1.09439694
H       -0.24442373      -1.73252633      -0.83048815
H        0.79706012       0.12023338       2.21417929
H        0.48686383      -1.53689972       0.83829177
H        0.45070138       0.89504055      -1.54796160
H        1.56316076      -0.48434769      -1.67234734
15
Frame=15 idx=009694 GeodesicLength=1.0711941404621161 rxn_smarts="[O:1]([C:2]([C:3]1([H:11])[C:4]([H:12])([H:13])[C:5](=[O:6])[C:7]1([H:14])[H:15])([H:9])[H:10])[H:8]>>[O:1]([C:2]([C:3]([C:7]([C:5](=[C+:4][H:12])[O-:6])([H:14])[H:15])([H:11])[H:13])([H:9])[H:10])[H:8]"
O       -1.49991611       0.92085197       0.73291382
C       -1.51756948      -0.21356100      -0.10197943
C       -0.12566032      -0.81660133      -0.23534159
C        1.31046860      -0.22376603       1.32113724
C        1.61321635       0.57507944       0.18994149
O        1.98360064       1.66836985       0.60529668
C        0.89089334       0.05675108      -1.01179991
H       -1.60201448       1.74035461       0.24709526
H       -2.19557940      -0.94984190       0.34128561
H       -1.93160443       0.01417271      -1.09362825
H       -0.24597816      -1.72937048      -0.82781519
H        0.80012939       0.11535011       2.21763297
H        0.50881440      -1.55986143       0.84751615
H        0.44858573       0.89082973      -1.55794273
H        1.56261393      -0.48875732      -1.67431211
15
Frame=16 idx=009694 GeodesicLength=1.145470503541397 rxn_smarts="[O:1]([C:2]([C:3]1([H:11])[C:4]([H:12])([H:13])[C:5](=[O:6])[C:7]1([H:14])[H:15])([H:9])[H:10])[H:8]>>[O:1]([C:2]([C:3]([C:7]([C:5](=[C+:4][H:12])[O-:6])([H:14])[H:15])([H:11])[H:13])([H:9])[H:10])[H:8]"
O       -1.51143877       0.92084859       0.73572432
C       -1.51941994      -0.21149097      -0.10212823
C       -0.12613293      -0.81411296      -0.23140818
C        1.30113070      -0.21790914       1.31437465
C        1.60467326       0.57995743       0.18412710
O        1.94727309       1.67711732       0.61649671
C        0.88865320       0.05495231      -1.01779400
H       -1.55038750       1.74484987       0.24809745
H       -2.19822242      -0.94943841       0.33680048
H       -1.93225969       0.01952708      -1.09349925
H       -0.24743156      -1.72638877      -0.82461690
H        0.80303140       0.11101086       2.22079484
H        0.53166258      -1.58217937       0.85716788
H        0.44674516       0.88661638      -1.56800175
H        1.56212341      -0.49336022      -1.67613513
