17
Frame=0 idx=008394 GeodesicLength=0.0 rxn_smarts="[C:1]([O:2][C:3]([C:4]([H:11])([H:12])[H:13])([C:5]([H:14])([H:15])[H:16])[C:6](=[O:7])[H:17])([H:8])([H:9])[H:10]>>[C:1]([O:2][C:3]([C:4]([H:11])([H:12])[H:13])([C:5]([H:14])([H:15])[H:16])[C:6][O:7][H:17])([H:8])([H:9])[H:10]"
C        2.14614311       0.14675624      -0.11769212
O        1.05623569       0.30840570       0.75801729
C       -0.21588410       0.00757754       0.22305673
C       -0.58234783       0.88076210      -0.97703393
C       -1.20192522       0.20558921       1.37321968
C       -0.29220186      -1.45458214      -0.16022265
O       -1.37445739      -1.85325376      -0.75671585
H        2.11243858      -0.82092334      -0.63078944
H        3.04773780       0.18432856       0.49204569
H        2.19651704       0.94724034      -0.86446300
H        0.09245079       0.71979999      -1.81875215
H       -0.53566042       1.93116028      -0.68651000
H       -1.59321059       0.64797134      -1.31110017
H       -1.14549870       1.24156050       1.70811224
H       -2.21889972      -0.01709777       1.05122084
H       -0.94138242      -0.44222431       2.21098121
H       -0.55005475      -2.63307050      -0.49337430
17
Frame=1 idx=008394 GeodesicLength=0.03397708135497622 rxn_smarts="[C:1]([O:2][C:3]([C:4]([H:11])([H:12])[H:13])([C:5]([H:14])([H:15])[H:16])[C:6](=[O:7])[H:17])([H:8])([H:9])[H:10]>>[C:1]([O:2][C:3]([C:4]([H:11])([H:12])[H:13])([C:5]([H:14])([H:15])[H:16])[C:6][O:7][H:17])([H:8])([H:9])[H:10]"
C        2.14618515       0.14912274      -0.11901297
O        1.05583658       0.30394173       0.75742044
C       -0.21660975       0.00700615       0.22020933
C       -0.58105846       0.88417844      -0.97738823
C       -1.20245836       0.20259170       1.37073812
C       -0.28978110      -1.45323277      -0.16965853
O       -1.36880313      -1.85254370      -0.76426218
H        2.11426041      -0.81619606      -0.63674215
H        3.04756584       0.18516544       0.49114218
H        2.19516835       0.95329942      -0.86184893
H        0.09141880       0.72190841      -1.82072235
H       -0.52887971       1.93373838      -0.68467285
H       -1.59346231       0.65687156      -1.31047454
H       -1.14422168       1.23720834       1.70953251
H       -2.21990906      -0.01678205       1.04796500
H       -0.94347520      -0.44897854       2.20609785
H       -0.56177636      -2.64729919      -0.45832271
17
Frame=2 idx=008394 GeodesicLength=0.06791065221857856 rxn_smarts="[C:1]([O:2][C:3]([C:4]([H:11])([H:12])[H:13])([C:5]([H:14])([H:15])[H:16])[C:6](=[O:7])[H:17])([H:8])([H:9])[H:10]>>[C:1]([O:2][C:3]([C:4]([H:11])([H:12])[H:13])([C:5]([H:14])([H:15])[H:16])[C:6][O:7][H:17])([H:8])([H:9])[H:10]"
C        2.14622184       0.15143184      -0.12030194
O        1.05543417       0.29945205       0.75679964
C       -0.21732745       0.00631741       0.21738899
C       -0.57979373       0.88739722      -0.97774886
C       -1.20297695       0.19955717       1.36827549
C       -0.28729559      -1.45204272      -0.17891763
O       -1.36305313      -1.85209768      -0.77162883
H        2.11610621      -0.81153531      -0.64258988
H        3.04738605       0.18600804       0.49026646
H        2.19379028       0.95922954      -0.85924094
H        0.09035124       0.72379699      -1.82269226
H       -0.52216658       1.93610697      -0.68291634
H       -1.59369855       0.66548384      -1.30981720
H       -1.14295009       1.23282572       1.71089337
H       -2.22089049      -0.01657016       1.04476649
H       -0.94553446      -0.45569288       2.20126175
H       -0.57360279      -2.65966805      -0.42379832
17
Frame=3 idx=008394 GeodesicLength=0.1018237569224557 rxn_smarts="[C:1]([O:2][C:3]([C:4]([H:11])([H:12])[H:13])([C:5]([H:14])([H:15])[H:16])[C:6](=[O:7])[H:17])([H:8])([H:9])[H:10]>>[C:1]([O:2][C:3]([C:4]([H:11])([H:12])[H:13])([C:5]([H:14])([H:15])[H:16])[C:6][O:7][H:17])([H:8])([H:9])[H:10]"
C        2.14624784       0.15368299      -0.12155900
O        1.05502695       0.29493917       0.75616032
C       -0.21804211       0.00552077       0.21460294
C       -0.57855469       0.89042306      -0.97811372
C       -1.20348481       0.19650252       1.36583918
C       -0.28476012      -1.45100326      -0.18798106
O       -1.35721757      -1.85189675      -0.77881290
H        2.11795909      -0.80693571      -0.64834448
H        3.04719551       0.18684104       0.48941614
H        2.19238194       0.96503867      -0.85663093
H        0.08924257       0.72546176      -1.82466135
H       -0.51551023       1.93827252      -0.68124276
H       -1.59392696       0.67382765      -1.30911984
H       -1.14168139       1.22843085       1.71220002
H       -2.22184963      -0.01644209       1.04163379
H       -0.94756855      -0.46234969       2.19648368
H       -0.58545785      -2.67031350      -0.38987004
17
Frame=4 idx=008394 GeodesicLength=0.13570429365048933 rxn_smarts="[C:1]([O:2][C:3]([C:4]([H:11])([H:12])[H:13])([C:5]([H:14])([H:15])[H:16])[C:6](=[O:7])[H:17])([H:8])([H:9])[H:10]>>[C:1]([O:2][C:3]([C:4]([H:11])([H:12])[H:13])([C:5]([H:14])([H:15])[H:16])[C:6][O:7][H:17])([H:8])([H:9])[H:10]"
C        2.14624765       0.15585327      -0.12277307
O        1.05460634       0.29042160       0.75551674
C       -0.21876864       0.00463442       0.21187855
C       -0.57735379       0.89324832      -0.97847628
C       -1.20398826       0.19347808       1.36345839
C       -0.28221241      -1.45010342      -0.19678211
O       -1.35134635      -1.85192562      -0.78573047
H        2.11978995      -0.80243952      -0.65396092
H        3.04698243       0.18765392       0.48859658
H        2.19093312       0.97067844      -0.85403723
H        0.08807516       0.72686702      -1.82662140
H       -0.50891470       1.94023524      -0.67967115
H       -1.59416483       0.68189964      -1.30836734
H       -1.14041339       1.22408417       1.71345469
H       -2.22279935      -0.01633735       1.03860830
H       -0.94958199      -0.46887526       2.19181228
H       -0.59709095      -2.67937298      -0.35690557
17
Frame=5 idx=008394 GeodesicLength=0.1695423224111258 rxn_smarts="[C:1]([O:2][C:3]([C:4]([H:11])([H:12])[H:13])([C:5]([H:14])([H:15])[H:16])[C:6](=[O:7])[H:17])([H:8])([H:9])[H:10]>>[C:1]([O:2][C:3]([C:4]([H:11])([H:12])[H:13])([C:5]([H:14])([H:15])[H:16])[C:6][O:7][H:17])([H:8])([H:9])[H:10]"
C        2.14621004       0.15792692      -0.12393751
O        1.05416547       0.28591472       0.75487836
C       -0.21951907       0.00367788       0.20923333
C       -0.57619950       0.89587826      -0.97883140
C       -1.20449326       0.19052185       1.36115262
C       -0.27968382      -1.44932536      -0.20528380
O       -1.34548305      -1.85216227      -0.79232659
H        2.12157709      -0.79807762      -0.65940746
H        3.04673799       0.18843860       0.48781085
H        2.18943841       0.97611457      -0.85147557
H        0.08683783       0.72800125      -1.82856557
H       -0.50238143       1.94200499      -0.67821106
H       -1.59442451       0.68971177      -1.30755008
H       -1.13914451       1.21982988       1.71466156
H       -2.22375118      -0.01620522       1.03571726
H       -0.95158034      -0.47521878       2.18727869
H       -0.60830618      -2.68703144      -0.32514362
17
Frame=6 idx=008394 GeodesicLength=0.20336034681820753 rxn_smarts="[C:1]([O:2][C:3]([C:4]([H:11])([H:12])[H:13])([C:5]([H:14])([H:15])[H:16])[C:6](=[O:7])[H:17])([H:8])([H:9])[H:10]>>[C:1]([O:2][C:3]([C:4]([H:11])([H:12])[H:13])([C:5]([H:14])([H:15])[H:16])[C:6][O:7][H:17])([H:8])([H:9])[H:10]"
C        2.14613820       0.15991967      -0.12505926
O        1.05370662       0.28141292       0.75424249
C       -0.22029067       0.00265646       0.20665551
C       -0.57508433       0.89833634      -0.97917990
C       -1.20499993       0.18762223       1.35891117
C       -0.27717182      -1.44865682      -0.21352258
O       -1.33962472      -1.85257816      -0.79865022
H        2.12332471      -0.79382529      -0.66471064
H        3.04646473       0.18920431       0.48705397
H        2.18790120       0.98137780      -0.84893863
H        0.08553608       0.72889762      -1.83049758
H       -0.49589130       1.94360147      -0.67684899
H       -1.59470252       0.69730645      -1.30667025
H       -1.13786958       1.21565064       1.71582961
H       -2.22470502      -0.01604669       1.03294076
H       -0.95357141      -0.48141295       2.18285961
H       -0.61916025      -2.69346600      -0.29441505
17
Frame=7 idx=008394 GeodesicLength=0.23717512491702725 rxn_smarts="[C:1]([O:2][C:3]([C:4]([H:11])([H:12])[H:13])([C:5]([H:14])([H:15])[H:16])[C:6](=[O:7])[H:17])([H:8])([H:9])[H:10]>>[C:1]([O:2][C:3]([C:4]([H:11])([H:12])[H:13])([C:5]([H:14])([H:15])[H:16])[C:6][O:7][H:17])([H:8])([H:9])[H:10]"
C        2.14603525       0.16184393      -0.12614484
O        1.05323260       0.27690738       0.75360760
C       -0.22108063       0.00157315       0.20413592
C       -0.57400101       0.90064092      -0.97952181
C       -1.20550896       0.18476968       1.35672506
C       -0.27467521      -1.44808930      -0.22152784
O       -1.33376904      -1.85315127      -0.80474206
H        2.12503902      -0.78966204      -0.66989417
H        3.04616702       0.18996381       0.48631781
H        2.18632350       0.98649633      -0.84641756
H        0.08417544       0.72958274      -1.83242018
H       -0.48942895       1.94503952      -0.67557205
H       -1.59499334       0.70471498      -1.30573161
H       -1.13658475       1.21153164       1.71696707
H       -2.22566170      -0.01585985       1.03026206
H       -0.95556346      -0.48748525       2.17853556
H       -0.62970576      -2.69881638      -0.26457898
17
Frame=8 idx=008394 GeodesicLength=0.2710187572714207 rxn_smarts="[C:1]([O:2][C:3]([C:4]([H:11])([H:12])[H:13])([C:5]([H:14])([H:15])[H:16])[C:6](=[O:7])[H:17])([H:8])([H:9])[H:10]>>[C:1]([O:2][C:3]([C:4]([H:11])([H:12])[H:13])([C:5]([H:14])([H:15])[H:16])[C:6][O:7][H:17])([H:8])([H:9])[H:10]"
C        2.14590907       0.16371287      -0.12720279
O        1.05274630       0.27238400       0.75297643
C       -0.22188634       0.00042794       0.20166660
C       -0.57294358       0.90281057      -0.97986583
C       -1.20602714       0.18195622       1.35459298
C       -0.27218528      -1.44762488      -0.22932599
O       -1.32790476      -1.85387297      -0.81064136
H        2.12672788      -0.78555788      -0.67500742
H        3.04585457       0.19069985       0.48559637
H        2.18471353       0.99152044      -0.84389088
H        0.08276480       0.73007946      -1.83434916
H       -0.48298399       1.94633915      -0.67437770
H       -1.59529332       0.71197071      -1.30474781
H       -1.13529405       1.20746378       1.71809049
H       -2.22662807      -0.01564381       1.02767112
H       -0.95757024      -0.49346451       2.17430104
H       -0.63999939      -2.70320094      -0.23548607
17
Frame=9 idx=008394 GeodesicLength=0.30486164557680556 rxn_smarts="[C:1]([O:2][C:3]([C:4]([H:11])([H:12])[H:13])([C:5]([H:14])([H:15])[H:16])[C:6](=[O:7])[H:17])([H:8])([H:9])[H:10]>>[C:1]([O:2][C:3]([C:4]([H:11])([H:12])[H:13])([C:5]([H:14])([H:15])[H:16])[C:6][O:7][H:17])([H:8])([H:9])[H:10]"
C        2.14574678       0.16553539      -0.12822860
O        1.05224552       0.26784450       0.75234886
C       -0.22271087      -0.00077236       0.19925036
C       -0.57190696       0.90483845      -0.98020309
C       -1.20654790       0.17919484       1.35250514
C       -0.26972227      -1.44724665      -0.23691153
O       -1.32206841      -1.85472609      -0.81631222
H        2.12836171      -0.78148883      -0.68005847
H        3.04551503       0.19140629       0.48488818
H        2.18306462       0.99646388      -0.84133235
H        0.08129589       0.73036974      -1.83626932
H       -0.47652375       1.94748714      -0.67326543
H       -1.59560056       0.71907947      -1.30370210
H       -1.13397750       1.20345484       1.71918506
H       -2.22759859      -0.01537705       1.02516074
H       -0.95959581      -0.49933504       2.17013799
H       -0.64997694      -2.70672852      -0.20719321
17
Frame=10 idx=008394 GeodesicLength=0.33868486867954933 rxn_smarts="[C:1]([O:2][C:3]([C:4]([H:11])([H:12])[H:13])([C:5]([H:14])([H:15])[H:16])[C:6](=[O:7])[H:17])([H:8])([H:9])[H:10]>>[C:1]([O:2][C:3]([C:4]([H:11])([H:12])[H:13])([C:5]([H:14])([H:15])[H:16])[C:6][O:7][H:17])([H:8])([H:9])[H:10]"
C        2.14554716       0.16731262      -0.12921909
O        1.05173288       0.26330547       0.75171102
C       -0.22355127      -0.00201841       0.19687746
C       -0.57089497       0.90673221      -0.98052094
C       -1.20705824       0.17647666       1.35044294
C       -0.26729080      -1.44692664      -0.24430711
O       -1.31625770      -1.85567950      -0.82179084
H        2.12993751      -0.77745461      -0.68502456
H        3.04514325       0.19209048       0.48419843
H        2.18137790       1.00129956      -0.83875301
H        0.07976850       0.73049306      -1.83815563
H       -0.47006953       1.94848010      -0.67221154
H       -1.59591218       0.72603316      -1.30259270
H       -1.13262777       1.19948687       1.72023329
H       -2.22855783      -0.01508195       1.02271396
H       -0.96161542      -0.50508932       2.16602200
H       -0.65967150      -2.70945976      -0.17962368
17
Frame=11 idx=008394 GeodesicLength=0.37253385191308286 rxn_smarts="[C:1]([O:2][C:3]([C:4]([H:11])([H:12])[H:13])([C:5]([H:14])([H:15])[H:16])[C:6](=[O:7])[H:17])([H:8])([H:9])[H:10]>>[C:1]([O:2][C:3]([C:4]([H:11])([H:12])[H:13])([C:5]([H:14])([H:15])[H:16])[C:6][O:7][H:17])([H:8])([H:9])[H:10]"
C        2.14532157       0.16903226      -0.13018263
O        1.05120284       0.25875885       0.75108090
C       -0.22441543      -0.00330286       0.19455608
C       -0.56991025       0.90852417      -0.98084351
C       -1.20758614       0.17381987       1.34844274
C       -0.26488504      -1.44668369      -0.25151232
O       -1.31047927      -1.85674752      -0.82706039
H        2.13147659      -0.77347853      -0.68993507
H        3.04475091       0.19272162       0.48353024
H        2.17966658       1.00604376      -0.83617066
H        0.07819243       0.73046757      -1.84005350
H       -0.46362864       1.94936941      -0.67123850
H       -1.59623532       0.73287990      -1.30144607
H       -1.13127772       1.19559602       1.72127890
H       -2.22953846      -0.01472010       1.02036301
H       -0.96366413      -0.51073289       2.16200910
H       -0.66899051      -2.71154784      -0.15281832
17
Frame=12 idx=008394 GeodesicLength=0.4064006510404157 rxn_smarts="[C:1]([O:2][C:3]([C:4]([H:11])([H:12])[H:13])([C:5]([H:14])([H:15])[H:16])[C:6](=[O:7])[H:17])([H:8])([H:9])[H:10]>>[C:1]([O:2][C:3]([C:4]([H:11])([H:12])[H:13])([C:5]([H:14])([H:15])[H:16])[C:6][O:7][H:17])([H:8])([H:9])[H:10]"
C        2.14506825       0.17071186      -0.13112178
O        1.05066054       0.25419796       0.75044930
C       -0.22529667      -0.00462820       0.19227329
C       -0.56894448       0.91021497      -0.98116313
C       -1.20811948       0.17120719       1.34648017
C       -0.26250221      -1.44650648      -0.25855477
O       -1.30472454      -1.85791380      -0.83216096
H        2.13297239      -0.76952552      -0.69480856
H        3.04433534       0.19331605       0.48287805
H        2.17792712       1.01072181      -0.83356315
H        0.07656955       0.73030665      -1.84194873
H       -0.45718789       1.95014524      -0.67032783
H       -1.59655982       0.73962280      -1.30025865
H       -1.12990293       1.19175116       1.72231409
H       -2.23052618      -0.01430452       1.01807707
H       -0.96573937      -0.51629545       2.15805395
H       -0.67802960      -2.71302172      -0.12661838
17
Frame=13 idx=008394 GeodesicLength=0.44029852445518186 rxn_smarts="[C:1]([O:2][C:3]([C:4]([H:11])([H:12])[H:13])([C:5]([H:14])([H:15])[H:16])[C:6](=[O:7])[H:17])([H:8])([H:9])[H:10]>>[C:1]([O:2][C:3]([C:4]([H:11])([H:12])[H:13])([C:5]([H:14])([H:15])[H:16])[C:6][O:7][H:17])([H:8])([H:9])[H:10]"
C        2.14478997       0.17236427      -0.13204161
O        1.05010818       0.24961264       0.74981217
C       -0.22619201      -0.00599705       0.19002035
C       -0.56799112       0.91180876      -0.98148163
C       -1.20865744       0.16862767       1.34454508
C       -0.26013609      -1.44639303      -0.26545350
O       -1.29898503      -1.85917344      -0.83711534
H        2.13442351      -0.76556123      -0.69968234
H        3.04389951       0.19385916       0.48223604
H        2.17616360       1.01537185      -0.83090284
H        0.07490608       0.73001784      -1.84384254
H       -0.45073750       1.95080773      -0.66947492
H       -1.59688019       0.74627386      -1.29903133
H       -1.12849889       1.18793548       1.72333920
H       -2.23151920      -0.01383967       1.01584047
H       -0.96784636      -0.52179873       2.15413723
H       -0.68684703      -2.71391610      -0.10090446
17
Frame=14 idx=008394 GeodesicLength=0.47422868255455153 rxn_smarts="[C:1]([O:2][C:3]([C:4]([H:11])([H:12])[H:13])([C:5]([H:14])([H:15])[H:16])[C:6](=[O:7])[H:17])([H:8])([H:9])[H:10]>>[C:1]([O:2][C:3]([C:4]([H:11])([H:12])[H:13])([C:5]([H:14])([H:15])[H:16])[C:6][O:7][H:17])([H:8])([H:9])[H:10]"
C        2.14448701       0.17399781      -0.13294361
O        1.04954752       0.24499731       0.74917075
C       -0.22709964      -0.00741028       0.18779372
C       -0.56704604       0.91330771      -0.98180222
C       -1.20919898       0.16607846       1.34263332
C       -0.25778404      -1.44634508      -0.27221509
O       -1.29325524      -1.86052397      -0.84193931
H        2.13582275      -0.76156067      -0.70458583
H        3.04344518       0.19433551       0.48160204
H        2.17437776       1.02002384      -0.82816530
H        0.07320327       0.72960152      -1.84573915
H       -0.44426948       1.95135860      -0.66868120
H       -1.59719428       0.75284269      -1.29776518
H       -1.12706074       1.18414442       1.72435596
H       -2.23251641      -0.01332313       1.01364517
H       -0.96998800      -0.52725351       2.15025028
H       -0.69547064      -2.71427123      -0.07561434
17
Frame=15 idx=008394 GeodesicLength=0.5082025497023104 rxn_smarts="[C:1]([O:2][C:3]([C:4]([H:11])([H:12])[H:13])([C:5]([H:14])([H:15])[H:16])[C:6](=[O:7])[H:17])([H:8])([H:9])[H:10]>>[C:1]([O:2][C:3]([C:4]([H:11])([H:12])[H:13])([C:5]([H:14])([H:15])[H:16])[C:6][O:7][H:17])([H:8])([H:9])[H:10]"
C        2.14416094       0.17560321      -0.13382770
O        1.04897548       0.24035888       0.74852807
C       -0.22802312      -0.00886005       0.18559584
C       -0.56611354       0.91472656      -0.98212884
C       -1.20975016       0.16356734       1.34075605
C       -0.25544794      -1.44635894      -0.27884434
O       -1.28753880      -1.86195845      -0.84663712
H        2.13717802      -0.75754958      -0.70949994
H        3.04297313       0.19474743       0.48097929
H        2.17257126       1.02465662      -0.82537344
H        0.07146186       0.72907226      -1.84764616
H       -0.43779569       1.95181702      -0.66794898
H       -1.59750603       0.75934524      -1.29646632
H       -1.12560136       1.18039164       1.72537430
H       -2.23352468      -0.01274719       1.01150468
H       -0.97216445      -0.53265140       2.14641157
H       -0.70385492      -2.71416059      -0.05077695
17
Frame=16 idx=008394 GeodesicLength=0.5421567274981663 rxn_smarts="[C:1]([O:2][C:3]([C:4]([H:11])([H:12])[H:13])([C:5]([H:14])([H:15])[H:16])[C:6](=[O:7])[H:17])([H:8])([H:9])[H:10]>>[C:1]([O:2][C:3]([C:4]([H:11])([H:12])[H:13])([C:5]([H:14])([H:15])[H:16])[C:6][O:7][H:17])([H:8])([H:9])[H:10]"
C        2.14380078       0.17718058      -0.13468612
O        1.04839065       0.23571099       0.74787426
C       -0.22896499      -0.01033728       0.18342604
C       -0.56519410       0.91605578      -0.98244461
C       -1.21029837       0.16109941       1.33889497
C       -0.25314966      -1.44640451      -0.28534096
O       -1.28186914      -1.86344743      -0.85118505
H        2.13846884      -0.75353070      -0.71438493
H        3.04247179       0.19511489       0.48036747
H        2.17073740       1.02923902      -0.82252862
H        0.06967393       0.72842433      -1.84953044
H       -0.43131091       1.95216098      -0.66726581
H       -1.59781413       0.76576753      -1.29511563
H       -1.12409984       1.17667165       1.72636676
H       -2.23453207      -0.01210809       1.00940864
H       -0.97436024      -0.53796884       2.14259309
H       -0.71194994      -2.71362831      -0.02644904
