14
Frame=0 idx=006626 GeodesicLength=0.0 rxn_smarts="[O:1]=[C:2]([C@@:3]1([H:9])[C@@:4]2([H:10])[C:5]([H:11])([H:12])[C:6]([H:13])([H:14])[N:7]12)[H:8]>>[O:1]=[C:2]([C@@:3]1([H:9])[C-:4]2[C:5]([H:11])([H:12])[C:6]([H:13])([H:14])[N+:7]12[H:10])[H:8]"
O        0.91792366       1.16260948       1.69556130
C        1.27799114       1.21561004       0.55124794
C        0.48226037       0.89303673      -0.66617853
C        0.32326973      -0.52800129      -1.14581435
C       -0.04211808      -1.34966082       0.10851802
C       -1.20153744      -0.41968730       0.45228334
N       -0.94451278       0.60578468      -0.62542963
H        2.31348307       1.52420247       0.30100382
H        0.71093017       1.59521573      -1.46515644
H       -0.86249229      -0.11663460      -1.60604188
H        0.75206494      -1.39897358       0.85541003
H       -0.34261444      -2.36456505      -0.14126563
H       -1.20969669       0.04382028       1.43485329
H       -2.17495132      -0.86275680       0.25100874
14
Frame=1 idx=006626 GeodesicLength=0.053958835088889656 rxn_smarts="[O:1]=[C:2]([C@@:3]1([H:9])[C@@:4]2([H:10])[C:5]([H:11])([H:12])[C:6]([H:13])([H:14])[N:7]12)[H:8]>>[O:1]=[C:2]([C@@:3]1([H:9])[C-:4]2[C:5]([H:11])([H:12])[C:6]([H:13])([H:14])[N+:7]12[H:10])[H:8]"
O        0.92105240       1.15931992       1.69715275
C        1.27954164       1.21776703       0.55232748
C        0.48447147       0.89357340      -0.66460061
C        0.31851912      -0.52658941      -1.14225141
C       -0.04263097      -1.35083308       0.11041256
C       -1.20174255      -0.42010067       0.45437173
N       -0.94065063       0.59932235      -0.62570510
H        2.31386545       1.53158468       0.30224773
H        0.71187077       1.59433992      -1.46508873
H       -0.86719926      -0.11315433      -1.62720830
H        0.75212185      -1.40102130       0.85678374
H       -0.34432126      -2.36535629      -0.13962824
H       -1.20964260       0.04472410       1.43656863
H       -2.17525543      -0.86357631       0.25461778
14
Frame=2 idx=006626 GeodesicLength=0.10739760227641285 rxn_smarts="[O:1]=[C:2]([C@@:3]1([H:9])[C@@:4]2([H:10])[C:5]([H:11])([H:12])[C:6]([H:13])([H:14])[N:7]12)[H:8]>>[O:1]=[C:2]([C@@:3]1([H:9])[C-:4]2[C:5]([H:11])([H:12])[C:6]([H:13])([H:14])[N+:7]12[H:10])[H:8]"
O        0.92421164       1.15609069       1.69868714
C        1.28106308       1.21992867       0.55340468
C        0.48667184       0.89404845      -0.66303147
C        0.31358272      -0.52516030      -1.13874210
C       -0.04312076      -1.35203095       0.11239120
C       -1.20194325      -0.42052553       0.45655865
N       -0.93681762       0.59271445      -0.62611387
H        2.31414601       1.53893607       0.30348664
H        0.71277170       1.59339162      -1.46502415
H       -0.87162890      -0.10939252      -1.64825749
H        0.75220092      -1.40310916       0.85818234
H       -0.34602647      -2.36614438      -0.13803903
H       -1.20956277       0.04562597       1.43832250
H       -2.17554813      -0.86437308       0.25817496
14
Frame=3 idx=006626 GeodesicLength=0.16035885563233201 rxn_smarts="[O:1]=[C:2]([C@@:3]1([H:9])[C@@:4]2([H:10])[C:5]([H:11])([H:12])[C:6]([H:13])([H:14])[N:7]12)[H:8]>>[O:1]=[C:2]([C@@:3]1([H:9])[C-:4]2[C:5]([H:11])([H:12])[C:6]([H:13])([H:14])[N+:7]12[H:10])[H:8]"
O        0.92728580       1.15298655       1.70015775
C        1.28260851       1.22201305       0.55446989
C        0.48882562       0.89449688      -0.66146577
C        0.30854204      -0.52376842      -1.13531271
C       -0.04358421      -1.35326003       0.11437942
C       -1.20213254      -0.42096715       0.45878470
N       -0.93301929       0.58599808      -0.62663617
H        2.31442769       1.54620203       0.30472257
H        0.71364333       1.59243976      -1.46492848
H       -0.87590433      -0.10533181      -1.66914830
H        0.75231294      -1.40520840       0.85960038
H       -0.34770015      -2.36694670      -0.13641300
H       -1.20948698       0.04653240       1.44005918
H       -2.17581843      -0.86518624       0.26173054
14
Frame=4 idx=006626 GeodesicLength=0.21322868215939517 rxn_smarts="[O:1]=[C:2]([C@@:3]1([H:9])[C@@:4]2([H:10])[C:5]([H:11])([H:12])[C:6]([H:13])([H:14])[N:7]12)[H:8]>>[O:1]=[C:2]([C@@:3]1([H:9])[C-:4]2[C:5]([H:11])([H:12])[C:6]([H:13])([H:14])[N+:7]12[H:10])[H:8]"
O        0.93054416       1.14971478       1.70161608
C        1.28405484       1.22417692       0.55556002
C        0.49097268       0.89489008      -0.65988702
C        0.30333511      -0.52241203      -1.13193339
C       -0.04403240      -1.35455209       0.11644945
C       -1.20231134      -0.42139959       0.46110751
N       -0.92918016       0.57902606      -0.62733796
H        2.31453663       1.55367569       0.30597107
H        0.71451874       1.59137949      -1.46484079
H       -0.87995698      -0.10098461      -1.69006045
H        0.75243425      -1.40733474       0.86102073
H       -0.34944884      -2.36774425      -0.13478545
H       -1.20938755       0.04748693       1.44183517
H       -2.17607914      -0.86592263       0.26528505
14
Frame=5 idx=006626 GeodesicLength=0.26588754902433726 rxn_smarts="[O:1]=[C:2]([C@@:3]1([H:9])[C@@:4]2([H:10])[C:5]([H:11])([H:12])[C:6]([H:13])([H:14])[N:7]12)[H:8]>>[O:1]=[C:2]([C@@:3]1([H:9])[C-:4]2[C:5]([H:11])([H:12])[C:6]([H:13])([H:14])[N+:7]12[H:10])[H:8]"
O        0.93381042       1.14644488       1.70304029
C        1.28555516       1.22626444       0.55660381
C        0.49309037       0.89522480      -0.65829569
C        0.29801212      -0.52106452      -1.12862824
C       -0.04449040      -1.35585196       0.11854592
C       -1.20248417      -0.42182895       0.46346748
N       -0.92538949       0.57197335      -0.62811624
H        2.31452818       1.56126626       0.30726763
H        0.71540332       1.59021245      -1.46480185
H       -0.88380746      -0.09636683      -1.71090810
H        0.75257025      -1.40950041       0.86246691
H       -0.35119188      -2.36856992      -0.13315132
H       -1.20927229       0.04845785       1.44365736
H       -2.17633413      -0.86666143       0.26885204
14
Frame=6 idx=006626 GeodesicLength=0.31839627763237294 rxn_smarts="[O:1]=[C:2]([C@@:3]1([H:9])[C@@:4]2([H:10])[C:5]([H:11])([H:12])[C:6]([H:13])([H:14])[N:7]12)[H:8]>>[O:1]=[C:2]([C@@:3]1([H:9])[C-:4]2[C:5]([H:11])([H:12])[C:6]([H:13])([H:14])[N+:7]12[H:10])[H:8]"
O        0.93704427       1.14322052       1.70441444
C        1.28703333       1.22833864       0.55765220
C        0.49520984       0.89549953      -0.65671377
C        0.29253142      -0.51968989      -1.12537896
C       -0.04490240      -1.35717662       0.12066691
C       -1.20265890      -0.42225917       0.46590032
N       -0.92163919       0.56481900      -0.62898669
H        2.31448571       1.56877967       0.30850311
H        0.71621513       1.58907654      -1.46468157
H       -0.88735358      -0.09162001      -1.73171835
H        0.75272556      -1.41166683       0.86389612
H       -0.35294785      -2.36937678      -0.13148785
H       -1.20914948       0.04940851       1.44550517
H       -2.17659385      -0.86735311       0.27242893
14
Frame=7 idx=006626 GeodesicLength=0.37070311681326473 rxn_smarts="[O:1]=[C:2]([C@@:3]1([H:9])[C@@:4]2([H:10])[C:5]([H:11])([H:12])[C:6]([H:13])([H:14])[N:7]12)[H:8]>>[O:1]=[C:2]([C@@:3]1([H:9])[C-:4]2[C:5]([H:11])([H:12])[C:6]([H:13])([H:14])[N+:7]12[H:10])[H:8]"
O        0.94036753       1.13996002       1.70575769
C        1.28848417       1.23042703       0.55868753
C        0.49728323       0.89573968      -0.65511169
C        0.28693849      -0.51836327      -1.12217830
C       -0.04531983      -1.35854158       0.12286186
C       -1.20282355      -0.42269227       0.46839961
N       -0.91789354       0.55749498      -0.62998435
H        2.31432087       1.57635275       0.30973481
H        0.71701293       1.58783574      -1.46461574
H       -0.89070713      -0.08649668      -1.75244708
H        0.75287162      -1.41386416       0.86537853
H       -0.35468126      -2.37019813      -0.12983435
H       -1.20901684       0.05040335       1.44738859
H       -2.17683668      -0.86805745       0.27596290
14
Frame=8 idx=006626 GeodesicLength=0.42295449671283647 rxn_smarts="[O:1]=[C:2]([C@@:3]1([H:9])[C@@:4]2([H:10])[C:5]([H:11])([H:12])[C:6]([H:13])([H:14])[N:7]12)[H:8]>>[O:1]=[C:2]([C@@:3]1([H:9])[C-:4]2[C:5]([H:11])([H:12])[C:6]([H:13])([H:14])[N+:7]12[H:10])[H:8]"
O        0.94365140       1.13680259       1.70700718
C        1.28991680       1.23250822       0.55972618
C        0.49933013       0.89593609      -0.65350914
C        0.28120126      -0.51704284      -1.11904431
C       -0.04570133      -1.35993165       0.12510297
C       -1.20296788      -0.42315142       0.47099523
N       -0.91416793       0.55007426      -0.63103303
H        2.31411371       1.58383078       0.31097222
H        0.71776265       1.58653391      -1.46454679
H       -0.89385938      -0.08111512      -1.77311468
H        0.75306217      -1.41606689       0.86687341
H       -0.35640259      -2.37101552      -0.12816786
H       -1.20887777       0.05136106       1.44929951
H       -2.17706123      -0.86872348       0.27943912
14
Frame=9 idx=006626 GeodesicLength=0.4754815641521389 rxn_smarts="[O:1]=[C:2]([C@@:3]1([H:9])[C@@:4]2([H:10])[C:5]([H:11])([H:12])[C:6]([H:13])([H:14])[N:7]12)[H:8]>>[O:1]=[C:2]([C@@:3]1([H:9])[C-:4]2[C:5]([H:11])([H:12])[C:6]([H:13])([H:14])[N+:7]12[H:10])[H:8]"
O        0.94713725       1.13342099       1.70826504
C        1.29137603       1.23451824       0.56074480
C        0.50135359       0.89603564      -0.65192042
C        0.27540409      -0.51575795      -1.11594699
C       -0.04614000      -1.36133456       0.12732473
C       -1.20310418      -0.42356615       0.47359659
N       -0.91052224       0.54269627      -0.63207933
H        2.31361161       1.59174895       0.31226166
H        0.71856138       1.58515027      -1.46448165
H       -0.89664610      -0.07572722      -1.79395413
H        0.75323235      -1.41834349       0.86832821
H       -0.35828187      -2.37186673      -0.12647722
H       -1.20867168       0.05238577       1.45125665
H       -2.17731024      -0.86936002       0.28308205
14
Frame=10 idx=006626 GeodesicLength=0.5276260795181711 rxn_smarts="[O:1]=[C:2]([C@@:3]1([H:9])[C@@:4]2([H:10])[C:5]([H:11])([H:12])[C:6]([H:13])([H:14])[N:7]12)[H:8]>>[O:1]=[C:2]([C@@:3]1([H:9])[C-:4]2[C:5]([H:11])([H:12])[C:6]([H:13])([H:14])[N+:7]12[H:10])[H:8]"
O        0.95057467       1.13007756       1.70946666
C        1.29281031       1.23652279       0.56171378
C        0.50334361       0.89608903      -0.65034744
C        0.26945042      -0.51445757      -1.11292791
C       -0.04656421      -1.36274953       0.12957558
C       -1.20323947      -0.42399944       0.47628703
N       -0.90692498       0.53524395      -0.63323465
H        2.31302575       1.59960917       0.31356453
H        0.71933469       1.58367153      -1.46445763
H       -0.89910414      -0.07005659      -1.81464891
H        0.75341656      -1.42062877       0.86977738
H       -0.36011995      -2.37273231      -0.12477453
H       -1.20844191       0.05336304       1.45324923
H       -2.17756136      -0.86995285       0.28675689
14
Frame=11 idx=006626 GeodesicLength=0.5797345384929756 rxn_smarts="[O:1]=[C:2]([C@@:3]1([H:9])[C@@:4]2([H:10])[C:5]([H:11])([H:12])[C:6]([H:13])([H:14])[N:7]12)[H:8]>>[O:1]=[C:2]([C@@:3]1([H:9])[C-:4]2[C:5]([H:11])([H:12])[C:6]([H:13])([H:14])[N+:7]12[H:10])[H:8]"
O        0.95409233       1.12667339       1.71064073
C        1.29422406       1.23851054       0.56266675
C        0.50527287       0.89609338      -0.64877648
C        0.26338270      -0.51320161      -1.11000125
C       -0.04698031      -1.36421007       0.13183499
C       -1.20335559      -0.42442373       0.47900711
N       -0.90336967       0.52767391      -0.63445010
H        2.31234065       1.60754589       0.31483425
H        0.72006292       1.58221882      -1.46438517
H       -0.90125012      -0.06418030      -1.83533825
H        0.75362347      -1.42292907       0.87123523
H       -0.36202422      -2.37361314      -0.12296018
H       -1.20820348       0.05436112       1.45525506
H       -2.17781560      -0.87051912       0.29043731
14
Frame=12 idx=006626 GeodesicLength=0.6319382629909109 rxn_smarts="[O:1]=[C:2]([C@@:3]1([H:9])[C@@:4]2([H:10])[C:5]([H:11])([H:12])[C:6]([H:13])([H:14])[N:7]12)[H:8]>>[O:1]=[C:2]([C@@:3]1([H:9])[C-:4]2[C:5]([H:11])([H:12])[C:6]([H:13])([H:14])[N+:7]12[H:10])[H:8]"
O        0.95758773       1.12337647       1.71172937
C        1.29562720       1.24046221       0.56362169
C        0.50719327       0.89605303      -0.64720434
C        0.25721975      -0.51190711      -1.10708002
C       -0.04739164      -1.36567448       0.13415075
C       -1.20347571      -0.42484850       0.48180179
N       -0.89985804       0.52005507      -0.63569806
H        2.31158817       1.61542588       0.31609769
H        0.72076929       1.58065724      -1.46432696
H       -0.90318127      -0.05812829      -1.85597222
H        0.75382870      -1.42525840       0.87268690
H       -0.36390636      -2.37446593      -0.12124446
H       -1.20796252       0.05536651       1.45729649
H       -2.17803856      -0.87111371       0.29414140
14
Frame=13 idx=006626 GeodesicLength=0.6841241827637307 rxn_smarts="[O:1]=[C:2]([C@@:3]1([H:9])[C@@:4]2([H:10])[C:5]([H:11])([H:12])[C:6]([H:13])([H:14])[N:7]12)[H:8]>>[O:1]=[C:2]([C@@:3]1([H:9])[C-:4]2[C:5]([H:11])([H:12])[C:6]([H:13])([H:14])[N+:7]12[H:10])[H:8]"
O        0.96121673       1.11991778       1.71280530
C        1.29700885       1.24239943       0.56453971
C        0.50907950       0.89590015      -0.64563568
C        0.25096949      -0.51070494      -1.10423372
C       -0.04782287      -1.36719402       0.13651986
C       -1.20358489      -0.42526620       0.48464955
N       -0.89633078       0.51225338      -0.63708888
H        2.31061024       1.62357036       0.31737070
H        0.72145088       1.57902219      -1.46432325
H       -0.90482535      -0.05165114      -1.87658037
H        0.75404693      -1.42762833       0.87417231
H       -0.36585705      -2.37537402      -0.11944054
H       -1.20768730       0.05641016       1.45936493
H       -2.17827437      -0.87165480       0.29788007
14
Frame=14 idx=006626 GeodesicLength=0.7361809599273405 rxn_smarts="[O:1]=[C:2]([C@@:3]1([H:9])[C@@:4]2([H:10])[C:5]([H:11])([H:12])[C:6]([H:13])([H:14])[N:7]12)[H:8]>>[O:1]=[C:2]([C@@:3]1([H:9])[C-:4]2[C:5]([H:11])([H:12])[C:6]([H:13])([H:14])[N+:7]12[H:10])[H:8]"
O        0.96484687       1.11651907       1.71379145
C        1.29833357       1.24434171       0.56543373
C        0.51091516       0.89571929      -0.64407722
C        0.24459394      -0.50950228      -1.10146528
C       -0.04821272      -1.36872885       0.13892272
C       -1.20368734      -0.42567749       0.48753984
N       -0.89288197       0.50434915      -0.63853410
H        2.30957957       1.63157404       0.31862581
H        0.72205324       1.57737142      -1.46430370
H       -0.90609705      -0.04492163      -1.89709104
H        0.75425684      -1.43000416       0.87564856
H       -0.36779133      -2.37629266      -0.11760264
H       -1.20740567       0.05745920       1.46145017
H       -2.17850309      -0.87220681       0.30166170
14
Frame=15 idx=006626 GeodesicLength=0.7885424084470283 rxn_smarts="[O:1]=[C:2]([C@@:3]1([H:9])[C@@:4]2([H:10])[C:5]([H:11])([H:12])[C:6]([H:13])([H:14])[N:7]12)[H:8]>>[O:1]=[C:2]([C@@:3]1([H:9])[C-:4]2[C:5]([H:11])([H:12])[C:6]([H:13])([H:14])[N+:7]12[H:10])[H:8]"
O        0.96850801       1.11308812       1.71473913
C        1.29965127       1.24625057       0.56632250
C        0.51271310       0.89547915      -0.64255109
C        0.23807523      -0.50833295      -1.09875251
C       -0.04862129      -1.37028991       0.14135149
C       -1.20378068      -0.42609956       0.49050745
N       -0.88944902       0.49636333      -0.64006861
H        2.30842705       1.63968576       0.31988651
H        0.72267175       1.57563324      -1.46425923
H       -0.90712333      -0.03793538      -1.91765442
H        0.75450224      -1.43239085       0.87711497
H       -0.36974631      -2.37721846      -0.11571229
H       -1.20708986       0.05852487       1.46358213
H       -2.17873816      -0.87275793       0.30549398
14
Frame=16 idx=006626 GeodesicLength=0.8409164810661457 rxn_smarts="[O:1]=[C:2]([C@@:3]1([H:9])[C@@:4]2([H:10])[C:5]([H:11])([H:12])[C:6]([H:13])([H:14])[N:7]12)[H:8]>>[O:1]=[C:2]([C@@:3]1([H:9])[C-:4]2[C:5]([H:11])([H:12])[C:6]([H:13])([H:14])[N+:7]12[H:10])[H:8]"
O        0.97216298       1.10973893       1.71559389
C        1.30095655       1.24813651       0.56717055
C        0.51445755       0.89520092      -0.64102953
C        0.23152205      -0.50720419      -1.09606945
C       -0.04899773      -1.37185577       0.14382732
C       -1.20385788      -0.42652574       0.49349490
N       -0.88608543       0.48830032      -0.64162437
H        2.30721607       1.64770074       0.32109256
H        0.72321494       1.57389667      -1.46419200
H       -0.90788827      -0.03068503      -1.93812724
H        0.75473351      -1.43479629       0.87863604
H       -0.37169953      -2.37815948      -0.11381409
H       -1.20677787       0.05954109       1.46571842
H       -2.17895693      -0.87328869       0.30932301
