14
Frame=0 idx=003351 GeodesicLength=0.0 rxn_smarts="[O:1]([C:2]([C@@:3]1([H:10])[C:4]([H:11])([H:12])[C@:5]1([O:6][H:14])[H:13])([H:8])[H:9])[H:7]>>[H:8][H:14].[O:1](/[C:2](=[C:3](/[C:4]([C:5](=[O:6])[H:13])([H:11])[H:12])[H:10])[H:9])[H:7]"
O        2.20607677      -0.87859656      -0.59078474
C        1.04319393      -0.17987318      -0.68188516
C        0.46438247       0.41297856       0.43656228
C       -0.73891011       1.30131330       0.38986729
C       -1.35964705      -0.02051971       0.60607310
O       -1.83810096      -0.72805472      -0.33210005
H        2.31410156      -1.20710223       0.30541368
H        0.04965985      -1.30530561      -1.16743146
H        0.94253663       0.27541471      -1.66002721
H        0.92599737       0.23264526       1.39973364
H       -0.95881899       1.73964341      -0.57978297
H       -0.80546569       2.01537565       1.20444820
H       -1.42687223      -0.38256808       1.63705602
H       -0.81813354      -1.27535086      -0.96714264
14
Frame=1 idx=003351 GeodesicLength=0.07153858911028507 rxn_smarts="[O:1]([C:2]([C@@:3]1([H:10])[C:4]([H:11])([H:12])[C@:5]1([O:6][H:14])[H:13])([H:8])[H:9])[H:7]>>[H:8][H:14].[O:1](/[C:2](=[C:3](/[C:4]([C:5](=[O:6])[H:13])([H:11])[H:12])[H:10])[H:9])[H:7]"
O        2.20939143      -0.88328335      -0.57885744
C        1.04915593      -0.17817783      -0.68071495
C        0.46698260       0.41552235       0.43775527
C       -0.74263815       1.29542363       0.38478567
C       -1.35317099      -0.02910640       0.62270043
O       -1.84306548      -0.74830683      -0.30276853
H        2.29178263      -1.23799919       0.31007944
H        0.04378427      -1.28630171      -1.20938777
H        0.97889607       0.30011209      -1.65085495
H        0.93880582       0.26033198       1.40044665
H       -0.96979943       1.71716362      -0.59049564
H       -0.81422402       2.01902870       1.19055854
H       -1.41893430      -0.37562129       1.65925365
H       -0.83696637      -1.26878576      -0.99250036
14
Frame=2 idx=003351 GeodesicLength=0.14285547282215905 rxn_smarts="[O:1]([C:2]([C@@:3]1([H:10])[C:4]([H:11])([H:12])[C@:5]1([O:6][H:14])[H:13])([H:8])[H:9])[H:7]>>[H:8][H:14].[O:1](/[C:2](=[C:3](/[C:4]([C:5](=[O:6])[H:13])([H:11])[H:12])[H:10])[H:9])[H:7]"
O        2.21171677      -0.88927571      -0.56652981
C        1.05516964      -0.17637399      -0.67963228
C        0.46988124       0.41850588       0.43890632
C       -0.74647720       1.28924493       0.37957179
C       -1.34618683      -0.03782659       0.63927302
O       -1.84593386      -0.76970792      -0.27315430
H        2.26826129      -1.26872459       0.31421395
H        0.03746764      -1.26498398      -1.25176300
H        1.01591280       0.32440146      -1.64050475
H        0.95158498       0.28858459       1.40054808
H       -0.98082486       1.69402392      -0.60114749
H       -0.82359679       2.02227890       1.17635237
H       -1.41061104      -0.36840844       1.68128166
H       -0.85636378      -1.26173846      -1.01741557
14
Frame=3 idx=003351 GeodesicLength=0.21397407366066754 rxn_smarts="[O:1]([C:2]([C@@:3]1([H:10])[C:4]([H:11])([H:12])[C@:5]1([O:6][H:14])[H:13])([H:8])[H:9])[H:7]>>[H:8][H:14].[O:1](/[C:2](=[C:3](/[C:4]([C:5](=[O:6])[H:13])([H:11])[H:12])[H:10])[H:9])[H:7]"
O        2.21309874      -0.89637096      -0.55394082
C        1.06120385      -0.17445563      -0.67865342
C        0.47306415       0.42191564       0.44002111
C       -0.75036708       1.28283144       0.37427190
C       -1.33875449      -0.04658783       0.65567156
O       -1.84663331      -0.79206474      -0.24352713
H        2.24366903      -1.29908093       0.31775773
H        0.03075851      -1.24153066      -1.29416287
H        1.05331044       0.34805750      -1.62905760
H        0.96424162       0.31720472       1.40005589
H       -0.99173873       1.67039104      -0.61165402
H       -0.83351736       2.02509085       1.16194653
H       -1.40204756      -0.36096943       1.70294857
H       -0.87628780      -1.25443102      -1.04167743
14
Frame=4 idx=003351 GeodesicLength=0.28488221387542423 rxn_smarts="[O:1]([C:2]([C@@:3]1([H:10])[C:4]([H:11])([H:12])[C@:5]1([O:6][H:14])[H:13])([H:8])[H:9])[H:7]>>[H:8][H:14].[O:1](/[C:2](=[C:3](/[C:4]([C:5](=[O:6])[H:13])([H:11])[H:12])[H:10])[H:9])[H:7]"
O        2.21362833      -0.90432166      -0.54124922
C        1.06722168      -0.17244100      -0.67778951
C        0.47650590       0.42569932       0.44111290
C       -0.75422943       1.27624817       0.36894387
C       -1.33096484      -0.05528370       0.67176376
O       -1.84517817      -0.81510378      -0.21420250
H        2.21827659      -1.32877967       0.32066389
H        0.02371042      -1.21624678      -1.33614671
H        1.09075374       0.37083789      -1.61663597
H        0.97666759       0.34594452       1.39901520
H       -1.00235338       1.64647721      -0.62192398
H       -0.84387764       2.02743103       1.14748723
H       -1.39343754      -0.35336259       1.72404867
H       -0.89672326      -1.24709898      -1.06508763
14
Frame=5 idx=003351 GeodesicLength=0.3555345503230338 rxn_smarts="[O:1]([C:2]([C@@:3]1([H:10])[C:4]([H:11])([H:12])[C@:5]1([O:6][H:14])[H:13])([H:8])[H:9])[H:7]>>[H:8][H:14].[O:1](/[C:2](=[C:3](/[C:4]([C:5](=[O:6])[H:13])([H:11])[H:12])[H:10])[H:9])[H:7]"
O        2.21344570      -0.91282187      -0.52857965
C        1.07319305      -0.17034048      -0.67704825
C        0.48017307       0.42979541       0.44219867
C       -0.75798861       1.26956577       0.36364438
C       -1.32292317      -0.06381288       0.68742504
O       -1.84163895      -0.83853163      -0.18547022
H        2.19236831      -1.35759945       0.32285669
H        0.01640161      -1.18950862      -1.37727912
H        1.12790674       0.39251974      -1.60338218
H        0.98876257       0.37456419       1.39748460
H       -1.01249252       1.62250354      -0.63187636
H       -0.85455785       2.02928711       1.13311730
H       -1.38498188      -0.34565883       1.74439206
H       -0.91766808      -1.23996199      -1.08748295
14
Frame=6 idx=003351 GeodesicLength=0.4260003895425106 rxn_smarts="[O:1]([C:2]([C@@:3]1([H:10])[C:4]([H:11])([H:12])[C@:5]1([O:6][H:14])[H:13])([H:8])[H:9])[H:7]>>[H:8][H:14].[O:1](/[C:2](=[C:3](/[C:4]([C:5](=[O:6])[H:13])([H:11])[H:12])[H:10])[H:9])[H:7]"
O        2.21270963      -0.92161226      -0.51601042
C        1.07909703      -0.16819540      -0.67642393
C        0.48402902       0.43412137       0.44329234
C       -0.76158182       1.26283298       0.35841851
C       -1.31471900      -0.07210858       0.70258946
O       -1.83622925      -0.86207146      -0.15754239
H        2.16625505      -1.38533541       0.32432451
H        0.00891515      -1.16171630      -1.41726325
H        1.16451862       0.41296958      -1.58944459
H        1.00046719       0.40289035       1.39553454
H       -1.02203311       1.59863194      -0.64145539
H       -0.86543514       2.03065466       1.11894026
H       -1.37682944      -0.33791765       1.76387510
H       -0.93916395      -1.23314382      -1.10883475
14
Frame=7 idx=003351 GeodesicLength=0.4962998135672922 rxn_smarts="[O:1]([C:2]([C@@:3]1([H:10])[C:4]([H:11])([H:12])[C@:5]1([O:6][H:14])[H:13])([H:8])[H:9])[H:7]>>[H:8][H:14].[O:1](/[C:2](=[C:3](/[C:4]([C:5](=[O:6])[H:13])([H:11])[H:12])[H:10])[H:9])[H:7]"
O        2.21159400      -0.93044232      -0.50357968
C        1.08492825      -0.16602622      -0.67590806
C        0.48803874       0.43860116       0.44441044
C       -0.76495956       1.25609451       0.35330074
C       -1.30643609      -0.08011965       0.71720780
O       -1.82917999      -0.88547814      -0.13058509
H        2.14019816      -1.41187332       0.32503270
H        0.00133935      -1.13324946      -1.45588592
H        1.20038109       0.43209985      -1.57495815
H        1.01173706       0.43079095       1.39323565
H       -1.03088189       1.57500279      -0.65062621
H       -0.87639962       2.03155087       1.10504088
H       -1.36910691      -0.33019757       1.78243561
H       -0.96125261      -1.22675345      -1.12912071
14
Frame=8 idx=003351 GeodesicLength=0.5664484103325739 rxn_smarts="[O:1]([C:2]([C@@:3]1([H:10])[C:4]([H:11])([H:12])[C@:5]1([O:6][H:14])[H:13])([H:8])[H:9])[H:7]>>[H:8][H:14].[O:1](/[C:2](=[C:3](/[C:4]([C:5](=[O:6])[H:13])([H:11])[H:12])[H:10])[H:9])[H:7]"
O        2.21024984      -0.93912729      -0.49130904
C        1.09068562      -0.16386000      -0.67549200
C        0.49217147       0.44316123       0.44556465
C       -0.76808671       1.24938049       0.34831404
C       -1.29814028      -0.08781889       0.73126223
O       -1.82073306      -0.90855505      -0.10470820
H        2.11444289      -1.43712969       0.32499608
H       -0.00625564      -1.10441987      -1.49305114
H        1.23537039       0.44988818      -1.56004083
H        1.02254863       0.45817711       1.39064908
H       -1.03898239       1.55171642      -0.65937550
H       -0.88735812       2.03199159       1.09147433
H       -1.36190641      -0.32254562       1.80005504
H       -0.98400623      -1.22085861      -1.14833872
14
Frame=9 idx=003351 GeodesicLength=0.6367965975064299 rxn_smarts="[O:1]([C:2]([C@@:3]1([H:10])[C:4]([H:11])([H:12])[C@:5]1([O:6][H:14])[H:13])([H:8])[H:9])[H:7]>>[H:8][H:14].[O:1](/[C:2](=[C:3](/[C:4]([C:5](=[O:6])[H:13])([H:11])[H:12])[H:10])[H:9])[H:7]"
O        2.20877993      -0.94761892      -0.47920648
C        1.09638441      -0.16174277      -0.67517020
C        0.49640362       0.44771725       0.44674592
C       -0.77096857       1.24264720       0.34343830
C       -1.28983285      -0.09527067       0.74482063
O       -1.81124177      -0.93122714      -0.07975596
H        2.08915572      -1.46106762       0.32437275
H       -0.01375488      -1.07547441      -1.52886344
H        1.26957990       0.46647070      -1.54473078
H        1.03294253       0.48509054       1.38780989
H       -1.04636207       1.52871125      -0.66775574
H       -0.89826525       2.03198930       1.07818817
H       -1.35520603      -0.31497499       1.81688107
H       -1.00761470      -1.21524972      -1.16677411
14
Frame=10 idx=003351 GeodesicLength=0.7070905256279686 rxn_smarts="[O:1]([C:2]([C@@:3]1([H:10])[C:4]([H:11])([H:12])[C@:5]1([O:6][H:14])[H:13])([H:8])[H:9])[H:7]>>[H:8][H:14].[O:1](/[C:2](=[C:3](/[C:4]([C:5](=[O:6])[H:13])([H:11])[H:12])[H:10])[H:9])[H:7]"
O        2.20727574      -0.95578167      -0.46720888
C        1.10205145      -0.15963914      -0.67492023
C        0.50072292       0.45227833       0.44797167
C       -0.77358713       1.23594945       0.33869040
C       -1.28156352      -0.10243055       0.75785750
O       -1.80072227      -0.95340254      -0.05586055
H        2.06437227      -1.48381107       0.32306820
H       -0.02113077      -1.04648905      -1.56333004
H        1.30291094       0.48183189      -1.52913385
H        1.04289875       0.51150019       1.38475765
H       -1.05301098       1.50608649      -0.67574986
H       -0.90907950       2.03157722       1.06523319
H       -1.34906304      -0.30752548       1.83283877
H       -1.03207486      -1.21014408      -1.18421397
14
Frame=11 idx=003351 GeodesicLength=0.7773099947573863 rxn_smarts="[O:1]([C:2]([C@@:3]1([H:10])[C:4]([H:11])([H:12])[C@:5]1([O:6][H:14])[H:13])([H:8])[H:9])[H:7]>>[H:8][H:14].[O:1](/[C:2](=[C:3](/[C:4]([C:5](=[O:6])[H:13])([H:11])[H:12])[H:10])[H:9])[H:7]"
O        2.20580556      -0.96356415      -0.45529307
C        1.10770942      -0.15755136      -0.67473014
C        0.50511798       0.45681484       0.44924495
C       -0.77593556       1.22929209       0.33406262
C       -1.27334625      -0.10931105       0.77039436
O       -1.78933285      -0.97502791      -0.03298638
H        2.04017605      -1.50541635       0.32111655
H       -0.02833408      -1.01754024      -1.59655712
H        1.33537639       0.49604983      -1.51329123
H        1.05242145       0.53741259       1.38151808
H       -1.05893893       1.48385387      -0.68338545
H       -0.91976730       2.03078461       1.05259572
H       -1.34349677      -0.30022238       1.84796313
H       -1.05745512      -1.20557438      -1.20065202
14
Frame=12 idx=003351 GeodesicLength=0.8474702888173696 rxn_smarts="[O:1]([C:2]([C@@:3]1([H:10])[C:4]([H:11])([H:12])[C@:5]1([O:6][H:14])[H:13])([H:8])[H:9])[H:7]>>[H:8][H:14].[O:1](/[C:2](=[C:3](/[C:4]([C:5](=[O:6])[H:13])([H:11])[H:12])[H:10])[H:9])[H:7]"
O        2.20440149      -0.97097343      -0.44342230
C        1.11338591      -0.15547968      -0.67458734
C        0.50958366       0.46131591       0.45056135
C       -0.77802426       1.22266259       0.32953581
C       -1.26517402      -0.11594646       0.78247213
O       -1.77719022      -0.99610722      -0.01105435
H        2.01657591      -1.52596461       0.31857687
H       -0.03532222      -0.98863281      -1.62869823
H        1.36706082       0.50922858      -1.49722636
H        1.06153726       0.56288300       1.37810650
H       -1.06418883       1.46197855      -0.69070168
H       -0.93032202       2.02963074       1.04024009
H       -1.33847917      -0.29307777       1.86231915
H       -1.08384432      -1.20151742      -1.21612163
14
Frame=13 idx=003351 GeodesicLength=0.9176086354988815 rxn_smarts="[O:1]([C:2]([C@@:3]1([H:10])[C:4]([H:11])([H:12])[C@:5]1([O:6][H:14])[H:13])([H:8])[H:9])[H:7]>>[H:8][H:14].[O:1](/[C:2](=[C:3](/[C:4]([C:5](=[O:6])[H:13])([H:11])[H:12])[H:10])[H:9])[H:7]"
O        2.20308160      -0.97802632      -0.43154216
C        1.11911100      -0.15341525      -0.67447684
C        0.51411803       0.46578176       0.45191761
C       -0.77986806       1.21604830       0.32508968
C       -1.25703256      -0.12236564       0.79413034
O       -1.76437809      -1.01666845       0.01002037
H        1.99354971      -1.54555455       0.31547844
H       -0.04203729      -0.95973423      -1.65990798
H        1.39805472       0.52146074      -1.48094510
H        1.07027435       0.58797635       1.37453063
H       -1.06880672       1.44041548      -0.69773714
H       -0.94075040       2.02813369       1.02812249
H       -1.33396943      -0.28609986       1.87596627
H       -1.11134687      -1.19795201      -1.23064660
14
Frame=14 idx=003351 GeodesicLength=0.9877112036411981 rxn_smarts="[O:1]([C:2]([C@@:3]1([H:10])[C:4]([H:11])([H:12])[C@:5]1([O:6][H:14])[H:13])([H:8])[H:9])[H:7]>>[H:8][H:14].[O:1](/[C:2](=[C:3](/[C:4]([C:5](=[O:6])[H:13])([H:11])[H:12])[H:10])[H:9])[H:7]"
O        2.20185119      -0.98475558      -0.41962338
C        1.12491182      -0.15135605      -0.67438821
C        0.51872183       0.47021026       0.45331035
C       -0.78147707       1.20943370       0.32070341
C       -1.24890692      -0.12859950       0.80540167
O       -1.75096359      -1.03673858       0.03030454
H        1.97109559      -1.56424477       0.31187076
H       -0.04843829      -0.93079548      -1.69033577
H        1.42844274       0.53282753      -1.46444386
H        1.07865132       0.61274168       1.37079390
H       -1.07282671       1.41912301      -0.70452873
H       -0.95105785       2.02630434       1.01620340
H       -1.32993909      -0.27929321       1.88896086
H       -1.14006496      -1.19485735      -1.24422894
14
Frame=15 idx=003351 GeodesicLength=1.0577865250848282 rxn_smarts="[O:1]([C:2]([C@@:3]1([H:10])[C:4]([H:11])([H:12])[C@:5]1([O:6][H:14])[H:13])([H:8])[H:9])[H:7]>>[H:8][H:14].[O:1](/[C:2](=[C:3](/[C:4]([C:5](=[O:6])[H:13])([H:11])[H:12])[H:10])[H:9])[H:7]"
O        2.20070291      -0.99119977      -0.40762508
C        1.13081940      -0.14928790      -0.67431092
C        0.52339905       0.47461211       0.45473427
C       -0.78286519       1.20280210       0.31635550
C       -1.24077309      -0.13467821       0.81631792
O       -1.73697678      -1.05636624       0.04986623
H        1.94917627      -1.58210570       0.30779340
H       -0.05446884      -0.90174376      -1.72012608
H        1.45831773       0.54339371      -1.44771215
H        1.08668960       0.63724091       1.36689450
H       -1.07628682       1.39805201      -0.71111280
H       -0.96126200       2.02415017       1.00443813
H       -1.32634469      -0.27266846       1.90135043
H       -1.17012756      -1.19220098      -1.25686336
14
Frame=16 idx=003351 GeodesicLength=1.1278172757640865 rxn_smarts="[O:1]([C:2]([C@@:3]1([H:10])[C:4]([H:11])([H:12])[C@:5]1([O:6][H:14])[H:13])([H:8])[H:9])[H:7]>>[H:8][H:14].[O:1](/[C:2](=[C:3](/[C:4]([C:5](=[O:6])[H:13])([H:11])[H:12])[H:10])[H:9])[H:7]"
O        2.19962402      -0.99739787      -0.39551630
C        1.13686245      -0.14720087      -0.67423478
C        0.52815406       0.47899680       0.45618467
C       -0.78404314       1.19613727       0.31202458
C       -1.23261030      -0.14062864       0.82690227
O       -1.72243614      -1.07559626       0.06875851
H        1.92777259      -1.59918909       0.30328407
H       -0.06007477      -0.87249548      -1.74941101
H        1.48776602       0.55321430      -1.43073456
H        1.09440396       0.66152289       1.36282904
H       -1.07921623       1.37715791      -0.71752369
H       -0.97137803       2.02167382       0.99278652
H       -1.32315405      -0.26623249       1.91317139
H       -1.20167044      -1.18996226      -1.26852073
