14
Frame=0 idx=005805 GeodesicLength=0.0 rxn_smarts="[C:1]([C@:2]12[C:3]([H:10])([H:11])[C:4]([H:12])([H:13])[C@@:5]1([H:14])[O:6]2)([H:7])([H:8])[H:9]>>[C:1]([O:6][C@@:5]1([H:14])[C:2][C:3]([H:10])([H:11])[C:4]1([H:12])[H:13])([H:7])([H:8])[H:9]"
C       -2.06712239       0.36857104      -0.11628825
C       -0.18249974       0.30032869       0.68851262
C        0.86021328      -0.81258030       0.89919519
C        1.67396212      -0.25942399      -0.29334096
C        0.52008723       0.69814038      -0.56642270
O       -0.57053174      -0.10937009      -0.92056614
H       -2.12414452       1.44563973      -0.02445412
H       -2.43250418      -0.12640149       0.77462245
H       -2.59264305       0.00564336      -1.00034934
H        1.35683129      -0.70040233       1.86394976
H        0.47408140      -1.82770475       0.81787429
H        2.55922844       0.27767999       0.04565476
H        1.94463279      -0.92725756      -1.11164115
H        0.58040902       1.66713727      -1.05674636
14
Frame=1 idx=005805 GeodesicLength=0.035144949351393666 rxn_smarts="[C:1]([C@:2]12[C:3]([H:10])([H:11])[C:4]([H:12])([H:13])[C@@:5]1([H:14])[O:6]2)([H:7])([H:8])[H:9]>>[C:1]([O:6][C@@:5]1([H:14])[C:2][C:3]([H:10])([H:11])[C:4]1([H:12])[H:13])([H:7])([H:8])[H:9]"
C       -2.06377860       0.37285191      -0.11516994
C       -0.18672081       0.29139978       0.68021231
C        0.86515347      -0.80883102       0.90383133
C        1.67675475      -0.26033017      -0.29306549
C        0.51725968       0.68769770      -0.57398546
O       -0.57126355      -0.12969044      -0.91972613
H       -2.12251863       1.44569525       0.02123655
H       -2.44554120      -0.15753439       0.74866386
H       -2.59364191       0.06443183      -1.01748203
H        1.35746121      -0.68049955       1.86892124
H        0.48888969      -1.82851143       0.83260042
H        2.55993003       0.28367869       0.04072584
H        1.94985086      -0.93408371      -1.10583688
H        0.56816502       1.65372557      -1.07092562
14
Frame=2 idx=005805 GeodesicLength=0.07007229474928786 rxn_smarts="[C:1]([C@:2]12[C:3]([H:10])([H:11])[C:4]([H:12])([H:13])[C@@:5]1([H:14])[O:6]2)([H:7])([H:8])[H:9]>>[C:1]([O:6][C@@:5]1([H:14])[C:2][C:3]([H:10])([H:11])[C:4]1([H:12])[H:13])([H:7])([H:8])[H:9]"
C       -2.06009805       0.37707594      -0.11405190
C       -0.19090410       0.28236392       0.67194422
C        0.86987017      -0.80504507       0.90827825
C        1.67909609      -0.26117162      -0.29285727
C        0.51416050       0.67727521      -0.58145259
O       -0.57202856      -0.14979478      -0.91864218
H       -2.12109464       1.44379439       0.06654769
H       -2.45868329      -0.18677151       0.72105633
H       -2.59177712       0.12291870      -1.03221709
H        1.35774057      -0.66083586       1.87336738
H        0.50355164      -1.82897493       0.84721917
H        2.56003501       0.28953357       0.03559227
H        1.95454523      -0.94064436      -1.09997176
H        0.55558656       1.64027640      -1.08481255
14
Frame=3 idx=005805 GeodesicLength=0.104796405206081 rxn_smarts="[C:1]([C@:2]12[C:3]([H:10])([H:11])[C:4]([H:12])([H:13])[C@@:5]1([H:14])[O:6]2)([H:7])([H:8])[H:9]>>[C:1]([O:6][C@@:5]1([H:14])[C:2][C:3]([H:10])([H:11])[C:4]1([H:12])[H:13])([H:7])([H:8])[H:9]"
C       -2.05649287       0.38124586      -0.11285911
C       -0.19508108       0.27334088       0.66383804
C        0.87441391      -0.80115719       0.91259095
C        1.68136838      -0.26198272      -0.29280077
C        0.51104609       0.66687261      -0.58885260
O       -0.57293267      -0.16976131      -0.91748123
H       -2.12013834       1.44001565       0.11167567
H       -2.47245646      -0.21425760       0.69184099
H       -2.58783242       0.18102496      -1.04468747
H        1.35779770      -0.64119168       1.87751101
H        0.51788851      -1.82912251       0.86168188
H        2.56018307       0.29530241       0.03028301
H        1.95912117      -0.94713614      -1.09432101
H        0.54311500       1.62680677      -1.09841935
14
Frame=4 idx=005805 GeodesicLength=0.13944260526840713 rxn_smarts="[C:1]([C@:2]12[C:3]([H:10])([H:11])[C:4]([H:12])([H:13])[C@@:5]1([H:14])[O:6]2)([H:7])([H:8])[H:9]>>[C:1]([O:6][C@@:5]1([H:14])[C:2][C:3]([H:10])([H:11])[C:4]1([H:12])[H:13])([H:7])([H:8])[H:9]"
C       -2.05283980       0.38532753      -0.11158905
C       -0.19924607       0.26430376       0.65585661
C        0.87879602      -0.79717633       0.91678915
C        1.68346461      -0.26276496      -0.29287686
C        0.50783746       0.65649052      -0.59619855
O       -0.57393459      -0.18957313      -0.91619714
H       -2.11958245       1.43431295       0.15658809
H       -2.48670361      -0.23998661       0.66105091
H       -2.58167619       0.23885148      -1.05498708
H        1.35761731      -0.62157470       1.88132602
H        0.53201096      -1.82896092       0.87608195
H        2.56017816       0.30097987       0.02475297
H        1.96347124      -0.95354809      -1.08879249
H        0.53060695       1.61331862      -1.11180453
14
Frame=5 idx=005805 GeodesicLength=0.1740784356294566 rxn_smarts="[C:1]([C@:2]12[C:3]([H:10])([H:11])[C:4]([H:12])([H:13])[C@@:5]1([H:14])[O:6]2)([H:7])([H:8])[H:9]>>[C:1]([O:6][C@@:5]1([H:14])[C:2][C:3]([H:10])([H:11])[C:4]1([H:12])[H:13])([H:7])([H:8])[H:9]"
C       -2.04917327       0.38928391      -0.11021327
C       -0.20339547       0.25527458       0.64801488
C        0.88301789      -0.79307407       0.92089954
C        1.68541721      -0.26352300      -0.29310279
C        0.50457648       0.64613219      -0.60350515
O       -0.57504471      -0.20923854      -0.91480980
H       -2.11944596       1.42664621       0.20131349
H       -2.50146486      -0.26401675       0.62869361
H       -2.57342807       0.29643018      -1.06316571
H        1.35721430      -0.60191022       1.88485642
H        0.54588721      -1.82847989       0.89046265
H        2.56009117       0.30657904       0.01897341
H        1.96760856      -0.95991970      -1.08341503
H        0.51813951       1.59981606      -1.12500226
14
Frame=6 idx=005805 GeodesicLength=0.20879224876384878 rxn_smarts="[C:1]([C@:2]12[C:3]([H:10])([H:11])[C:4]([H:12])([H:13])[C@@:5]1([H:14])[O:6]2)([H:7])([H:8])[H:9]>>[C:1]([O:6][C@@:5]1([H:14])[C:2][C:3]([H:10])([H:11])[C:4]1([H:12])[H:13])([H:7])([H:8])[H:9]"
C       -2.04541152       0.39311625      -0.10874537
C       -0.20751228       0.24624067       0.64024045
C        0.88712378      -0.78883188       0.92488482
C        1.68715007      -0.26427873      -0.29342163
C        0.50118486       0.63576891      -0.61073453
O       -0.57624048      -0.22870125      -0.91324960
H       -2.11968950       1.41695845       0.24570901
H       -2.51655827      -0.28628575       0.59468568
H       -2.56311467       0.35379659      -1.06914705
H        1.35662673      -0.58219338       1.88797568
H        0.55965000      -1.82760086       0.90483293
H        2.55977172       0.31202089       0.01296230
H        1.97145947      -0.96624116      -1.07802836
H        0.50556009       1.58623124      -1.13796433
14
Frame=7 idx=005805 GeodesicLength=0.2436247095846101 rxn_smarts="[C:1]([C@:2]12[C:3]([H:10])([H:11])[C:4]([H:12])([H:13])[C@@:5]1([H:14])[O:6]2)([H:7])([H:8])[H:9]>>[C:1]([O:6][C@@:5]1([H:14])[C:2][C:3]([H:10])([H:11])[C:4]1([H:12])[H:13])([H:7])([H:8])[H:9]"
C       -2.04165874       0.39678076      -0.10716526
C       -0.21160868       0.23720653       0.63259478
C        0.89111743      -0.78442538       0.92880988
C        1.68875401      -0.26502662      -0.29388426
C        0.49774118       0.62539907      -0.61793155
O       -0.57755965      -0.24803081      -0.91159430
H       -2.12034956       1.40519427       0.28993174
H       -2.53219448      -0.30682884       0.55901317
H       -2.55087409       0.41101665      -1.07300371
H        1.35588090      -0.56231230       1.89082577
H        0.57324227      -1.82635769       0.91926005
H        2.55939150       0.31737965       0.00667697
H        1.97509889      -0.97257148      -1.07275325
H        0.49301902       1.57257620      -1.15078003
14
Frame=8 idx=005805 GeodesicLength=0.27841491455380396 rxn_smarts="[C:1]([C@:2]12[C:3]([H:10])([H:11])[C:4]([H:12])([H:13])[C@@:5]1([H:14])[O:6]2)([H:7])([H:8])[H:9]>>[C:1]([O:6][C@@:5]1([H:14])[C:2][C:3]([H:10])([H:11])[C:4]1([H:12])[H:13])([H:7])([H:8])[H:9]"
C       -2.03782179       0.40021137      -0.10543430
C       -0.21564713       0.22826330       0.62505544
C        0.89490876      -0.77991445       0.93259971
C        1.69017447      -0.26573233      -0.29445844
C        0.49427271       0.61514336      -0.62506372
O       -0.57890781      -0.26704534      -0.90983838
H       -2.12140249       1.39150007       0.33331536
H       -2.54800401      -0.32533000       0.52219800
H       -2.53681898       0.46738205      -1.07456842
H        1.35484529      -0.54253413       1.89333856
H        0.58651650      -1.82477138       0.93356093
H        2.55885347       0.32259414       0.00022285
H        1.97847814      -0.97879059      -1.06757411
H        0.48055286       1.55902391      -1.16335349
14
Frame=9 idx=005805 GeodesicLength=0.31323200870335505 rxn_smarts="[C:1]([C@:2]12[C:3]([H:10])([H:11])[C:4]([H:12])([H:13])[C@@:5]1([H:14])[O:6]2)([H:7])([H:8])[H:9]>>[C:1]([O:6][C@@:5]1([H:14])[C:2][C:3]([H:10])([H:11])[C:4]1([H:12])[H:13])([H:7])([H:8])[H:9]"
C       -2.03399279       0.40341209      -0.10356523
C       -0.21963164       0.21940837       0.61761400
C        0.89856512      -0.77524526       0.93627278
C        1.69147759      -0.26642955      -0.29513709
C        0.49079324       0.60494461      -0.63212501
O       -0.58033361      -0.28579432      -0.90798848
H       -2.12289583       1.37582990       0.37599473
H       -2.56408694      -0.34186550       0.48402854
H       -2.52116628       0.52309480      -1.07384250
H        1.35362679      -0.52271004       1.89552467
H        0.59954639      -1.82278703       0.94778685
H        2.55827346       0.32764658      -0.00641480
H        1.98164976      -0.98498398      -1.06246081
H        0.46817474       1.54547934      -1.17568766
14
Frame=10 idx=005805 GeodesicLength=0.34812016498677584 rxn_smarts="[C:1]([C@:2]12[C:3]([H:10])([H:11])[C:4]([H:12])([H:13])[C@@:5]1([H:14])[O:6]2)([H:7])([H:8])[H:9]>>[C:1]([O:6][C@@:5]1([H:14])[C:2][C:3]([H:10])([H:11])[C:4]1([H:12])[H:13])([H:7])([H:8])[H:9]"
C       -2.03015862       0.40635784      -0.10156935
C       -0.22357375       0.21062049       0.61027409
C        0.90208619      -0.77043912       0.93984927
C        1.69266299      -0.26710814      -0.29591937
C        0.48729810       0.59480714      -0.63913709
O       -0.58181256      -0.30431015      -0.90605901
H       -2.12478752       1.35822601       0.41791605
H       -2.58042867      -0.35636766       0.44459678
H       -2.50398809       0.57811064      -1.07083607
H        1.35220111      -0.50284443       1.89741413
H        0.61236377      -1.82045637       0.96196933
H        2.55761762       0.33258249      -0.01323343
H        1.98464526      -0.99113869      -1.05741962
H        0.45587417       1.53195994      -1.18784570
14
Frame=11 idx=005805 GeodesicLength=0.38318639542651345 rxn_smarts="[C:1]([C@:2]12[C:3]([H:10])([H:11])[C:4]([H:12])([H:13])[C@@:5]1([H:14])[O:6]2)([H:7])([H:8])[H:9]>>[C:1]([O:6][C@@:5]1([H:14])[C:2][C:3]([H:10])([H:11])[C:4]1([H:12])[H:13])([H:7])([H:8])[H:9]"
C       -2.02632192       0.40902517      -0.09944727
C       -0.22748329       0.20188269       0.60303622
C        0.90547200      -0.76545570       0.94336758
C        1.69372967      -0.26777382      -0.29682411
C        0.48379846       0.58470095      -0.64612870
O       -0.58334878      -0.32264407      -0.90405441
H       -2.12707056       1.33856857       0.45922070
H       -2.59704890      -0.36889330       0.40372620
H       -2.48529299       0.63260585      -1.06549287
H        1.35056499      -0.48281156       1.89903544
H        0.62497557      -1.81775155       0.97621238
H        2.55689412       0.33742869      -0.02030134
H        1.98744975      -0.99729902      -1.05244588
H        0.44368187       1.51841711      -1.19990394
14
Frame=12 idx=005805 GeodesicLength=0.4182260174806298 rxn_smarts="[C:1]([C@:2]12[C:3]([H:10])([H:11])[C:4]([H:12])([H:13])[C@@:5]1([H:14])[O:6]2)([H:7])([H:8])[H:9]>>[C:1]([O:6][C@@:5]1([H:14])[C:2][C:3]([H:10])([H:11])[C:4]1([H:12])[H:13])([H:7])([H:8])[H:9]"
C       -2.02247875       0.41140088      -0.09721204
C       -0.23133334       0.19326855       0.59589058
C        0.90869932      -0.76035491       0.94677090
C        1.69468300      -0.26841275      -0.29780870
C        0.48030479       0.57470160      -0.65306529
O       -0.58489237      -0.34070065      -0.90198019
H       -2.12975236       1.31713577       0.49938558
H       -2.61364745      -0.37920463       0.36190155
H       -2.46536317       0.68601017      -1.05780770
H        1.34869176      -0.46283508       1.90036159
H        0.63732349      -1.81471986       0.99034046
H        2.55609198       0.34213868      -0.02748590
H        1.99009043      -1.00339899      -1.04752809
H        0.43158268       1.50497120      -1.21176275
14
Frame=13 idx=005805 GeodesicLength=0.4532865980137845 rxn_smarts="[C:1]([C@:2]12[C:3]([H:10])([H:11])[C:4]([H:12])([H:13])[C@@:5]1([H:14])[O:6]2)([H:7])([H:8])[H:9]>>[C:1]([O:6][C@@:5]1([H:14])[C:2][C:3]([H:10])([H:11])[C:4]1([H:12])[H:13])([H:7])([H:8])[H:9]"
C       -2.01864281       0.41349463      -0.09490767
C       -0.23510040       0.18475082       0.58878468
C        0.91184019      -0.75507158       0.95004556
C        1.69550870      -0.26905271      -0.29882799
C        0.47677280       0.56472554      -0.65991607
O       -0.58649172      -0.35847702      -0.89978401
H       -2.13282353       1.29376973       0.53845616
H       -2.63016507      -0.38726999       0.31885466
H       -2.44432227       0.73852817      -1.04768935
H        1.34669841      -0.44281884       1.90131032
H        0.64951164      -1.81121610       1.00439197
H        2.55520659       0.34663894      -0.03478632
H        1.99251539      -1.00944945      -1.04252978
H        0.41949208       1.49144787      -1.22340215
14
Frame=14 idx=005805 GeodesicLength=0.4884792118123795 rxn_smarts="[C:1]([C@:2]12[C:3]([H:10])([H:11])[C:4]([H:12])([H:13])[C@@:5]1([H:14])[O:6]2)([H:7])([H:8])[H:9]>>[C:1]([O:6][C@@:5]1([H:14])[C:2][C:3]([H:10])([H:11])[C:4]1([H:12])[H:13])([H:7])([H:8])[H:9]"
C       -2.01482626       0.41527009      -0.09251036
C       -0.23884716       0.17631117       0.58177863
C        0.91481908      -0.74961562       0.95325657
C        1.69625604      -0.26966537      -0.29995857
C        0.47327309       0.55478573      -0.66676213
O       -0.58808856      -0.37610639      -0.89752913
H       -2.13629009       1.26849077       0.57659927
H       -2.64672063      -0.39309478       0.27466389
H       -2.42213017       0.79015736      -1.03513775
H        1.34443894      -0.42266776       1.90201082
H        0.66145144      -1.80735686       1.01846080
H        2.55427593       0.35107815      -0.04228703
H        1.99483987      -1.01549210      -1.03760107
H        0.40754850       1.47790561      -1.23498392
14
Frame=15 idx=005805 GeodesicLength=0.5236964929037656 rxn_smarts="[C:1]([C@:2]12[C:3]([H:10])([H:11])[C:4]([H:12])([H:13])[C@@:5]1([H:14])[O:6]2)([H:7])([H:8])[H:9]>>[C:1]([O:6][C@@:5]1([H:14])[C:2][C:3]([H:10])([H:11])[C:4]1([H:12])[H:13])([H:7])([H:8])[H:9]"
C       -2.01105266       0.41674773      -0.09006745
C       -0.24254581       0.16796607       0.57485340
C        0.91768198      -0.74400562       0.95639307
C        1.69693121      -0.27025941      -0.30115738
C        0.46977903       0.54488551      -0.67358635
O       -0.58970827      -0.39357309      -0.89520222
H       -2.14015438       1.24139110       0.61360703
H       -2.66315614      -0.39656294       0.22943133
H       -2.39901750       0.84075445      -1.02015090
H        1.34199643      -0.40244731       1.90244856
H        0.67319169      -1.80314976       1.03251118
H        2.55331353       0.35542645      -0.04992193
H        1.99705755      -1.02152206      -1.03267673
H        0.39568333       1.46434889      -1.24648160
14
Frame=16 idx=005805 GeodesicLength=0.5588760896439843 rxn_smarts="[C:1]([C@:2]12[C:3]([H:10])([H:11])[C:4]([H:12])([H:13])[C@@:5]1([H:14])[O:6]2)([H:7])([H:8])[H:9]>>[C:1]([O:6][C@@:5]1([H:14])[C:2][C:3]([H:10])([H:11])[C:4]1([H:12])[H:13])([H:7])([H:8])[H:9]"
C       -2.00728620       0.41792942      -0.08760369
C       -0.24618311       0.15972504       0.56799792
C        0.92041331      -0.73824246       0.95943903
C        1.69749819      -0.27082547      -0.30240291
C        0.46627285       0.53502115      -0.68037876
O       -0.59133386      -0.41085255      -0.89278795
H       -2.14436088       1.21254482       0.64929964
H       -2.67924008      -0.39759392       0.18331157
H       -2.37510417       0.89015016      -1.00272647
H        1.33935181      -0.38221395       1.90260743
H        0.68471952      -1.79856356       1.04650144
H        2.55226222       0.35966038      -0.05765249
H        1.99913104      -1.02749161      -1.02772427
H        0.38385935       1.45075256      -1.25788050
