15
Frame=0 idx=008796 GeodesicLength=0.0 rxn_smarts="[O:1]=[C:2]1[C:3]([H:8])([H:9])[C:4]([H:10])([H:11])[C:5]([H:12])([H:13])[C:6]([H:14])=[C:7]1[H:15]>>[O:1]=[C:2]=[C:7]([C:6]1([H:14])[C:3]([H:8])([H:9])[C:4]([H:10])([H:11])[C:5]1([H:12])[H:13])[H:15]"
O        0.54518437      -2.61709657       0.97087590
C        0.74932516      -1.48550934       0.70940695
C       -0.79458805      -0.76834218      -0.44462915
C       -1.28611269       0.48675195       0.24408922
C       -0.14960583       1.37090778      -0.22292045
C        0.99028418       0.37773764      -0.41116778
C        1.58060972      -0.43068267       0.60535775
H       -0.82625664      -0.66357544      -1.53260322
H       -1.25236977      -1.72302259      -0.19072054
H       -2.27629571       0.83305452      -0.06174284
H       -1.29259313       0.36102161       1.32733493
H       -0.38786342       1.80878393      -1.19485422
H        0.16209256       2.18380118       0.44087582
H        1.65339218       0.63953464      -1.24503909
H        2.58479705      -0.37336442       1.00573669
15
Frame=1 idx=008796 GeodesicLength=0.03129322692149438 rxn_smarts="[O:1]=[C:2]1[C:3]([H:8])([H:9])[C:4]([H:10])([H:11])[C:5]([H:12])([H:13])[C:6]([H:14])=[C:7]1[H:15]>>[O:1]=[C:2]=[C:7]([C:6]1([H:14])[C:3]([H:8])([H:9])[C:4]([H:10])([H:11])[C:5]1([H:12])[H:13])[H:15]"
O        0.56243087      -2.62806294       0.96881889
C        0.74645495      -1.49145253       0.71369938
C       -0.79049358      -0.76886104      -0.44240788
C       -1.28532182       0.48890620       0.24163185
C       -0.14799752       1.37512498      -0.22256073
C        0.98835748       0.37924722      -0.41383597
C        1.57378161      -0.43084452       0.60316637
H       -0.83018073      -0.67397710      -1.53105089
H       -1.25807766      -1.71819935      -0.18537818
H       -2.27495864       0.83280961      -0.06805889
H       -1.29445904       0.36705647       1.32536431
H       -0.38623937       1.81571350      -1.19346900
H        0.16122989       2.18589951       0.44447043
H        1.65692339       0.64241970      -1.24225561
H        2.57855017      -0.37577971       1.00186591
15
Frame=2 idx=008796 GeodesicLength=0.06248922888403267 rxn_smarts="[O:1]=[C:2]1[C:3]([H:8])([H:9])[C:4]([H:10])([H:11])[C:5]([H:12])([H:13])[C:6]([H:14])=[C:7]1[H:15]>>[O:1]=[C:2]=[C:7]([C:6]1([H:14])[C:3]([H:8])([H:9])[C:4]([H:10])([H:11])[C:5]1([H:12])[H:13])[H:15]"
O        0.57939411      -2.63839799       0.96786369
C        0.74364146      -1.49752082       0.71770937
C       -0.78639275      -0.76940680      -0.44038296
C       -1.28450088       0.49094661       0.23912428
C       -0.14636310       1.37931459      -0.22207832
C        0.98643521       0.38077796      -0.41664770
C        1.56701758      -0.43118969       0.60062355
H       -0.83412127      -0.68435281      -1.52954784
H       -1.26369572      -1.71334249      -0.18034291
H       -2.27356676       0.83249964      -0.07438418
H       -1.29632814       0.37281613       1.32330629
H       -0.38461467       1.82282576      -1.19185060
H        0.16040031       2.18782042       0.44833609
H        1.66041097       0.64544624      -1.23954723
H        2.57228364      -0.37823676       0.99781847
15
Frame=3 idx=008796 GeodesicLength=0.09361673462671888 rxn_smarts="[O:1]=[C:2]1[C:3]([H:8])([H:9])[C:4]([H:10])([H:11])[C:5]([H:12])([H:13])[C:6]([H:14])=[C:7]1[H:15]>>[O:1]=[C:2]=[C:7]([C:6]1([H:14])[C:3]([H:8])([H:9])[C:4]([H:10])([H:11])[C:5]1([H:12])[H:13])[H:15]"
O        0.59627464      -2.64824678       0.96767105
C        0.74084983      -1.50369085       0.72152373
C       -0.78230950      -0.76997286      -0.43849610
C       -1.28366208       0.49291406       0.23656487
C       -0.14470119       1.38347949      -0.22149973
C        0.98450635       0.38231314      -0.41957458
C        1.56028186      -0.43169938       0.59780068
H       -0.83809229      -0.69474061      -1.52803736
H       -1.26926339      -1.70842476      -0.17551682
H       -2.27212423       0.83216687      -0.08074722
H       -1.29822020       0.37838716       1.32116342
H       -0.38297457       1.83008492      -1.19004339
H        0.15960732       2.18958722       0.45241423
H        1.66386064       0.64855576      -1.23688016
H        2.56596680      -0.38071339       0.99365738
15
Frame=4 idx=008796 GeodesicLength=0.1246906224250602 rxn_smarts="[O:1]=[C:2]1[C:3]([H:8])([H:9])[C:4]([H:10])([H:11])[C:5]([H:12])([H:13])[C:6]([H:14])=[C:7]1[H:15]>>[O:1]=[C:2]=[C:7]([C:6]1([H:14])[C:3]([H:8])([H:9])[C:4]([H:10])([H:11])[C:5]1([H:12])[H:13])[H:15]"
O        0.61301908      -2.65760540       0.96836273
C        0.73809514      -1.50997474       0.72510273
C       -0.77824219      -0.77056468      -0.43676905
C       -1.28280327       0.49480091       0.23395599
C       -0.14301172       1.38762560      -0.22081695
C        0.98257533       0.38386205      -0.42262981
C        1.55359161      -0.43237747       0.59467140
H       -0.84209361      -0.70512634      -1.52654408
H       -1.27477892      -1.70346319      -0.17093275
H       -2.27063477       0.83180803      -0.08713401
H       -1.30012716       0.38374572       1.31894018
H       -0.38132560       1.83750827      -1.18803359
H        0.15885450       2.19120116       0.45672090
H        1.66727008       0.65176525      -1.23427371
H        2.55961150      -0.38320517       0.98938001
15
Frame=5 idx=008796 GeodesicLength=0.15569057771968065 rxn_smarts="[O:1]=[C:2]1[C:3]([H:8])([H:9])[C:4]([H:10])([H:11])[C:5]([H:12])([H:13])[C:6]([H:14])=[C:7]1[H:15]>>[O:1]=[C:2]=[C:7]([C:6]1([H:14])[C:3]([H:8])([H:9])[C:4]([H:10])([H:11])[C:5]1([H:12])[H:13])[H:15]"
O        0.62959039      -2.66644017       0.97001594
C        0.73538326      -1.51637253       0.72841499
C       -0.77418664      -0.77118068      -0.43521613
C       -1.28191462       0.49659526       0.23130230
C       -0.14129147       1.39174455      -0.22002444
C        0.98063969       0.38542653      -0.42582421
C        1.54694852      -0.43322797       0.59121467
H       -0.84612269      -0.71548483      -1.52508185
H       -1.28024014      -1.69845661      -0.16661680
H       -2.26908795       0.83141250      -0.09352862
H       -1.30203326       0.38886636       1.31664218
H       -0.37966796       1.84509301      -1.18581087
H        0.15814855       2.19264335       0.46126513
H        1.67062902       0.65508007      -1.23174297
H        2.55320529      -0.38569883       0.98499068
15
Frame=6 idx=008796 GeodesicLength=0.1866037702196309 rxn_smarts="[O:1]=[C:2]1[C:3]([H:8])([H:9])[C:4]([H:10])([H:11])[C:5]([H:12])([H:13])[C:6]([H:14])=[C:7]1[H:15]>>[O:1]=[C:2]=[C:7]([C:6]1([H:14])[C:3]([H:8])([H:9])[C:4]([H:10])([H:11])[C:5]1([H:12])[H:13])[H:15]"
O        0.64605174      -2.67481938       0.97248893
C        0.73270128      -1.52286967       0.73145811
C       -0.77014849      -0.77180724      -0.43382492
C       -1.28099043       0.49831497       0.22861864
C       -0.13954146       1.39582433      -0.21913672
C        0.97869997       0.38699447      -0.42915045
C        1.54033626      -0.43424302       0.58743926
H       -0.85018451      -0.72580904      -1.52363103
H       -1.28564206      -1.69338340      -0.16254850
H       -2.26747786       0.83100436      -0.09989084
H       -1.30391942       0.39378068       1.31427681
H       -0.37800226       1.85278707      -1.18338946
H        0.15748715       2.19391716       0.46599384
H        1.67393904       0.65844881      -1.22928666
H        2.54669105      -0.38814010       0.98058299
15
Frame=7 idx=008796 GeodesicLength=0.2174693690555173 rxn_smarts="[O:1]=[C:2]1[C:3]([H:8])([H:9])[C:4]([H:10])([H:11])[C:5]([H:12])([H:13])[C:6]([H:14])=[C:7]1[H:15]>>[O:1]=[C:2]=[C:7]([C:6]1([H:14])[C:3]([H:8])([H:9])[C:4]([H:10])([H:11])[C:5]1([H:12])[H:13])[H:15]"
O        0.66243521      -2.68277555       0.97576588
C        0.73005356      -1.52948284       0.73425856
C       -0.76614286      -0.77245785      -0.43259007
C       -1.28004085       0.49996533       0.22589834
C       -0.13776004       1.39988564      -0.21815817
C        0.97675461       0.38857341      -0.43260360
C        1.53376289      -0.43542241       0.58337189
H       -0.85429344      -0.73610803      -1.52219784
H       -1.29101396      -1.68826927      -0.15871915
H       -2.26582319       0.83058950      -0.10624642
H       -1.30579097       0.39849352       1.31185032
H       -0.37633235       1.86062262      -1.18078637
H        0.15688491       2.19505162       0.47090981
H        1.67720028       0.66188227      -1.22690194
H        2.54010621      -0.39054797       0.97614877
15
Frame=8 idx=008796 GeodesicLength=0.24829105104430949 rxn_smarts="[O:1]=[C:2]1[C:3]([H:8])([H:9])[C:4]([H:10])([H:11])[C:5]([H:12])([H:13])[C:6]([H:14])=[C:7]1[H:15]>>[O:1]=[C:2]=[C:7]([C:6]1([H:14])[C:3]([H:8])([H:9])[C:4]([H:10])([H:11])[C:5]1([H:12])[H:13])[H:15]"
O        0.67877914      -2.69031856       0.97980586
C        0.72743097      -1.53620447       0.73681544
C       -0.76217170      -0.77312905      -0.43150283
C       -1.27906731       0.50155355       0.22313945
C       -0.13594532       1.40392045      -0.21708610
C        0.97479866       0.39015685      -0.43618275
C        1.52721688      -0.43676226       0.57901143
H       -0.85844634      -0.74638989      -1.52077110
H       -1.29635792      -1.68309948      -0.15510249
H       -2.26411620       0.83017656      -0.11260809
H       -1.30766229       0.40302192       1.30935829
H       -0.37464675       1.86858881      -1.17799227
H        0.15633963       2.19603168       0.47601358
H        1.68041266       0.66536944      -1.22458320
H        2.53343587      -0.39291555       0.97168479
15
Frame=9 idx=008796 GeodesicLength=0.27907435112650436 rxn_smarts="[O:1]=[C:2]1[C:3]([H:8])([H:9])[C:4]([H:10])([H:11])[C:5]([H:12])([H:13])[C:6]([H:14])=[C:7]1[H:15]>>[O:1]=[C:2]=[C:7]([C:6]1([H:14])[C:3]([H:8])([H:9])[C:4]([H:10])([H:11])[C:5]1([H:12])[H:13])[H:15]"
O        0.69508537      -2.69743285       0.98464727
C        0.72483551      -1.54303500       0.73912216
C       -0.75823584      -0.77382246      -0.43056651
C       -1.27807391       0.50307975       0.22033590
C       -0.13409794       1.40792823      -0.21591331
C        0.97282891       0.39174605      -0.43988833
C        1.52069855      -0.43826172       0.57435473
H       -0.86263800      -0.75665530      -1.51935557
H       -1.30167399      -1.67787576      -0.15169717
H       -2.26235800       0.82976962      -0.11898928
H       -1.30954544       0.40736477       1.30679515
H       -0.37294083       1.87669456      -1.17499420
H        0.15584879       2.19684572       0.48132253
H        1.68357279       0.66891446      -1.22232890
H        2.52669402      -0.39526006       0.96715554
15
Frame=10 idx=008796 GeodesicLength=0.30983964276839876 rxn_smarts="[O:1]=[C:2]1[C:3]([H:8])([H:9])[C:4]([H:10])([H:11])[C:5]([H:12])([H:13])[C:6]([H:14])=[C:7]1[H:15]>>[O:1]=[C:2]=[C:7]([C:6]1([H:14])[C:3]([H:8])([H:9])[C:4]([H:10])([H:11])[C:5]1([H:12])[H:13])[H:15]"
O        0.71141446      -2.70414713       0.99021938
C        0.72225867      -1.54997527       0.74119893
C       -0.75434483      -0.77453900      -0.42976703
C       -1.27706919       0.50455543       0.21748299
C       -0.13221692       1.41191173      -0.21464260
C        0.97084271       0.39333790      -0.44371356
C        1.51420115      -0.43991789       0.56941842
H       -0.86687209      -0.76691689      -1.51793893
H       -1.30697504      -1.67259524      -0.14847263
H       -2.26055372       0.82938439      -0.12540867
H       -1.31145837       0.41154396       1.30415809
H       -0.37120668       1.88494028      -1.17179669
H        0.15541445       2.19749690       0.48682965
H        1.68668295       0.67250583      -1.22013243
H        2.51988245      -0.39758501       0.96256510
15
Frame=11 idx=008796 GeodesicLength=0.34058564253158863 rxn_smarts="[O:1]=[C:2]1[C:3]([H:8])([H:9])[C:4]([H:10])([H:11])[C:5]([H:12])([H:13])[C:6]([H:14])=[C:7]1[H:15]>>[O:1]=[C:2]=[C:7]([C:6]1([H:14])[C:3]([H:8])([H:9])[C:4]([H:10])([H:11])[C:5]1([H:12])[H:13])[H:15]"
O        0.72780590      -2.71046482       0.99643633
C        0.71969602      -1.55702171       0.74305859
C       -0.75050363      -0.77528025      -0.42909009
C       -1.27605193       0.50598766       0.21458014
C       -0.13029891       1.41586534      -0.21327468
C        0.96883185       0.39492415      -0.44765443
C        1.50771046      -0.44172515       0.56421350
H       -0.87114769      -0.77719027      -1.51650783
H       -1.31226955      -1.66724941      -0.14540027
H       -2.25869449       0.82902919      -0.13188166
H       -1.31340460       0.41557873       1.30144768
H       -0.36943557       1.89331604      -1.16839873
H        0.15504632       2.19797982       0.49252891
H        1.68973599       0.67612299      -1.21798729
H        2.51297983      -0.39987232       0.95792983
15
Frame=12 idx=008796 GeodesicLength=0.3712923395558562 rxn_smarts="[O:1]=[C:2]1[C:3]([H:8])([H:9])[C:4]([H:10])([H:11])[C:5]([H:12])([H:13])[C:6]([H:14])=[C:7]1[H:15]>>[O:1]=[C:2]=[C:7]([C:6]1([H:14])[C:3]([H:8])([H:9])[C:4]([H:10])([H:11])[C:5]1([H:12])[H:13])[H:15]"
O        0.74413674      -2.71629940       1.00357009
C        0.71716723      -1.56418509       0.74460974
C       -0.74669872      -0.77604283      -0.42858894
C       -1.27500628       0.50735227       0.21163708
C       -0.12834531       1.41978258      -0.21179156
C        0.96680138       0.39651679      -0.45173019
C        1.50124763      -0.44369460       0.55868592
H       -0.87546240      -0.78741874      -1.51511248
H       -1.31752254      -1.66185836      -0.14257326
H       -2.25677206       0.82868714      -0.13835462
H       -1.31535047       0.41940501       1.29866784
H       -0.36764401       1.90182829      -1.16476601
H        0.15473879       2.19827142       0.49845102
H        1.69271603       0.67978422      -1.21592743
H        2.50599400      -0.40212871       0.95322280
15
Frame=13 idx=008796 GeodesicLength=0.4019749999777954 rxn_smarts="[O:1]=[C:2]1[C:3]([H:8])([H:9])[C:4]([H:10])([H:11])[C:5]([H:12])([H:13])[C:6]([H:14])=[C:7]1[H:15]>>[O:1]=[C:2]=[C:7]([C:6]1([H:14])[C:3]([H:8])([H:9])[C:4]([H:10])([H:11])[C:5]1([H:12])[H:13])[H:15]"
O        0.76042342      -2.72165748       1.01161028
C        0.71467746      -1.57147442       0.74586391
C       -0.74293954      -0.77683100      -0.42825846
C       -1.27394274       0.50865230       0.20864939
C       -0.12635453       1.42366720      -0.21019286
C        0.96475288       0.39811737      -0.45594312
C        1.49482153      -0.44582956       0.55283696
H       -0.87982145      -0.79760678      -1.51375340
H       -1.32275144      -1.65642678      -0.13997421
H       -2.25480219       0.82836326      -0.14484530
H       -1.31731149       0.42302529       1.29581964
H       -0.36582807       1.91049036      -1.16089697
H        0.15450036       2.19837038       0.50459837
H        1.69563270       0.68349780      -1.21395191
H        2.49894309      -0.40435794       0.94843769
15
Frame=14 idx=008796 GeodesicLength=0.4326417258151361 rxn_smarts="[O:1]=[C:2]1[C:3]([H:8])([H:9])[C:4]([H:10])([H:11])[C:5]([H:12])([H:13])[C:6]([H:14])=[C:7]1[H:15]>>[O:1]=[C:2]=[C:7]([C:6]1([H:14])[C:3]([H:8])([H:9])[C:4]([H:10])([H:11])[C:5]1([H:12])[H:13])[H:15]"
O        0.77666410      -2.72650860       1.02060625
C        0.71222651      -1.57888996       0.74680718
C       -0.73922598      -0.77764614      -0.42810432
C       -1.27286160       0.50988697       0.20561157
C       -0.12432480       1.42751470      -0.20846711
C        0.96268071       0.39972495      -0.46029715
C        1.48843056      -0.44813056       0.54665462
H       -0.88422320      -0.80775589      -1.51243662
H       -1.32795179      -1.65095570      -0.13760363
H       -2.25277788       0.82805887      -0.15136978
H       -1.31929618       0.42643881       1.29289620
H       -0.36398157       1.91931000      -1.15676899
H        0.15433148       2.19825705       0.51099440
H        1.69847745       0.68726651      -1.21206243
H        2.49183218      -0.40657101       0.94353982
15
Frame=15 idx=008796 GeodesicLength=0.4632896812675574 rxn_smarts="[O:1]=[C:2]1[C:3]([H:8])([H:9])[C:4]([H:10])([H:11])[C:5]([H:12])([H:13])[C:6]([H:14])=[C:7]1[H:15]>>[O:1]=[C:2]=[C:7]([C:6]1([H:14])[C:3]([H:8])([H:9])[C:4]([H:10])([H:11])[C:5]1([H:12])[H:13])[H:15]"
O        0.79286356      -2.73080880       1.03055335
C        0.70981706      -1.58644045       0.74742872
C       -0.73556034      -0.77849135      -0.42812638
C       -1.27176203       0.51105604       0.20252229
C       -0.12225205       1.43131792      -0.20660905
C        0.96058084       0.40133282      -0.46479824
C        1.48207182      -0.45060395       0.54012821
H       -0.88867257      -0.81787258      -1.51116194
H       -1.33312620      -1.64544354      -0.13544976
H       -2.25069389       0.82777788      -0.15793612
H       -1.32130672       0.42964500       1.28989607
H       -0.36209846       1.92828741      -1.15236806
H        0.15423936       2.19791511       0.51764725
H        1.70125055       0.69108790      -1.21025756
H        2.48464910      -0.40875940       0.93853121
15
Frame=16 idx=008796 GeodesicLength=0.49391956183173114 rxn_smarts="[O:1]=[C:2]1[C:3]([H:8])([H:9])[C:4]([H:10])([H:11])[C:5]([H:12])([H:13])[C:6]([H:14])=[C:7]1[H:15]>>[O:1]=[C:2]=[C:7]([C:6]1([H:14])[C:3]([H:8])([H:9])[C:4]([H:10])([H:11])[C:5]1([H:12])[H:13])[H:15]"
O        0.80891570      -2.73448738       1.04170187
C        0.70746800      -1.59413476       0.74766448
C       -0.73193381      -0.77936692      -0.42836716
C       -1.27063773       0.51213882       0.19938359
C       -0.12013742       1.43507305      -0.20459709
C        0.95845617       0.40295572      -0.46946403
C        1.47577032      -0.45325987       0.53320671
H       -0.89316492      -0.82791823      -1.50997490
H       -1.33825500      -1.63990893      -0.13357963
H       -2.24855028       0.82750561      -0.16452335
H       -1.32332948       0.43259089       1.28682007
H       -0.36019131       1.93744271      -1.14765344
H        0.15422533       2.19731836       0.52459615
H        1.70393984       0.69499533      -1.20856244
H        2.47742460      -0.41094440       0.93334917
