12
Frame=0 idx=010537 GeodesicLength=0.0 rxn_smarts="[O:1]=[C:2]([C@@:3]1([H:9])[C:4]([H:10])([H:11])[N:5]=[C:6]([H:12])[O:7]1)[H:8]>>[O:1]([C:2][C@@:3]1([H:9])[C:4]([H:10])([H:11])[N:5]=[C:6]([H:12])[O:7]1)[H:8]"
O       -2.57703960       0.39555179       0.10490068
C       -1.58236500      -0.43380119       0.10990199
C       -0.32584165       0.05525345      -0.53355055
C        0.55339052       0.81142987       0.50603907
N        1.79946265       0.05269694       0.54060013
C        1.66017866      -0.90137685      -0.26627866
O        0.50400779      -1.02814413      -0.95559214
H       -2.68025014      -0.62822617       0.66975963
H       -0.58791159       0.66948119      -1.40114843
H        0.73836981       1.84276018       0.20722486
H        0.09791437       0.82672730       1.49861650
H        2.40008413      -1.66235239      -0.48047303
12
Frame=1 idx=010537 GeodesicLength=0.03286721889751609 rxn_smarts="[O:1]=[C:2]([C@@:3]1([H:9])[C:4]([H:10])([H:11])[N:5]=[C:6]([H:12])[O:7]1)[H:8]>>[O:1]([C:2][C@@:3]1([H:9])[C:4]([H:10])([H:11])[N:5]=[C:6]([H:12])[O:7]1)[H:8]"
O       -2.56914556       0.40025651       0.12270566
C       -1.58373908      -0.43474441       0.09788831
C       -0.32508260       0.05806130      -0.53782478
C        0.55182384       0.81256872       0.50428437
N        1.79620036       0.05108735       0.54395728
C        1.65885150      -0.90155247      -0.26503506
O        0.50456347      -1.02677737      -0.95783741
H       -2.67978669      -0.63961366       0.67282731
H       -0.58419631       0.67277568      -1.40585288
H        0.74081358       1.84313302       0.20512402
H        0.09225926       0.82981671       1.49490514
H        2.39743824      -1.66501139      -0.47514196
12
Frame=2 idx=010537 GeodesicLength=0.06573016010341853 rxn_smarts="[O:1]=[C:2]([C@@:3]1([H:9])[C:4]([H:10])([H:11])[N:5]=[C:6]([H:12])[O:7]1)[H:8]>>[O:1]([C:2][C@@:3]1([H:9])[C:4]([H:10])([H:11])[N:5]=[C:6]([H:12])[O:7]1)[H:8]"
O       -2.56104305       0.40281253       0.14092750
C       -1.58432835      -0.43589755       0.08535505
C       -0.32422249       0.06207566      -0.54275690
C        0.55044969       0.81427837       0.50219156
N        1.79353237       0.05072931       0.54549159
C        1.65830777      -0.89959564      -0.26662193
O        0.50564832      -1.02316669      -0.96243641
H       -2.67739292      -0.65287699       0.67655322
H       -0.58119471       0.67810065      -1.41035100
H        0.74272968       1.84448416       0.20373058
H        0.08731539       0.83212798       1.49107769
H        2.39019830      -1.67307180      -0.46316094
12
Frame=3 idx=010537 GeodesicLength=0.09862170131928633 rxn_smarts="[O:1]=[C:2]([C@@:3]1([H:9])[C:4]([H:10])([H:11])[N:5]=[C:6]([H:12])[O:7]1)[H:8]>>[O:1]([C:2][C@@:3]1([H:9])[C:4]([H:10])([H:11])[N:5]=[C:6]([H:12])[O:7]1)[H:8]"
O       -2.55299678       0.40653139       0.15818321
C       -1.58599916      -0.43595258       0.07339356
C       -0.32349389       0.06497057      -0.54684578
C        0.54893105       0.81542729       0.50046788
N        1.78993529       0.04875586       0.54920328
C        1.65642063      -0.90028710      -0.26466885
O        0.50580121      -1.02203398      -0.96410641
H       -2.67662105      -0.66429566       0.67970109
H       -0.57708100       0.68135925      -1.41500106
H        0.74567811       1.84466456       0.20147289
H        0.08164528       0.83563678       1.48727731
H        2.38778030      -1.67477637      -0.45907713
12
Frame=4 idx=010537 GeodesicLength=0.1314797399455243 rxn_smarts="[O:1]=[C:2]([C@@:3]1([H:9])[C:4]([H:10])([H:11])[N:5]=[C:6]([H:12])[O:7]1)[H:8]>>[O:1]([C:2][C@@:3]1([H:9])[C:4]([H:10])([H:11])[N:5]=[C:6]([H:12])[O:7]1)[H:8]"
O       -2.54513734       0.41039344       0.17459690
C       -1.58819078      -0.43535392       0.06164681
C       -0.32285623       0.06745626      -0.55059794
C        0.54735376       0.81637530       0.49895718
N        1.78590764       0.04601825       0.55392588
C        1.65390369      -0.90219012      -0.26119791
O        0.50548357      -1.02198067      -0.96457026
H       -2.67628726      -0.67484560       0.68297099
H       -0.57248336       0.68384370      -1.41976144
H        0.74912633       1.84438851       0.19894077
H        0.07567304       0.83973991       1.48354500
H        2.38750694      -1.67384508      -0.45845599
12
Frame=5 idx=010537 GeodesicLength=0.16434216359741957 rxn_smarts="[O:1]=[C:2]([C@@:3]1([H:9])[C:4]([H:10])([H:11])[N:5]=[C:6]([H:12])[O:7]1)[H:8]>>[O:1]([C:2][C@@:3]1([H:9])[C:4]([H:10])([H:11])[N:5]=[C:6]([H:12])[O:7]1)[H:8]"
O       -2.53729568       0.41402070       0.19066505
C       -1.59061850      -0.43427646       0.04998672
C       -0.32225925       0.06986600      -0.55420563
C        0.54578898       0.81728576       0.49750976
N        1.78165593       0.04296342       0.55902218
C        1.65101504      -0.90461118      -0.25709137
O        0.50488656      -1.02230336      -0.96453711
H       -2.67598551      -0.68525960       0.68623211
H       -0.56763873       0.68610791      -1.42454338
H        0.75288692       1.84393214       0.19628201
H        0.06965455       0.84417071       1.47980266
H        2.38790969      -1.67189604      -0.45912300
12
Frame=6 idx=010537 GeodesicLength=0.1972142078915347 rxn_smarts="[O:1]=[C:2]([C@@:3]1([H:9])[C:4]([H:10])([H:11])[N:5]=[C:6]([H:12])[O:7]1)[H:8]>>[O:1]([C:2][C@@:3]1([H:9])[C:4]([H:10])([H:11])[N:5]=[C:6]([H:12])[O:7]1)[H:8]"
O       -2.52934649       0.41688181       0.20686912
C       -1.59294370      -0.43293119       0.03825169
C       -0.32166355       0.07262828      -0.55792463
C        0.54431430       0.81839591       0.49597458
N        1.77748433       0.04014880       0.56373316
C        1.64814096      -0.90668363      -0.25348333
O        0.50427230      -1.02214895      -0.96493646
H       -2.67514634      -0.69638516       0.68944355
H       -0.56290502       0.68887794      -1.42927749
H        0.75668201       1.84371216       0.19372302
H        0.06389261       0.84862714       1.47602154
H        2.38721858      -1.67112309      -0.45839477
12
Frame=7 idx=010537 GeodesicLength=0.2301006066987718 rxn_smarts="[O:1]=[C:2]([C@@:3]1([H:9])[C:4]([H:10])([H:11])[N:5]=[C:6]([H:12])[O:7]1)[H:8]>>[O:1]([C:2][C@@:3]1([H:9])[C:4]([H:10])([H:11])[N:5]=[C:6]([H:12])[O:7]1)[H:8]"
O       -2.52126674       0.41895657       0.22326599
C       -1.59515631      -0.43131775       0.02644674
C       -0.32107233       0.07576484      -0.56175970
C        0.54293361       0.81972588       0.49434156
N        1.77339384       0.03758469       0.56805400
C        1.64528781      -0.90837641      -0.25040090
O        0.50364989      -1.02147838      -0.96580038
H       -2.67373614      -0.70829601       0.69255507
H       -0.55830695       0.69218292      -1.43395859
H        0.76051923       1.84374593       0.19124701
H        0.05839293       0.85313738       1.47219491
H        2.38536117      -1.67162964      -0.45618572
12
Frame=8 idx=010537 GeodesicLength=0.26302337616633403 rxn_smarts="[O:1]=[C:2]([C@@:3]1([H:9])[C:4]([H:10])([H:11])[N:5]=[C:6]([H:12])[O:7]1)[H:8]>>[O:1]([C:2][C@@:3]1([H:9])[C:4]([H:10])([H:11])[N:5]=[C:6]([H:12])[O:7]1)[H:8]"
O       -2.51301943       0.42018894       0.24008010
C       -1.59721741      -0.42945794       0.01453829
C       -0.32049565       0.07935408      -0.56576843
C        0.54165999       0.82135281       0.49259102
N        1.76945553       0.03535391       0.57189375
C        1.64252300      -0.90960552      -0.24798749
O        0.50307344      -1.02018449      -0.96730517
H       -2.67170390      -0.72120606       0.69544504
H       -0.55395168       0.69615544      -1.43862019
H        0.76435036       1.84415546       0.18886075
H        0.05320945       0.85773372       1.46835354
H        2.38211629      -1.67384037      -0.45208120
12
Frame=9 idx=010537 GeodesicLength=0.295979675793934 rxn_smarts="[O:1]=[C:2]([C@@:3]1([H:9])[C:4]([H:10])([H:11])[N:5]=[C:6]([H:12])[O:7]1)[H:8]>>[O:1]([C:2][C@@:3]1([H:9])[C:4]([H:10])([H:11])[N:5]=[C:6]([H:12])[O:7]1)[H:8]"
O       -2.50439450       0.41919273       0.25771322
C       -1.59838968      -0.42779278       0.00222525
C       -0.31983001       0.08432711      -0.57045742
C        0.54062843       0.82373089       0.49041106
N        1.76629309       0.03465045       0.57360144
C        1.64072484      -0.90835067      -0.24877791
O        0.50312492      -1.01634318      -0.97140279
H       -2.66742385      -0.73668629       0.69851723
H       -0.55052281       0.70238167      -1.44302536
H        0.76755357       1.84577568       0.18711512
H        0.04889244       0.86162301       1.46440453
H        2.37334357      -1.68250861      -0.44032438
12
Frame=10 idx=010537 GeodesicLength=0.328940003541008 rxn_smarts="[O:1]=[C:2]([C@@:3]1([H:9])[C:4]([H:10])([H:11])[N:5]=[C:6]([H:12])[O:7]1)[H:8]>>[O:1]([C:2][C@@:3]1([H:9])[C:4]([H:10])([H:11])[N:5]=[C:6]([H:12])[O:7]1)[H:8]"
O       -2.49578106       0.41887709       0.27487185
C       -1.60028607      -0.42530445      -0.00969061
C       -0.31925297       0.08858965      -0.57457564
C        0.53954711       0.82575782       0.48845370
N        1.76243842       0.03285247       0.57676675
C        1.63787832      -0.90893870      -0.24713430
O        0.50246197      -1.01413211      -0.97353613
H       -2.66426658      -0.75113510       0.70097690
H       -0.54631376       0.70724494      -1.44750641
H        0.77158525       1.84656996       0.18476150
H        0.04418746       0.86641534       1.46041361
H        2.36780192      -1.68679691      -0.43380121
12
Frame=11 idx=010537 GeodesicLength=0.36192996237407754 rxn_smarts="[O:1]=[C:2]([C@@:3]1([H:9])[C:4]([H:10])([H:11])[N:5]=[C:6]([H:12])[O:7]1)[H:8]>>[O:1]([C:2][C@@:3]1([H:9])[C:4]([H:10])([H:11])[N:5]=[C:6]([H:12])[O:7]1)[H:8]"
O       -2.48711807       0.41808311       0.29199794
C       -1.60225357      -0.42242313      -0.02154982
C       -0.31872346       0.09301708      -0.57869399
C        0.53851645       0.82793006       0.48649884
N        1.75854737       0.03102114       0.57994917
C        1.63489170      -0.90963321      -0.24545186
O        0.50166777      -1.01189021      -0.97569720
H       -2.66075594      -0.76602117       0.70328033
H       -0.54211904       0.71229067      -1.45203117
H        0.77576430       1.84748031       0.18237272
H        0.03960303       0.87149148       1.45647030
H        2.36197946      -1.69134613      -0.42714526
12
Frame=12 idx=010537 GeodesicLength=0.3949627331518888 rxn_smarts="[O:1]=[C:2]([C@@:3]1([H:9])[C:4]([H:10])([H:11])[N:5]=[C:6]([H:12])[O:7]1)[H:8]>>[O:1]([C:2][C@@:3]1([H:9])[C:4]([H:10])([H:11])[N:5]=[C:6]([H:12])[O:7]1)[H:8]"
O       -2.47824418       0.41629127       0.30932582
C       -1.60402782      -0.41929594      -0.03345043
C       -0.31819147       0.09793491      -0.58296164
C        0.53760727       0.83039264       0.48439707
N        1.75482390       0.02959459       0.58253798
C        1.63203714      -0.90969613      -0.24457950
O        0.50093386      -1.00888860      -0.97851681
H       -2.65632673      -0.78195931       0.70544552
H       -0.53814819       0.71804740      -1.45644896
H        0.77993035       1.84874429       0.18009381
H        0.03535409       0.87656879       1.45245947
H        2.35425178      -1.69773391      -0.41830235
12
Frame=13 idx=010537 GeodesicLength=0.42795209581559474 rxn_smarts="[O:1]=[C:2]([C@@:3]1([H:9])[C:4]([H:10])([H:11])[N:5]=[C:6]([H:12])[O:7]1)[H:8]>>[O:1]([C:2][C@@:3]1([H:9])[C:4]([H:10])([H:11])[N:5]=[C:6]([H:12])[O:7]1)[H:8]"
O       -2.46934877       0.41454208       0.32642201
C       -1.60616946      -0.41557572      -0.04509734
C       -0.31773202       0.10261626      -0.58694007
C        0.53671739       0.83276532       0.48238671
N        1.75076480       0.02769550       0.58575975
C        1.62858550      -0.91060699      -0.24257723
O        0.49976166      -1.00658658      -0.98042001
H       -2.65225133      -0.79765978       0.70715585
H       -0.53383228       0.72324795      -1.46087249
H        0.78456286       1.84965473       0.17751911
H        0.03103715       0.88219699       1.44842212
H        2.34790451      -1.70228975      -0.41175840
12
Frame=14 idx=010537 GeodesicLength=0.46099806071436483 rxn_smarts="[O:1]=[C:2]([C@@:3]1([H:9])[C:4]([H:10])([H:11])[N:5]=[C:6]([H:12])[O:7]1)[H:8]>>[O:1]([C:2][C@@:3]1([H:9])[C:4]([H:10])([H:11])[N:5]=[C:6]([H:12])[O:7]1)[H:8]"
O       -2.46032694       0.41219954       0.34364024
C       -1.60832174      -0.41148433      -0.05668079
C       -0.31730796       0.10754518      -0.59095343
C        0.53589801       0.83533474       0.48033361
N        1.74673581       0.02589558       0.58882320
C        1.62506375      -0.91144851      -0.24074317
O        0.49851228      -1.00408139      -0.98250379
H       -2.64769525      -0.81400372       0.70859942
H       -0.52959056       0.72875558      -1.46531744
H        0.78928732       1.85075400       0.17491786
H        0.02691025       0.88805947       1.44441662
H        2.34083503      -1.70752614      -0.40453234
12
Frame=15 idx=010537 GeodesicLength=0.49406244804729893 rxn_smarts="[O:1]=[C:2]([C@@:3]1([H:9])[C:4]([H:10])([H:11])[N:5]=[C:6]([H:12])[O:7]1)[H:8]>>[O:1]([C:2][C@@:3]1([H:9])[C:4]([H:10])([H:11])[N:5]=[C:6]([H:12])[O:7]1)[H:8]"
O       -2.45102674       0.40885660       0.36107270
C       -1.61027368      -0.40714150      -0.06819765
C       -0.31688301       0.11293722      -0.59506635
C        0.53522403       0.83819888       0.47813012
N        1.74287850       0.02450803       0.59128659
C        1.62164073      -0.91169543      -0.23966165
O        0.49728942      -1.00085661      -0.98516762
H       -2.64224843      -0.83142258       0.70971135
H       -0.52557483       0.73490905      -1.46962203
H        0.79403270       1.85219461       0.17237309
H        0.02316581       0.89396571       1.44034371
H        2.33177551      -1.71445399      -0.39520226
12
Frame=16 idx=010537 GeodesicLength=0.527162018646248 rxn_smarts="[O:1]=[C:2]([C@@:3]1([H:9])[C:4]([H:10])([H:11])[N:5]=[C:6]([H:12])[O:7]1)[H:8]>>[O:1]([C:2][C@@:3]1([H:9])[C:4]([H:10])([H:11])[N:5]=[C:6]([H:12])[O:7]1)[H:8]"
O       -2.44168939       0.40563571       0.37829290
C       -1.61262268      -0.40218161      -0.07940470
C       -0.31653959       0.11805077      -0.59886549
C        0.53455750       0.84096390       0.47602906
N        1.73864117       0.02261633       0.59444118
C        1.61758141      -0.91282213      -0.23740743
O        0.49558370      -0.99842395      -0.98683158
H       -2.63725598      -0.84856083       0.71028524
H       -0.52119351       0.74043441      -1.47394432
H        0.79925195       1.85325712       0.16951190
H        0.01934214       0.90046255       1.43625228
H        2.32434329      -1.71943225      -0.38835903
