17
Frame=0 idx=009816 GeodesicLength=0.0 rxn_smarts="[C:1]1([H:8])([H:9])[C:2]([H:10])([H:11])[O:3][C:4]([H:12])([H:13])[C:5]([H:14])=[C:6]([H:15])[C:7]1([H:16])[H:17]>>[C:1]1([H:8])([H:9])[C:2]([H:10])([H:11])[O:3][C:4]([H:12])([H:13])[C:5]([H:14])([H:16])[C:6]([H:15])=[C:7]1[H:17]"
C       -1.36025369      -0.30344603       0.46933972
C       -0.68263901      -1.47433418      -0.25070568
O        0.61526360      -1.16655950      -0.72952936
C        1.48797171      -0.56996641       0.22462075
C        1.41622844       0.93090681       0.13621992
C        0.19444565       1.59822797      -0.14572918
C       -1.10228806       1.03951545      -0.14287290
H       -1.02816505      -0.28219971       1.51579226
H       -2.43378799      -0.50286128       0.49510210
H       -0.64825640      -2.35456065       0.40582877
H       -1.24874271      -1.74567867      -1.14420037
H        1.26412638      -0.96355756       1.22462151
H        2.49819901      -0.89934842      -0.02602298
H        2.33392747       1.49603849       0.05606417
H        0.27550667       2.64595207      -0.42046623
H        0.32750032       0.92263218      -1.11594471
H       -1.90903635       1.62923943      -0.55211782
17
Frame=1 idx=009816 GeodesicLength=0.09623169144386269 rxn_smarts="[C:1]1([H:8])([H:9])[C:2]([H:10])([H:11])[O:3][C:4]([H:12])([H:13])[C:5]([H:14])=[C:6]([H:15])[C:7]1([H:16])[H:17]>>[C:1]1([H:8])([H:9])[C:2]([H:10])([H:11])[O:3][C:4]([H:12])([H:13])[C:5]([H:14])([H:16])[C:6]([H:15])=[C:7]1[H:17]"
C       -1.35943408      -0.30507076       0.46588566
C       -0.68118373      -1.47638224      -0.25096025
O        0.62556262      -1.18991633      -0.71463285
C        1.49084905      -0.57019612       0.22875777
C        1.41777330       0.92760084       0.10668539
C        0.19341380       1.60188100      -0.13619789
C       -1.09891144       1.03455951      -0.15388209
H       -1.03329508      -0.28267069       1.51384939
H       -2.43337482      -0.50354875       0.48767180
H       -0.66396029      -2.36025401       0.40103610
H       -1.24009520      -1.73552776      -1.15302418
H        1.26708519      -0.94154498       1.23723063
H        2.50268309      -0.90227114      -0.01210921
H        2.33556133       1.49422090       0.03727842
H        0.27053975       2.65413281      -0.39439226
H        0.31888678       0.91534518      -1.13612180
H       -1.91210027       1.63964255      -0.52707463
17
Frame=2 idx=009816 GeodesicLength=0.19244121622019167 rxn_smarts="[C:1]1([H:8])([H:9])[C:2]([H:10])([H:11])[O:3][C:4]([H:12])([H:13])[C:5]([H:14])=[C:6]([H:15])[C:7]1([H:16])[H:17]>>[C:1]1([H:8])([H:9])[C:2]([H:10])([H:11])[O:3][C:4]([H:12])([H:13])[C:5]([H:14])([H:16])[C:6]([H:15])=[C:7]1[H:17]"
C       -1.35867299      -0.30650084       0.46230336
C       -0.67971988      -1.47840885      -0.25102360
O        0.63568681      -1.21363294      -0.69869281
C        1.49369348      -0.57009488       0.23262635
C        1.41878266       0.92387799       0.07584953
C        0.19259064       1.60513626      -0.12594665
C       -1.09539726       1.02991753      -0.16487588
H       -1.03871404      -0.28304880       1.51182143
H       -2.43301992      -0.50398535       0.47986223
H       -0.68013547      -2.36574145       0.39618580
H       -1.23075722      -1.72528372      -1.16178481
H        1.27032297      -0.91849561       1.24933080
H        2.50713152      -0.90449567       0.00145993
H        2.33655750       1.49221545       0.01903430
H        0.26613645       2.66168332      -0.36717470
H        0.30960307       0.90754173      -1.15720465
H       -1.91408830       1.64931582      -0.50177065
17
Frame=3 idx=009816 GeodesicLength=0.28862914484908886 rxn_smarts="[C:1]1([H:8])([H:9])[C:2]([H:10])([H:11])[O:3][C:4]([H:12])([H:13])[C:5]([H:14])=[C:6]([H:15])[C:7]1([H:16])[H:17]>>[C:1]1([H:8])([H:9])[C:2]([H:10])([H:11])[O:3][C:4]([H:12])([H:13])[C:5]([H:14])([H:16])[C:6]([H:15])=[C:7]1[H:17]"
C       -1.35797747      -0.30773109       0.45865620
C       -0.67825327      -1.48038159      -0.25087368
O        0.64560230      -1.23764560      -0.68162211
C        1.49650177      -0.56961492       0.23619772
C        1.41917187       0.91974161       0.04377220
C        0.19202999       1.60796730      -0.11482220
C       -1.09171504       1.02564978      -0.17566121
H       -1.04443373      -0.28340086       1.50977215
H       -2.43273028      -0.50414806       0.47170100
H       -0.69679263      -2.37100837       0.39123247
H       -1.22069848      -1.71487268      -1.17046730
H        1.27390539      -0.89441372       1.26085127
H        2.51153934      -0.90593235       0.01456396
H        2.33681924       1.48994376       0.00129066
H        0.26239272       2.66853807      -0.33876546
H        0.29955933       0.89919167      -1.17915303
H       -1.91492104       1.65811704      -0.47667265
17
Frame=4 idx=009816 GeodesicLength=0.3847977194459825 rxn_smarts="[C:1]1([H:8])([H:9])[C:2]([H:10])([H:11])[O:3][C:4]([H:12])([H:13])[C:5]([H:14])=[C:6]([H:15])[C:7]1([H:16])[H:17]>>[C:1]1([H:8])([H:9])[C:2]([H:10])([H:11])[O:3][C:4]([H:12])([H:13])[C:5]([H:14])([H:16])[C:6]([H:15])=[C:7]1[H:17]"
C       -1.35736836      -0.30876904       0.45498471
C       -0.67677216      -1.48227123      -0.25049842
O        0.65530032      -1.26187605      -0.66330359
C        1.49926980      -0.56870617       0.23949519
C        1.41883385       0.91521187       0.01063659
C        0.19178498       1.61035029      -0.10262693
C       -1.08782505       1.02180327      -0.18605845
H       -1.05050845      -0.28380995       1.50775078
H       -2.43252527      -0.50402950       0.46315514
H       -0.71393550      -2.37604671       0.38611053
H       -1.20983895      -1.70422450      -1.17907943
H        1.27788235      -0.86933347       1.27176519
H        2.51590780      -0.90647935       0.02713806
H        2.33625311       1.48727902      -0.01632233
H        0.25940611       2.67463509      -0.30910323
H        0.28870439       0.89026391      -1.20188036
H       -1.91456895       1.66600252      -0.45216345
17
Frame=5 idx=009816 GeodesicLength=0.48095018206793944 rxn_smarts="[C:1]1([H:8])([H:9])[C:2]([H:10])([H:11])[O:3][C:4]([H:12])([H:13])[C:5]([H:14])=[C:6]([H:15])[C:7]1([H:16])[H:17]>>[C:1]1([H:8])([H:9])[C:2]([H:10])([H:11])[O:3][C:4]([H:12])([H:13])[C:5]([H:14])([H:16])[C:6]([H:15])=[C:7]1[H:17]"
C       -1.35688298      -0.30963234       0.45129689
C       -0.67524731      -1.48405191      -0.24989778
O        0.66479692      -1.28623107      -0.64358614
C        1.50199194      -0.56732416       0.24260594
C        1.41763291       0.91032474      -0.02321736
C        0.19189827       1.61226723      -0.08911485
C       -1.08368145       1.01841241      -0.19591881
H       -1.05704194      -0.28436869       1.50578227
H       -2.43243798      -0.50363699       0.45411884
H       -0.73156271      -2.38085402       0.38073085
H       -1.19804371      -1.69327544      -1.18765335
H        1.28228138      -0.84333609       1.28210207
H        2.52024418      -0.90602469       0.03918018
H        2.33478760       1.48406472      -0.03456899
H        0.25726701       2.67992094      -0.27811077
H        0.27704146       0.88072645      -1.22524854
H       -1.91304358       1.67301892      -0.42850043
17
Frame=6 idx=009816 GeodesicLength=0.5770903617267221 rxn_smarts="[C:1]1([H:8])([H:9])[C:2]([H:10])([H:11])[O:3][C:4]([H:12])([H:13])[C:5]([H:14])=[C:6]([H:15])[C:7]1([H:16])[H:17]>>[C:1]1([H:8])([H:9])[C:2]([H:10])([H:11])[O:3][C:4]([H:12])([H:13])[C:5]([H:14])([H:16])[C:6]([H:15])=[C:7]1[H:17]"
C       -1.35656928      -0.31034060       0.44757269
C       -0.67364088      -1.48570326      -0.24907693
O        0.67411575      -1.31061090      -0.62230054
C        1.50466390      -0.56544234       0.24565431
C        1.41540655       0.90512088      -0.05733136
C        0.19239660       1.61370719      -0.07401869
C       -1.07923442       1.01550293      -0.20513579
H       -1.06416779      -0.28516242       1.50386630
H       -2.43250852      -0.50298219       0.44443679
H       -0.74966799      -2.38542912       0.37499509
H       -1.18514545      -1.68197820      -1.19622652
H        1.28712224      -0.81655697       1.29192961
H        2.52455980      -0.90445882       0.05070509
H        2.33237952       1.48016604      -0.05442337
H        0.25605305       2.68435456      -0.24572831
H        0.26462145       0.87053947      -1.24909585
H       -1.91038451       1.67927375      -0.40582254
17
Frame=7 idx=009816 GeodesicLength=0.6732219279867079 rxn_smarts="[C:1]1([H:8])([H:9])[C:2]([H:10])([H:11])[O:3][C:4]([H:12])([H:13])[C:5]([H:14])=[C:6]([H:15])[C:7]1([H:16])[H:17]>>[C:1]1([H:8])([H:9])[C:2]([H:10])([H:11])[O:3][C:4]([H:12])([H:13])[C:5]([H:14])([H:16])[C:6]([H:15])=[C:7]1[H:17]"
C       -1.35647163      -0.31090481       0.44377768
C       -0.67191843      -1.48721214      -0.24803440
O        0.68326538      -1.33492255      -0.59928640
C        1.50728725      -0.56306019       0.24874819
C        1.41198290       0.89963576      -0.09123854
C        0.19329376       1.61466044      -0.05710362
C       -1.07443016       1.01309433      -0.21365121
H       -1.07201006      -0.28624668       1.50198248
H       -2.43276982      -0.50206604       0.43394891
H       -0.76823778      -2.38976557       0.36881942
H       -1.17098421      -1.67031264      -1.20481157
H        1.29244136      -0.78916940       1.30131440
H        2.52886722      -0.90169725       0.06167323
H        2.32899466       1.47552423      -0.07670303
H        0.25582541       2.68790360      -0.21196682
H        0.25150940       0.85963600      -1.27328987
H       -1.90664526       1.68490291      -0.38417884
17
Frame=8 idx=009816 GeodesicLength=0.7693502298273531 rxn_smarts="[C:1]1([H:8])([H:9])[C:2]([H:10])([H:11])[O:3][C:4]([H:12])([H:13])[C:5]([H:14])=[C:6]([H:15])[C:7]1([H:16])[H:17]>>[C:1]1([H:8])([H:9])[C:2]([H:10])([H:11])[O:3][C:4]([H:12])([H:13])[C:5]([H:14])([H:16])[C:6]([H:15])=[C:7]1[H:17]"
C       -1.35661984      -0.31131980       0.43987571
C       -0.67005635      -1.48857423      -0.24675209
O        0.69222390      -1.35908553      -0.57441577
C        1.50987149      -0.56020093       0.25193297
C        1.40720166       0.89389607      -0.12456154
C        0.19459809       1.61511210      -0.03820573
C       -1.06920989       1.01120162      -0.22145562
H       -1.08065469      -0.28763171       1.50009843
H       -2.43323727      -0.50086792       0.42252559
H       -0.78724353      -2.39384652       0.36215950
H       -1.15543920      -1.65829861      -1.21337337
H        1.29831280      -0.76135761       1.31028428
H        2.53317502      -0.89769658       0.07193760
H        2.32457446       1.47016927      -0.10178036
H        0.25662719       2.69054406      -0.17692918
H        0.23775436       0.84791024      -1.29776863
H       -1.90187820       1.69004610      -0.36357178
17
Frame=9 idx=009816 GeodesicLength=0.8654776158234427 rxn_smarts="[C:1]1([H:8])([H:9])[C:2]([H:10])([H:11])[O:3][C:4]([H:12])([H:13])[C:5]([H:14])=[C:6]([H:15])[C:7]1([H:16])[H:17]>>[C:1]1([H:8])([H:9])[C:2]([H:10])([H:11])[O:3][C:4]([H:12])([H:13])[C:5]([H:14])([H:16])[C:6]([H:15])=[C:7]1[H:17]"
C       -1.35702675      -0.31156272       0.43583046
C       -0.66804206      -1.48979271      -0.24519231
O        0.70093952      -1.38302559      -0.54759985
C        1.51243294      -0.55690324       0.25518395
C        1.40092240       0.88792838      -0.15703162
C        0.19631678       1.61503844      -0.01723357
C       -1.06350668       1.00983547      -0.22858593
H       -1.09014920      -0.28928099       1.49817073
H       -2.43390590      -0.49934412       0.41006963
H       -0.80663725      -2.39764173       0.35502264
H       -1.13843825      -1.64599996      -1.22182532
H        1.30485462      -0.73330121       1.31882199
H        2.53748540      -0.89245962       0.08124132
H        2.31900931       1.46419612      -0.12957106
H        0.25848094       2.69226163      -0.14076699
H        0.22338773       0.83521721      -1.32253920
H       -1.89612355       1.69483463      -0.34399487
17
Frame=10 idx=009816 GeodesicLength=0.9616139777380013 rxn_smarts="[C:1]1([H:8])([H:9])[C:2]([H:10])([H:11])[O:3][C:4]([H:12])([H:13])[C:5]([H:14])=[C:6]([H:15])[C:7]1([H:16])[H:17]>>[C:1]1([H:8])([H:9])[C:2]([H:10])([H:11])[O:3][C:4]([H:12])([H:13])[C:5]([H:14])([H:16])[C:6]([H:15])=[C:7]1[H:17]"
C       -1.35769564      -0.31159629       0.43160424
C       -0.66586879      -1.49087503      -0.24330087
O        0.70933961      -1.40666236      -0.51878165
C        1.51498998      -0.55321141       0.25842322
C        1.39303620       0.88176897      -0.18846348
C        0.19845425       1.61440669       0.00585654
C       -1.05725053       1.00900421      -0.23511151
H       -1.10052070      -0.29112113       1.49615127
H       -2.43475946      -0.49743235       0.39650136
H       -0.82634313      -2.40111074       0.34746250
H       -1.11994817      -1.63352349      -1.23003961
H        1.31221375      -0.70516675       1.32687146
H        2.54178462      -0.88603002       0.08924650
H        2.31216595       1.45773477      -0.15967771
H        0.26138366       2.69305100      -0.10361920
H        0.20842096       0.82137794      -1.34765856
H       -1.88940255       1.69938600      -0.32546450
17
Frame=11 idx=009816 GeodesicLength=1.0577661808106362 rxn_smarts="[C:1]1([H:8])([H:9])[C:2]([H:10])([H:11])[O:3][C:4]([H:12])([H:13])[C:5]([H:14])=[C:6]([H:15])[C:7]1([H:16])[H:17]>>[C:1]1([H:8])([H:9])[C:2]([H:10])([H:11])[O:3][C:4]([H:12])([H:13])[C:5]([H:14])([H:16])[C:6]([H:15])=[C:7]1[H:17]"
C       -1.35862393      -0.31137151       0.42715006
C       -0.66353423      -1.49183156      -0.24101005
O        0.71733965      -1.42990058      -0.48793322
C        1.51756133      -0.54917074       0.26153914
C        1.38345625       0.87547262      -0.21871385
C        0.20100926       1.61317493       0.03107563
C       -1.05036390       1.00871303      -0.24113458
H       -1.11179256      -0.29304820       1.49397906
H       -2.43577162      -0.49505787       0.38173948
H       -0.84626070      -2.40420298       0.33958247
H       -1.09997252      -1.62101623      -1.23785753
H        1.32056288      -0.67711010       1.33435573
H        2.54604550      -0.87848942       0.09556510
H        2.30388527       1.45093437      -0.19155326
H        0.26530815       2.69291314      -0.06554942
H        0.19286972       0.80618633      -1.37320564
H       -1.88171855       1.70380478      -0.30802913
17
Frame=12 idx=009816 GeodesicLength=1.1539436442054611 rxn_smarts="[C:1]1([H:8])([H:9])[C:2]([H:10])([H:11])[O:3][C:4]([H:12])([H:13])[C:5]([H:14])=[C:6]([H:15])[C:7]1([H:16])[H:17]>>[C:1]1([H:8])([H:9])[C:2]([H:10])([H:11])[O:3][C:4]([H:12])([H:13])[C:5]([H:14])([H:16])[C:6]([H:15])=[C:7]1[H:17]"
C       -1.35980802      -0.31083147       0.42240954
C       -0.66103776      -1.49267309      -0.23824233
O        0.72485249      -1.45262551      -0.45505018
C        1.52016308      -0.54482463       0.26440165
C        1.37212292       0.86911630      -0.24766281
C        0.20397065       1.61129083       0.05841102
C       -1.04276588       1.00896517      -0.24678064
H       -1.12399656      -0.29493638       1.49158174
H       -2.43691033      -0.49213961       0.36568985
H       -0.86626508      -2.40686273       0.33152902
H       -1.07854696      -1.60865807      -1.24510009
H        1.33008725      -0.64927424       1.34118604
H        2.55022185      -0.86995450       0.09978670
H        2.29401344       1.44396339      -0.22460569
H        0.27020240       2.69184774      -0.02652027
H        0.17675498       0.78941161      -1.39926467
H       -1.87305849       1.70818518      -0.29176887
17
Frame=13 idx=009816 GeodesicLength=1.250157212412029 rxn_smarts="[C:1]1([H:8])([H:9])[C:2]([H:10])([H:11])[O:3][C:4]([H:12])([H:13])[C:5]([H:14])=[C:6]([H:15])[C:7]1([H:16])[H:17]>>[C:1]1([H:8])([H:9])[C:2]([H:10])([H:11])[O:3][C:4]([H:12])([H:13])[C:5]([H:14])([H:16])[C:6]([H:15])=[C:7]1[H:17]"
C       -1.36124660      -0.30991261       0.41731142
C       -0.65838133      -1.49341095      -0.23491255
O        0.73179269      -1.47470012      -0.42015657
C        1.52281000      -0.54021301       0.26686729
C        1.35900412       0.86279964      -0.27519880
C        0.20731392       1.60869111       0.08782604
C       -1.03437573       1.00976263      -0.25219533
H       -1.13717959      -0.29664082       1.48887465
H       -2.43814116      -0.48859364       0.34824089
H       -0.88620741      -2.40903015       0.32349713
H       -1.05574271      -1.59666412      -1.25157622
H        1.34098658      -0.62178776       1.34726309
H        2.55424958      -0.86057374       0.10148923
H        2.28241250       1.43700719      -0.25823748
H        0.27599238       2.68984468       0.01361038
H        0.16011230       0.77080644      -1.42591059
H       -1.86339954       1.71261522      -0.27679259
17
Frame=14 idx=009816 GeodesicLength=1.3464182171709689 rxn_smarts="[C:1]1([H:8])([H:9])[C:2]([H:10])([H:11])[O:3][C:4]([H:12])([H:13])[C:5]([H:14])=[C:6]([H:15])[C:7]1([H:16])[H:17]>>[C:1]1([H:8])([H:9])[C:2]([H:10])([H:11])[O:3][C:4]([H:12])([H:13])[C:5]([H:14])([H:16])[C:6]([H:15])=[C:7]1[H:17]"
C       -1.36293911      -0.30855060       0.41177482
C       -0.65556846      -1.49405410      -0.23093179
O        0.73808155      -1.49596485      -0.38330282
C        1.52551039      -0.53537148       0.26878583
C        1.34410259       0.85664408      -0.30121895
C        0.21099772       1.60530114       0.11925289
C       -1.02511668       1.01110575      -0.25753143
H       -1.15140173      -0.29800814       1.48576263
H       -2.43942299      -0.48434267       0.32926770
H       -0.90592166      -2.41064823       0.31571790
H       -1.03166545      -1.58526967      -1.25709024
H        1.35346126      -0.59476188       1.35247667
H        2.55803669      -0.85052480       0.10025724
H        2.26898186       1.43027443      -0.29185997
H        0.28258440       2.68687670       0.05505085
H        0.14298971       0.75011744      -1.45319287
H       -1.85271009       1.71717688      -0.26321847
17
Frame=15 idx=009816 GeodesicLength=1.442737401209356 rxn_smarts="[C:1]1([H:8])([H:9])[C:2]([H:10])([H:11])[O:3][C:4]([H:12])([H:13])[C:5]([H:14])=[C:6]([H:15])[C:7]1([H:16])[H:17]>>[C:1]1([H:8])([H:9])[C:2]([H:10])([H:11])[O:3][C:4]([H:12])([H:13])[C:5]([H:14])([H:16])[C:6]([H:15])=[C:7]1[H:17]"
C       -1.36488605      -0.30668385       0.40571339
C       -0.65260574      -1.49460797      -0.22621278
O        0.74365225      -1.51623976      -0.34457278
C        1.52826809      -0.53033312       0.27000470
C        1.32746146       0.85078863      -0.32562560
C        0.21496242       1.60103654       0.15258217
C       -1.01492397       1.01299217      -0.26294038
H       -1.16673293      -0.29888240       1.48214308
H       -2.44070887      -0.47932262       0.30863991
H       -0.92523005      -2.41166485       0.30845323
H       -1.00645893      -1.57472066      -1.26145385
H        1.36771223      -0.56828921       1.35670681
H        2.56146603      -0.84001492       0.09569629
H        2.25366712       1.42399289      -0.32488766
H        0.28986544       2.68289597       0.09802747
H        0.12545269       0.72710621      -1.48111877
H       -1.84096120       1.72194696      -0.25115522
17
Frame=16 idx=009816 GeodesicLength=1.53912530569435 rxn_smarts="[C:1]1([H:8])([H:9])[C:2]([H:10])([H:11])[O:3][C:4]([H:12])([H:13])[C:5]([H:14])=[C:6]([H:15])[C:7]1([H:16])[H:17]>>[C:1]1([H:8])([H:9])[C:2]([H:10])([H:11])[O:3][C:4]([H:12])([H:13])[C:5]([H:14])([H:16])[C:6]([H:15])=[C:7]1[H:17]"
C       -1.36708700      -0.30426098       0.39904192
C       -0.64950135      -1.49507226      -0.22067730
O        0.74845554      -1.53533018      -0.30408078
C        1.53107933      -0.52513000       0.27037943
C        1.30917301       0.84538110      -0.34833312
C        0.21912996       1.59580671       0.18764836
C       -1.00375467       1.01541577      -0.26855659
H       -1.18324584      -0.29911759       1.47791081
H       -2.44194307      -0.47349439       0.28623333
H       -0.94395272      -2.41203892       0.30197470
H       -0.98029674      -1.56525229      -1.26449935
H        1.38392546      -0.54243755       1.35982715
H        2.56439069      -0.82927961       0.08746216
H        2.23647761       1.41840016      -0.35674807
H        0.29770416       2.67783509       0.14272538
H        0.10758087       0.70157959      -1.50963720
H       -1.82813523       1.72699535      -0.24067085
