19
Frame=0 idx=008068 GeodesicLength=0.0 rxn_smarts="[C:1]([C:2]([C@@:3]([O:4][H:14])([C@@:5]([C:6]([H:16])([H:17])[H:18])([O:7][H:19])[H:15])[H:13])([H:11])[H:12])([H:8])([H:9])[H:10]>>[C:1]([C:2]([C@@:3]([O:4][H:14])([C:5](=[O:7])[H:15])[H:13])([H:11])[H:12])([H:8])([H:9])[H:10].[C:6]([H:16])([H:17])([H:18])[H:19]"
C        2.37982596       0.16905013       1.29963913
C        0.93766299       0.60725715       1.09257823
C        0.27189692      -0.13109326      -0.07109180
O        0.26033627      -1.52170675       0.11439145
C       -1.16675126       0.36034042      -0.16444072
C       -1.71221264      -0.21021122      -1.89898827
O       -2.01828617      -0.21268575       0.68644415
H        2.43353142      -0.90702444       1.46586442
H        2.99368128       0.40397041       0.42645731
H        2.82041699       0.67063107       2.16249783
H        0.34739707       0.42126762       1.99455781
H        0.89415601       1.68452829       0.90015334
H        0.81895021       0.07696400      -0.99581173
H       -0.51021324      -1.68728320       0.67931977
H       -1.25513749       1.44479818      -0.31794616
H       -1.02613666      -1.00264866      -2.17618687
H       -2.74723532      -0.53195391      -2.09533434
H       -1.55609542       0.71778496      -2.43791936
H       -2.16578685      -0.35198513      -0.66418417
19
Frame=1 idx=008068 GeodesicLength=0.09715731250880917 rxn_smarts="[C:1]([C:2]([C@@:3]([O:4][H:14])([C@@:5]([C:6]([H:16])([H:17])[H:18])([O:7][H:19])[H:15])[H:13])([H:11])[H:12])([H:8])([H:9])[H:10]>>[C:1]([C:2]([C@@:3]([O:4][H:14])([C:5](=[O:7])[H:15])[H:13])([H:11])[H:12])([H:8])([H:9])[H:10].[C:6]([H:16])([H:17])([H:18])[H:19]"
C        2.38487801       0.16975951       1.29973822
C        0.94198403       0.60853215       1.09898986
C        0.27216638      -0.12579415      -0.06454700
O        0.26291267      -1.51726087       0.11617015
C       -1.16603984       0.36547102      -0.16012042
C       -1.71965770      -0.21571426      -1.90640034
O       -2.01772805      -0.21113242       0.68632687
H        2.43927263      -0.90668215       1.46341697
H        2.99533676       0.40648342       0.42466580
H        2.82888831       0.66919605       2.16208993
H        0.35506645       0.41979391       2.00259347
H        0.89762209       1.68637325       0.91004580
H        0.81671865       0.08560781      -0.99035745
H       -0.50930334      -1.68870127       0.67649342
H       -1.25285257       1.45155794      -0.30439223
H       -1.03739666      -1.01581126      -2.17247359
H       -2.75410049      -0.52433328      -2.12246580
H       -1.54509853       0.70479842      -2.45360774
H       -2.19266879      -0.36214383      -0.66616593
19
Frame=2 idx=008068 GeodesicLength=0.19423132151475203 rxn_smarts="[C:1]([C:2]([C@@:3]([O:4][H:14])([C@@:5]([C:6]([H:16])([H:17])[H:18])([O:7][H:19])[H:15])[H:13])([H:11])[H:12])([H:8])([H:9])[H:10]>>[C:1]([C:2]([C@@:3]([O:4][H:14])([C:5](=[O:7])[H:15])[H:13])([H:11])[H:12])([H:8])([H:9])[H:10].[C:6]([H:16])([H:17])([H:18])[H:19]"
C        2.39000396       0.17035168       1.29988958
C        0.94644271       0.60984055       1.10551065
C        0.27253482      -0.12020968      -0.05800126
O        0.26543152      -1.51253754       0.11772503
C       -1.16511648       0.37116211      -0.15574112
C       -1.72737984      -0.22132975      -1.91369434
O       -2.01728445      -0.20938123       0.68565797
H        2.44497552      -0.90648003       1.46086500
H        2.99708685       0.40895308       0.42298117
H        2.83747103       0.66747692       2.16179250
H        0.36282808       0.41825063       2.01066521
H        0.90136950       1.68827856       0.92023215
H        0.81453487       0.09462335      -0.98489268
H       -0.50844217      -1.68982925       0.67335589
H       -1.25041199       1.45881254      -0.29050750
H       -1.04887881      -1.02884375      -2.16855561
H       -2.76048228      -0.51737078      -2.14979980
H       -1.53437634       0.69111381      -2.46933630
H       -2.22030649      -0.37288122      -0.66814654
19
Frame=3 idx=008068 GeodesicLength=0.2912623676456543 rxn_smarts="[C:1]([C:2]([C@@:3]([O:4][H:14])([C@@:5]([C:6]([H:16])([H:17])[H:18])([O:7][H:19])[H:15])[H:13])([H:11])[H:12])([H:8])([H:9])[H:10]>>[C:1]([C:2]([C@@:3]([O:4][H:14])([C:5](=[O:7])[H:15])[H:13])([H:11])[H:12])([H:8])([H:9])[H:10].[C:6]([H:16])([H:17])([H:18])[H:19]"
C        2.39520664       0.17081616       1.30009923
C        0.95104719       0.61118423       1.11214342
C        0.27301159      -0.11432328      -0.05145798
O        0.26788524      -1.50751849       0.11904920
C       -1.16396009       0.37745828      -0.15130752
C       -1.73539945      -0.22704954      -1.92085771
O       -2.01697104      -0.20740597       0.68436693
H        2.45063219      -0.90642849       1.45820996
H        2.99894036       0.41136846       0.42141342
H        2.84616888       0.66545575       2.16161346
H        0.37067994       0.41663877       2.01876892
H        0.90542085       1.69024605       0.93072202
H        0.81241348       0.10402442      -0.97941709
H       -0.50763935      -1.69063591       0.66989952
H       -1.24778899       1.46660265      -0.27627302
H       -1.06057243      -1.04170969      -2.16443925
H       -2.76638385      -0.51112408      -2.17732649
H       -1.52397115       0.67673051      -2.48507822
H       -2.24872000      -0.38432983      -0.67012881
19
Frame=4 idx=008068 GeodesicLength=0.38828517743064583 rxn_smarts="[C:1]([C:2]([C@@:3]([O:4][H:14])([C@@:5]([C:6]([H:16])([H:17])[H:18])([O:7][H:19])[H:15])[H:13])([H:11])[H:12])([H:8])([H:9])[H:10]>>[C:1]([C:2]([C@@:3]([O:4][H:14])([C:5](=[O:7])[H:15])[H:13])([H:11])[H:12])([H:8])([H:9])[H:10].[C:6]([H:16])([H:17])([H:18])[H:19]"
C        2.40048881       0.17114178       1.30037451
C        0.95580612       0.61256524       1.11889066
C        0.27360720      -0.10811716      -0.04492192
O        0.27026597      -1.50218432       0.12013456
C       -1.16254694       0.38440805      -0.14682620
C       -1.74374281      -0.23286390      -1.92787648
O       -2.01680419      -0.20517681       0.68237438
H        2.45623371      -0.90653882       1.45545390
H        3.00090760       0.41371838       0.41997482
H        2.85498400       0.66311216       2.16156336
H        0.37861904       0.41495966       2.02689948
H        0.90980049       1.69227748       0.94152536
H        0.81037094       0.11382577      -0.97393130
H       -0.50690563      -1.69108797       0.66611541
H       -1.24495254       1.47497195      -0.26166939
H       -1.07246454      -1.05437240      -2.16013178
H       -2.77181092      -0.50565435      -2.20502832
H       -1.51392777       0.66165230      -2.50080687
H       -2.27792855      -0.39663707      -0.67211418
19
Frame=5 idx=008068 GeodesicLength=0.4853220997761205 rxn_smarts="[C:1]([C:2]([C@@:3]([O:4][H:14])([C@@:5]([C:6]([H:16])([H:17])[H:18])([O:7][H:19])[H:15])[H:13])([H:11])[H:12])([H:8])([H:9])[H:10]>>[C:1]([C:2]([C@@:3]([O:4][H:14])([C:5](=[O:7])[H:15])[H:13])([H:11])[H:12])([H:8])([H:9])[H:10].[C:6]([H:16])([H:17])([H:18])[H:19]"
C        2.40585291       0.17131418       1.30072507
C        0.96072931       0.61398667       1.12575518
C        0.27433393      -0.10156898      -0.03839946
O        0.27256430      -1.49651120       0.12097003
C       -1.16084957       0.39206841      -0.14230526
C       -1.75243997      -0.23876895      -1.93473362
O       -2.01680387      -0.20265839       0.67958518
H        2.46176691      -0.90682584       1.45260028
H        3.00300009       0.41598742       0.41868106
H        2.86391901       0.66042090       2.16165628
H        0.38664112       0.41321592       2.03505083
H        0.91453813       1.69437621       0.95265344
H        0.80842649       0.12404639      -0.96843722
H       -0.50625372      -1.69114608       0.66199234
H       -1.24187022       1.48397118      -0.24667862
H       -1.08454385      -1.06678535      -2.15564400
H       -2.77676805      -0.50102839      -2.23287866
H       -1.50430359       0.64588109      -2.51649043
H       -2.30793937      -0.40997520      -0.67410242
19
Frame=6 idx=008068 GeodesicLength=0.5823915642052723 rxn_smarts="[C:1]([C:2]([C@@:3]([O:4][H:14])([C@@:5]([C:6]([H:16])([H:17])[H:18])([O:7][H:19])[H:15])[H:13])([H:11])[H:12])([H:8])([H:9])[H:10]>>[C:1]([C:2]([C@@:3]([O:4][H:14])([C:5](=[O:7])[H:15])[H:13])([H:11])[H:12])([H:8])([H:9])[H:10].[C:6]([H:16])([H:17])([H:18])[H:19]"
C        2.41130076       0.17131820       1.30116175
C        0.96582644       0.61545136       1.13273909
C        0.27520459      -0.09465700      -0.03189692
O        0.27477060      -1.49047539       0.12154644
C       -1.15883940       0.40049620      -0.13775373
C       -1.76151992      -0.24475198      -1.94141712
O       -2.01698767      -0.19980936       0.67589683
H        2.46721781      -0.90730424       1.44965584
H        3.00523095       0.41815754       0.41754936
H        2.87297406       0.65735617       2.16190691
H        0.39474060       0.41141251       2.04321576
H        0.91966359       1.69654436       0.96411525
H        0.80660136       0.13470323      -0.96293617
H       -0.50569682      -1.69076906       0.65752162
H       -1.23850253       1.49365059      -0.23128052
H       -1.09678858      -1.07890680      -2.15099072
H       -2.78127324      -0.49731894      -2.26084639
H       -1.49516636       0.62943386      -2.53209565
H       -2.33875625      -0.42453124      -0.67609163
19
Frame=7 idx=008068 GeodesicLength=0.6794943205787709 rxn_smarts="[C:1]([C:2]([C@@:3]([O:4][H:14])([C@@:5]([C:6]([H:16])([H:17])[H:18])([O:7][H:19])[H:15])[H:13])([H:11])[H:12])([H:8])([H:9])[H:10]>>[C:1]([C:2]([C@@:3]([O:4][H:14])([C:5](=[O:7])[H:15])[H:13])([H:11])[H:12])([H:8])([H:9])[H:10].[C:6]([H:16])([H:17])([H:18])[H:19]"
C        2.41683368       0.17113648       1.30169622
C        0.97110755       0.61696354       1.13984344
C        0.27623199      -0.08735716      -0.02542231
O        0.27687359      -1.48405041       0.12185387
C       -1.15648675       0.40975197      -0.13318364
C       -1.77101384      -0.25080992      -1.94791370
O       -2.01737406      -0.19658161       0.67119833
H        2.47256925      -0.90799136       1.44662789
H        3.00761417       0.42020758       0.41659848
H        2.88214935       0.65388818       2.16233193
H        0.40291029       0.40955638       2.05138540
H        0.92520957       1.69878529       0.97591867
H        0.80491877       0.14581531      -0.95743092
H       -0.50525042      -1.68991160       0.65269404
H       -1.23481367       1.50406314      -0.21544996
H       -1.10918010      -1.09068787      -2.14618931
H       -2.78533731      -0.49459691      -2.28889789
H       -1.48659103       0.61232808      -2.54758367
H       -2.37037104      -0.44050910      -0.67807687
19
Frame=8 idx=008068 GeodesicLength=0.7766258836864441 rxn_smarts="[C:1]([C:2]([C@@:3]([O:4][H:14])([C@@:5]([C:6]([H:16])([H:17])[H:18])([O:7][H:19])[H:15])[H:13])([H:11])[H:12])([H:8])([H:9])[H:10]>>[C:1]([C:2]([C@@:3]([O:4][H:14])([C:5](=[O:7])[H:15])[H:13])([H:11])[H:12])([H:8])([H:9])[H:10].[C:6]([H:16])([H:17])([H:18])[H:19]"
C        2.42245155       0.17074967       1.30234266
C        0.97658268       0.61852716       1.14706910
C        0.27743111      -0.07964359      -0.01898491
O        0.27886132      -1.47720809       0.12188093
C       -1.15375693       0.41990264      -0.12860792
C       -1.78096219      -0.25693565      -1.95420753
O       -2.01798310      -0.19292284       0.66535770
H        2.47780078      -0.90890567       1.44352679
H        3.01016482       0.42211314       0.41585056
H        2.89144139       0.64998482       2.16295089
H        0.41114060       0.40765581       2.05954960
H        0.93121126       1.70110156       0.98807148
H        0.80340472       0.15740158      -0.95192487
H       -0.50493149      -1.68852453       0.64749987
H       -1.23075947       1.51526495      -0.19916497
H       -1.12169161      -1.10207771      -2.14126194
H       -2.78898301      -0.49294105      -2.31698028
H       -1.47865974       0.59459330      -2.56291768
H       -2.40276271      -0.45813551      -0.68004948
19
Frame=9 idx=008068 GeodesicLength=0.8737857844221433 rxn_smarts="[C:1]([C:2]([C@@:3]([O:4][H:14])([C@@:5]([C:6]([H:16])([H:17])[H:18])([O:7][H:19])[H:15])[H:13])([H:11])[H:12])([H:8])([H:9])[H:10]>>[C:1]([C:2]([C@@:3]([O:4][H:14])([C:5](=[O:7])[H:15])[H:13])([H:11])[H:12])([H:8])([H:9])[H:10].[C:6]([H:16])([H:17])([H:18])[H:19]"
C        2.42815248       0.17013003       1.30312684
C        0.98226701       0.62014929       1.15441978
C        0.27882628      -0.07147827      -0.01259975
O        0.28072136      -1.46990829       0.12160682
C       -1.15059755       0.43104142      -0.12404433
C       -1.79142036      -0.26313143      -1.96027112
O       -2.01884409      -0.18876742       0.65818183
H        2.48287892      -0.91007513       1.44037216
H        3.01290361       0.42383851       0.41534434
H        2.90084404       0.64559891       2.16380081
H        0.41941793       0.40572367       2.06769492
H        0.93772182       1.70349977       1.00058823
H        0.80209755       0.16949328      -0.94642622
H       -0.50476031      -1.68654180       0.64191854
H       -1.22627740       1.52733464      -0.18242519
H       -1.13429378      -1.11300121      -2.13624178
H       -2.79226244      -0.49245342      -2.34499719
H       -1.47150638       0.57626050      -2.57804243
H       -2.43586868      -0.47771304      -0.68200625
19
Frame=10 idx=008068 GeodesicLength=0.9709513147192218 rxn_smarts="[C:1]([C:2]([C@@:3]([O:4][H:14])([C@@:5]([C:6]([H:16])([H:17])[H:18])([O:7][H:19])[H:15])[H:13])([H:11])[H:12])([H:8])([H:9])[H:10]>>[C:1]([C:2]([C@@:3]([O:4][H:14])([C:5](=[O:7])[H:15])[H:13])([H:11])[H:12])([H:8])([H:9])[H:10].[C:6]([H:16])([H:17])([H:18])[H:19]"
C        2.43393585       0.16925751       1.30405842
C        0.98816752       0.62183410       1.16189222
C        0.28042593      -0.06283913      -0.00627353
O        0.28243779      -1.46212527       0.12102927
C       -1.14698517       0.44322152      -0.11950471
C       -1.80241552      -0.26939354      -1.96610949
O       -2.01996680      -0.18405094       0.64955348
H        2.48778397      -0.91151788       1.43717640
H        3.01584533       0.42535338       0.41509457
H        2.91035477       0.64070074       2.16489242
H        0.42773075       0.40377306       2.07581089
H        0.94477014       1.70598087       1.01346577
H        0.80102005       0.18210282      -0.94093609
H       -0.50475775      -1.68391492       0.63595107
H       -1.22133954       1.54031420      -0.16517735
H       -1.14694881      -1.12342254      -2.13115679
H       -2.79519000      -0.49320571      -2.37292549
H       -1.46521607       0.55738246      -2.59292046
H       -2.46965245      -0.49945073      -0.68392060
19
Frame=11 idx=008068 GeodesicLength=1.0680662388937927 rxn_smarts="[C:1]([C:2]([C@@:3]([O:4][H:14])([C@@:5]([C:6]([H:16])([H:17])[H:18])([O:7][H:19])[H:15])[H:13])([H:11])[H:12])([H:8])([H:9])[H:10]>>[C:1]([C:2]([C@@:3]([O:4][H:14])([C:5](=[O:7])[H:15])[H:13])([H:11])[H:12])([H:8])([H:9])[H:10].[C:6]([H:16])([H:17])([H:18])[H:19]"
C        2.43979683       0.16810813       1.30515387
C        0.99429184       0.62358637       1.16948473
C        0.28224343      -0.05369823      -0.00001715
O        0.28399503      -1.45382827       0.12013917
C       -1.14288534       0.45650908      -0.11500297
C       -1.81398908      -0.27572542      -1.97171997
O       -2.02136582      -0.17870341       0.63931083
H        2.49248422      -0.91325605       1.43395662
H        3.01900345       0.42662204       0.41512599
H        2.91996531       0.63525322       2.16624765
H        0.43606428       0.40181896       2.08388478
H        0.95239385       1.70854690       1.02670554
H        0.80020144       0.19524845      -0.93545875
H       -0.50494609      -1.68058839       0.62959153
H       -1.21590532       1.55425273      -0.14738577
H       -1.15961995      -1.13329160      -2.12604316
H       -2.79780620      -0.49528271      -2.40069933
H       -1.45989924       0.53801316      -2.60750150
H       -2.50402265      -0.52358495      -0.68577212
19
Frame=12 idx=008068 GeodesicLength=1.1651164154495186 rxn_smarts="[C:1]([C:2]([C@@:3]([O:4][H:14])([C@@:5]([C:6]([H:16])([H:17])[H:18])([O:7][H:19])[H:15])[H:13])([H:11])[H:12])([H:8])([H:9])[H:10]>>[C:1]([C:2]([C@@:3]([O:4][H:14])([C:5](=[O:7])[H:15])[H:13])([H:11])[H:12])([H:8])([H:9])[H:10].[C:6]([H:16])([H:17])([H:18])[H:19]"
C        2.44572845       0.16665455       1.30643298
C        1.00064815       0.62541202       1.17719495
C        0.28429432      -0.04402571       0.00615717
O        0.28537657      -1.44498324       0.11892833
C       -1.13825811       0.47097453      -0.11055505
C       -1.82618678      -0.28213580      -1.97710142
O       -2.02305279      -0.17264435       0.62726365
H        2.49694519      -0.91531440       1.43073532
H        3.02239567       0.42760319       0.41546752
H        2.92966369       0.62921473       2.16789229
H        0.44439970       0.39987997       2.09190221
H        0.96063345       1.71119921       1.04030727
H        0.79967461       0.20894870      -0.93000002
H       -0.50535039      -1.67649999       0.62283427
H       -1.20993241       1.56920017      -0.12900506
H       -1.17225867      -1.14256215      -2.12094569
H       -2.80016871      -0.49877569      -2.42824060
H       -1.45567949       0.51822886      -2.62174797
H       -2.53887243      -0.55037458      -0.68752013
19
Frame=13 idx=008068 GeodesicLength=1.2620846913136585 rxn_smarts="[C:1]([C:2]([C@@:3]([O:4][H:14])([C@@:5]([C:6]([H:16])([H:17])[H:18])([O:7][H:19])[H:15])[H:13])([H:11])[H:12])([H:8])([H:9])[H:10]>>[C:1]([C:2]([C@@:3]([O:4][H:14])([C:5](=[O:7])[H:15])[H:13])([H:11])[H:12])([H:8])([H:9])[H:10].[C:6]([H:16])([H:17])([H:18])[H:19]"
C        2.45172384       0.16487144       1.30791177
C        1.00724153       0.62731613       1.18501950
C        0.28658898      -0.03379478       0.01223890
O        0.28656413      -1.43555962       0.11739160
C       -1.13307300       0.48667814      -0.10617311
C       -1.83904760      -0.28864580      -1.98226428
O       -2.02503455      -0.16579497       0.61323677
H        2.50113199      -0.91771610       1.42753172
H        3.02603330       0.42825737       0.41614259
H        2.93943859       0.62254673       2.16984731
H        0.45271951       0.39797423       2.09985001
H        0.96952306       1.71393850       1.05426787
H        0.79946777       0.22321917      -0.92456409
H       -0.50599761      -1.67159275       0.61567665
H       -1.20339239       1.58519248      -0.10998671
H       -1.18482190      -1.15119758      -2.11590576
H       -2.80232503      -0.50375539      -2.45547977
H       -1.45267034       0.49810692      -2.63562050
H       -2.57407027      -0.58004412      -0.68912047
19
Frame=14 idx=008068 GeodesicLength=1.3589733424641022 rxn_smarts="[C:1]([C:2]([C@@:3]([O:4][H:14])([C@@:5]([C:6]([H:16])([H:17])[H:18])([O:7][H:19])[H:15])[H:13])([H:11])[H:12])([H:8])([H:9])[H:10]>>[C:1]([C:2]([C@@:3]([O:4][H:14])([C:5](=[O:7])[H:15])[H:13])([H:11])[H:12])([H:8])([H:9])[H:10].[C:6]([H:16])([H:17])([H:18])[H:19]"
C        2.45777225       0.16273323       1.30960418
C        1.01407432       0.62930287       1.19295370
C        0.28913484      -0.02298078       0.01821870
O        0.28753886      -1.42552811       0.11552728
C       -1.12730267       0.50367176      -0.10186607
C       -1.85260763      -0.29527390      -1.98723088
O       -2.02730822      -0.15807089       0.59704580
H        2.50500887      -0.92048315       1.42436597
H        3.02992720       0.42854311       0.41717123
H        2.94927439       0.61521118       2.17213050
H        0.46100309       0.39612082       2.10771550
H        0.97909242       1.71676322       1.06858039
H        0.79960633       0.23807349      -0.91915460
H       -0.50691585      -1.66581061       0.60811903
H       -1.19626519       1.60225142      -0.09025915
H       -1.19725550      -1.15917817      -2.11097173
H       -2.80433476      -0.51030515      -2.48235093
H       -1.45098204       0.47773777      -2.64908960
H       -2.60946072      -0.61277812      -0.69050931
19
Frame=15 idx=008068 GeodesicLength=1.4558037923247358 rxn_smarts="[C:1]([C:2]([C@@:3]([O:4][H:14])([C@@:5]([C:6]([H:16])([H:17])[H:18])([O:7][H:19])[H:15])[H:13])([H:11])[H:12])([H:8])([H:9])[H:10]>>[C:1]([C:2]([C@@:3]([O:4][H:14])([C:5](=[O:7])[H:15])[H:13])([H:11])[H:12])([H:8])([H:9])[H:10].[C:6]([H:16])([H:17])([H:18])[H:19]"
C        2.46386075       0.16021749       1.31152078
C        1.02114440       0.63137494       1.20099220
C        0.29193463      -0.01156310       0.02408881
O        0.28828238      -1.41486355       0.11333552
C       -1.12092854       0.52199312      -0.09763757
C       -1.86689469      -0.30205531      -1.99203389
O       -2.02986256      -0.14939179       0.57851742
H        2.50854029      -0.92363424       1.42125488
H        3.03408237       0.42842346       0.41856846
H        2.95915438       0.60717526       2.17475494
H        0.46923093       0.39433683       2.11548762
H        0.98936229       1.71966962       1.08323665
H        0.80011014       0.25352305      -0.91377402
H       -0.50813290      -1.65910480       0.60016279
H       -1.18854546       1.62037905      -0.06974650
H       -1.20951283      -1.16649967      -2.10618878
H       -2.80625796      -0.51848451      -2.50879177
H       -1.45070415       0.45721279      -2.66213716
H       -2.64486348      -0.64870862      -0.69161038
19
Frame=16 idx=008068 GeodesicLength=1.5526351206600375 rxn_smarts="[C:1]([C:2]([C@@:3]([O:4][H:14])([C@@:5]([C:6]([H:16])([H:17])[H:18])([O:7][H:19])[H:15])[H:13])([H:11])[H:12])([H:8])([H:9])[H:10]>>[C:1]([C:2]([C@@:3]([O:4][H:14])([C:5](=[O:7])[H:15])[H:13])([H:11])[H:12])([H:8])([H:9])[H:10].[C:6]([H:16])([H:17])([H:18])[H:19]"
C        2.46997485       0.15730389       1.31366575
C        1.02844639       0.63353418       1.20912838
C        0.29498534       0.00047566       0.02984408
O        0.28877531      -1.40354364       0.11082040
C       -1.11394134       0.54166732      -0.09348407
C       -1.88193349      -0.30903394      -1.99671796
O       -2.03267596      -0.13967753       0.55748726
H        2.51169244      -0.92718540       1.41821027
H        3.03849900       0.42786387       0.42034051
H        2.96906057       0.59840862       2.17772595
H        0.47738277       0.39263744       2.12315719
H        1.00034489       1.72265194       1.09822548
H        0.80099090       0.26957788      -0.90842333
H       -0.50967754      -1.65143116       0.59181233
H       -1.18024854       1.63955691      -0.04834749
H       -1.22155026      -1.17317760      -2.10159786
H       -2.80814494      -0.52834719      -2.53475593
H       -1.45190278       0.43662327      -2.67476029
H       -2.68007759      -0.68790452      -0.69233070
