13
Frame=0 idx=002202 GeodesicLength=0.0 rxn_smarts="[C:1]([C:2](=[O:3])[C@@:4]1([H:10])[C:5]([H:11])([H:12])[N:6]1[H:13])([H:7])([H:8])[H:9]>>[C:1]([C:2](=[O:3])[C@@:4]1([H:10])[C-:5]([H:11])[N+:6]1([H:12])[H:13])([H:7])([H:8])[H:9]"
C        1.87777241      -0.24844539       0.48503608
C        0.60924887       0.45443340       0.09894418
O        0.45027335       1.64516073       0.22669475
C       -0.49069646      -0.42031726      -0.44163174
C       -1.71180513      -0.52493440       0.41195286
N       -1.53684956       0.32841980      -1.10276377
H        2.39017993      -0.58309240      -0.42076348
H        1.65282408      -1.13949661       1.07494793
H        2.52639581       0.42288429       1.04231079
H       -0.15160482      -1.30366462      -0.97696420
H       -1.69425835       0.29019852       1.14431794
H       -2.46264775      -0.23204469      -0.69502924
H       -1.45883234       1.31089861      -0.84705210
13
Frame=1 idx=002202 GeodesicLength=0.05458397806346365 rxn_smarts="[C:1]([C:2](=[O:3])[C@@:4]1([H:10])[C:5]([H:11])([H:12])[N:6]1[H:13])([H:7])([H:8])[H:9]>>[C:1]([C:2](=[O:3])[C@@:4]1([H:10])[C-:5]([H:11])[N+:6]1([H:12])[H:13])([H:7])([H:8])[H:9]"
C        1.88047675      -0.24909657       0.48508046
C        0.61222269       0.45494542       0.09975385
O        0.45469454       1.64595318       0.22837183
C       -0.48813410      -0.41787130      -0.44079326
C       -1.71469771      -0.51518787       0.40603064
N       -1.54014941       0.33170060      -1.09171192
H        2.39065035      -0.58734221      -0.42063000
H        1.65512909      -1.13797814       1.07810895
H        2.53128971       0.42264612       1.03931354
H       -0.15296518      -1.30138303      -0.97805020
H       -1.69722223       0.29198870       1.14643944
H       -2.47397662      -0.25394323      -0.70785560
H       -1.45731788       1.31556834      -0.84405772
13
Frame=2 idx=002202 GeodesicLength=0.1091495741254852 rxn_smarts="[C:1]([C:2](=[O:3])[C@@:4]1([H:10])[C:5]([H:11])([H:12])[N:6]1[H:13])([H:7])([H:8])[H:9]>>[C:1]([C:2](=[O:3])[C@@:4]1([H:10])[C-:5]([H:11])[N+:6]1([H:12])[H:13])([H:7])([H:8])[H:9]"
C        1.88308945      -0.24973434       0.48510200
C        0.61510496       0.45547421       0.10055526
O        0.45896618       1.64674434       0.23013484
C       -0.48569455      -0.41538258      -0.43994789
C       -1.71765181      -0.50551577       0.40015761
N       -1.54355518       0.33494313      -1.08074255
H        2.39101159      -0.59156668      -0.42051709
H        1.65735827      -1.13644443       1.08123400
H        2.53609184       0.42241147       1.03628489
H       -0.15442672      -1.29903633      -0.97913284
H       -1.70015925       0.29348041       1.14869821
H       -2.48457946      -0.27556618      -0.72029382
H       -1.45555532       1.32019274      -0.84153261
13
Frame=3 idx=002202 GeodesicLength=0.1636523501390815 rxn_smarts="[C:1]([C:2](=[O:3])[C@@:4]1([H:10])[C:5]([H:11])([H:12])[N:6]1[H:13])([H:7])([H:8])[H:9]>>[C:1]([C:2](=[O:3])[C@@:4]1([H:10])[C-:5]([H:11])[N+:6]1([H:12])[H:13])([H:7])([H:8])[H:9]"
C        1.88560646      -0.25035829       0.48510195
C        0.61789438       0.45601140       0.10134722
O        0.46308608       1.64751835       0.23197279
C       -0.48336822      -0.41285647      -0.43909737
C       -1.72063799      -0.49592711       0.39433493
N       -1.54702798       0.33814918      -1.06987941
H        2.39125508      -0.59575704      -0.42042007
H        1.65951671      -1.13489267       1.08432428
H        2.54079001       0.42217697       1.03322564
H       -0.15597778      -1.29662407      -0.98020492
H       -1.70306742       0.29467798       1.15106006
H       -2.49449627      -0.29686558      -0.73231973
H       -1.45357308       1.32474735      -0.83944536
13
Frame=4 idx=002202 GeodesicLength=0.21814932195399564 rxn_smarts="[C:1]([C:2](=[O:3])[C@@:4]1([H:10])[C:5]([H:11])([H:12])[N:6]1[H:13])([H:7])([H:8])[H:9]>>[C:1]([C:2](=[O:3])[C@@:4]1([H:10])[C-:5]([H:11])[N+:6]1([H:12])[H:13])([H:7])([H:8])[H:9]"
C        1.88804906      -0.25097116       0.48508078
C        0.62059960       0.45655609       0.10214742
O        0.46706647       1.64828396       0.23390105
C       -0.48114803      -0.41029976      -0.43824245
C       -1.72366558      -0.48642760       0.38855401
N       -1.55053521       0.34133223      -1.05914485
H        2.39139827      -0.59993162      -0.42034340
H        1.66162431      -1.13332107       1.08739368
H        2.54542151       0.42195207       1.03011608
H       -0.15760329      -1.29416315      -0.98126327
H       -1.70599600       0.29560213       1.15349170
H       -2.50380420      -0.31783998      -0.74393884
H       -1.45140691       1.32922788      -0.83775191
13
Frame=5 idx=002202 GeodesicLength=0.2726377801670244 rxn_smarts="[C:1]([C:2](=[O:3])[C@@:4]1([H:10])[C:5]([H:11])([H:12])[N:6]1[H:13])([H:7])([H:8])[H:9]>>[C:1]([C:2](=[O:3])[C@@:4]1([H:10])[C-:5]([H:11])[N+:6]1([H:12])[H:13])([H:7])([H:8])[H:9]"
C        1.89042156      -0.25157297       0.48503838
C        0.62322153       0.45710196       0.10297143
O        0.47091063       1.64903135       0.23593209
C       -0.47902554      -0.40771559      -0.43737707
C       -1.72672416      -0.47701737       0.38281230
N       -1.55404201       0.34449843      -1.04855715
H        2.39143037      -0.60409293      -0.42029141
H        1.66369670      -1.13172404       1.09045028
H        2.55000050       0.42173908       1.02693583
H       -0.15929471      -1.29165319      -0.98230214
H       -1.70896941       0.29627038       1.15596348
H       -2.51255261      -0.33848046      -0.75515786
H       -1.44907285       1.33361534      -0.83641815
13
Frame=6 idx=002202 GeodesicLength=0.32711177480494885 rxn_smarts="[C:1]([C:2](=[O:3])[C@@:4]1([H:10])[C:5]([H:11])([H:12])[N:6]1[H:13])([H:7])([H:8])[H:9]>>[C:1]([C:2](=[O:3])[C@@:4]1([H:10])[C-:5]([H:11])[N+:6]1([H:12])[H:13])([H:7])([H:8])[H:9]"
C        1.89272924      -0.25216404       0.48497796
C        0.62576768       0.45764779       0.10380789
O        0.47462731       1.64976196       0.23804454
C       -0.47699112      -0.40511186      -0.43650817
C       -1.72979597      -0.46770135       0.37711149
N       -1.55752591       0.34765084      -1.03812877
H        2.39137070      -0.60823201      -0.42025604
H        1.66573523      -1.13011174       1.09348419
H        2.55451525       0.42153355       1.02371162
H       -0.16103911      -1.28910330      -0.98332507
H       -1.71198748       0.29669546       1.15845046
H       -2.52080341      -0.35877240      -0.76595300
H       -1.44660241       1.33790709      -0.83541710
13
Frame=7 idx=002202 GeodesicLength=0.38157660817163186 rxn_smarts="[C:1]([C:2](=[O:3])[C@@:4]1([H:10])[C:5]([H:11])([H:12])[N:6]1[H:13])([H:7])([H:8])[H:9]>>[C:1]([C:2](=[O:3])[C@@:4]1([H:10])[C-:5]([H:11])[N+:6]1([H:12])[H:13])([H:7])([H:8])[H:9]"
C        1.89498085      -0.25274517       0.48490269
C        0.62824592       0.45819213       0.10465616
O        0.47822689       1.65047575       0.24023381
C       -0.47503686      -0.40249209      -0.43564116
C       -1.73287262      -0.45847978       0.37144808
N       -1.56096867       0.35079539      -1.02787304
H        2.39123130      -0.61235048      -0.42023356
H        1.66774658      -1.12848482       1.09649745
H        2.55897297       0.42133543       1.02045074
H       -0.16282760      -1.28651810      -0.98433829
H       -1.71506293       0.29689403       1.16093203
H       -2.52861787      -0.37871912      -0.77631857
H       -1.44401794       1.34209680      -0.83471634
13
Frame=8 idx=002202 GeodesicLength=0.43600923564711513 rxn_smarts="[C:1]([C:2](=[O:3])[C@@:4]1([H:10])[C:5]([H:11])([H:12])[N:6]1[H:13])([H:7])([H:8])[H:9]>>[C:1]([C:2](=[O:3])[C@@:4]1([H:10])[C-:5]([H:11])[N+:6]1([H:12])[H:13])([H:7])([H:8])[H:9]"
C        1.89718017      -0.25331741       0.48481371
C        0.63066004       0.45873260       0.10551753
O        0.48171584       1.65117036       0.24249690
C       -0.47315581      -0.39985961      -0.43477801
C       -1.73594601      -0.44935147       0.36581813
N       -1.56435117       0.35393781      -1.01779946
H        2.39101670      -0.61644775      -0.42022223
H        1.66973533      -1.12684467       1.09949063
H        2.56337554       0.42114357       1.01715477
H       -0.16465271      -1.28390085      -0.98534231
H       -1.71820430       0.29688257       1.16338754
H       -2.53603620      -0.39832966      -0.78625130
H       -1.44133740       1.34618452      -0.83428590
13
Frame=9 idx=002202 GeodesicLength=0.4904558654727944 rxn_smarts="[C:1]([C:2](=[O:3])[C@@:4]1([H:10])[C:5]([H:11])([H:12])[N:6]1[H:13])([H:7])([H:8])[H:9]>>[C:1]([C:2](=[O:3])[C@@:4]1([H:10])[C-:5]([H:11])[N+:6]1([H:12])[H:13])([H:7])([H:8])[H:9]"
C        1.89933389      -0.25388257       0.48471003
C        0.63301580       0.45926918       0.10640362
O        0.48510309       1.65184517       0.24484461
C       -0.47133852      -0.39721074      -0.43391327
C       -1.73901070      -0.44030939       0.36021821
N       -1.56765292       0.35709155      -1.00791209
H        2.39072331      -0.62053480      -0.42022401
H        1.67170992      -1.12518675       1.10247218
H        2.56773965       0.42095578       1.01380728
H       -0.16650504      -1.28124563      -0.98633423
H       -1.72143177       0.29667715       1.16579617
H       -2.54311291      -0.41763883      -0.79577008
H       -1.43857380       1.35016988      -0.83409842
13
Frame=10 idx=002202 GeodesicLength=0.5449023237740126 rxn_smarts="[C:1]([C:2](=[O:3])[C@@:4]1([H:10])[C:5]([H:11])([H:12])[N:6]1[H:13])([H:7])([H:8])[H:9]>>[C:1]([C:2](=[O:3])[C@@:4]1([H:10])[C-:5]([H:11])[N+:6]1([H:12])[H:13])([H:7])([H:8])[H:9]"
C        1.90145101      -0.25444242       0.48459430
C        0.63531838       0.45980113       0.10731696
O        0.48839672       1.65250258       0.24727828
C       -0.46958094      -0.39454866      -0.43305046
C       -1.74206662      -0.43135101       0.35464138
N       -1.57086579       0.36026329      -0.99821850
H        2.39036045      -0.62461639      -0.42023647
H        1.67367979      -1.12351292       1.10544564
H        2.57207660       0.42077321       1.01040943
H       -0.16838000      -1.27855815      -0.98731877
H       -1.72475747       0.29629544       1.16814191
H       -2.54988841      -0.43666748      -0.80487699
H       -1.43574373       1.35406137      -0.83412671
13
Frame=11 idx=002202 GeodesicLength=0.5993291176315847 rxn_smarts="[C:1]([C:2](=[O:3])[C@@:4]1([H:10])[C:5]([H:11])([H:12])[N:6]1[H:13])([H:7])([H:8])[H:9]>>[C:1]([C:2](=[O:3])[C@@:4]1([H:10])[C-:5]([H:11])[N+:6]1([H:12])[H:13])([H:7])([H:8])[H:9]"
C        1.90352964      -0.25499722       0.48446745
C        0.63756970       0.46032620       0.10825720
O        0.49160182       1.65313775       0.24979417
C       -0.46787608      -0.39187378      -0.43219199
C       -1.74510469      -0.42247388       0.34908266
N       -1.57397404       0.36345972      -0.98872255
H        2.38992486      -0.62869192      -0.42025708
H        1.67564391      -1.12182143       1.10841412
H        2.57638245       0.42059457       1.00695836
H       -0.17027181      -1.27583560      -0.98829741
H       -1.72818238       0.29574641       1.17040981
H       -2.55639269      -0.45543421      -0.81356892
H       -1.43285067       1.35786340      -0.83434582
13
Frame=12 idx=002202 GeodesicLength=0.6537596394089101 rxn_smarts="[C:1]([C:2](=[O:3])[C@@:4]1([H:10])[C:5]([H:11])([H:12])[N:6]1[H:13])([H:7])([H:8])[H:9]>>[C:1]([C:2](=[O:3])[C@@:4]1([H:10])[C-:5]([H:11])[N+:6]1([H:12])[H:13])([H:7])([H:8])[H:9]"
C        1.90557815      -0.25554934       0.48433220
C        0.63977857       0.46084547       0.10922075
O        0.49473272       1.65375536       0.25238389
C       -0.46621840      -0.38918600      -0.43134207
C       -1.74812079      -0.41366753       0.34354003
N       -1.57697357       0.36668837      -0.97942865
H        2.38943659      -0.63275001      -0.42028462
H        1.67760643      -1.12012547       1.11136340
H        2.58065598       0.42041245       1.00348076
H       -0.17217702      -1.27308259      -0.98927451
H       -1.73171287       0.29505311       1.17258836
H       -2.56267606      -0.47397385      -0.82184012
H       -1.42990973       1.36158002      -0.83473942
13
Frame=13 idx=002202 GeodesicLength=0.708181591069907 rxn_smarts="[C:1]([C:2](=[O:3])[C@@:4]1([H:10])[C:5]([H:11])([H:12])[N:6]1[H:13])([H:7])([H:8])[H:9]>>[C:1]([C:2](=[O:3])[C@@:4]1([H:10])[C-:5]([H:11])[N+:6]1([H:12])[H:13])([H:7])([H:8])[H:9]"
C        1.90759836      -0.25609969       0.48418760
C        0.64194659       0.46135561       0.11020903
O        0.49779541       1.65435362       0.25503754
C       -0.46460332      -0.38648981      -0.43049816
C       -1.75110990      -0.40492401       0.33801244
N       -1.57985098       0.36995225      -0.97033901
H        2.38890598      -0.63676826      -0.42032371
H        1.67957400      -1.11844188       1.11427387
H        2.58488400       0.42022076       0.99999858
H       -0.17409152      -1.27030718      -0.99023995
H       -1.73535067       0.29423610       1.17466207
H       -2.56877202      -0.49230526      -0.82968601
H       -1.42692592       1.36521774      -0.83529428
13
Frame=14 idx=002202 GeodesicLength=0.7626034301747682 rxn_smarts="[C:1]([C:2](=[O:3])[C@@:4]1([H:10])[C:5]([H:11])([H:12])[N:6]1[H:13])([H:7])([H:8])[H:9]>>[C:1]([C:2](=[O:3])[C@@:4]1([H:10])[C-:5]([H:11])[N+:6]1([H:12])[H:13])([H:7])([H:8])[H:9]"
C        1.90959580      -0.25664997       0.48403624
C        0.64407954       0.46185891       0.11122464
O        0.50079742       1.65493344       0.25776863
C       -0.46302673      -0.38377794      -0.42966549
C       -1.75407502      -0.39623820       0.33248665
N       -1.58260551       0.37326523      -0.96145620
H        2.38832812      -0.64077393      -0.42036757
H        1.68154757      -1.11675527       1.11716838
H        2.58908950       0.42002148       0.99648891
H       -0.17601199      -1.26749771      -0.99120815
H       -1.73910790       0.29329917       1.17662342
H       -2.57470603      -0.51047374      -0.83711392
H       -1.42390477       1.36878854      -0.83598555
13
Frame=15 idx=002202 GeodesicLength=0.8170210768917433 rxn_smarts="[C:1]([C:2](=[O:3])[C@@:4]1([H:10])[C:5]([H:11])([H:12])[N:6]1[H:13])([H:7])([H:8])[H:9]>>[C:1]([C:2](=[O:3])[C@@:4]1([H:10])[C-:5]([H:11])[N+:6]1([H:12])[H:13])([H:7])([H:8])[H:9]"
C        1.91156860      -0.25720248       0.48387744
C        0.64617746       0.46235662       0.11227515
O        0.50374174       1.65549453       0.26058717
C       -0.46148496      -0.38104578      -0.42884208
C       -1.75701281      -0.38760381       0.32695966
N       -1.58523081       0.37663800      -0.95277743
H        2.38769169      -0.64477648      -0.42041756
H        1.68352635      -1.11506267       1.12005478
H        2.59327882       0.41981255       0.99293590
H       -0.17793663      -1.26464548      -0.99218160
H       -1.74298842       0.29225405       1.17846137
H       -2.58048819      -0.52852632      -0.84413506
H       -1.42084283       1.37230728      -0.83679773
13
Frame=16 idx=002202 GeodesicLength=0.8714392115432723 rxn_smarts="[C:1]([C:2](=[O:3])[C@@:4]1([H:10])[C:5]([H:11])([H:12])[N:6]1[H:13])([H:7])([H:8])[H:9]>>[C:1]([C:2](=[O:3])[C@@:4]1([H:10])[C-:5]([H:11])[N+:6]1([H:12])[H:13])([H:7])([H:8])[H:9]"
C        1.91352167      -0.25775936       0.48371219
C        0.64824585       0.46284949       0.11335876
O        0.50663917       1.65604056       0.26348761
C       -0.45997460      -0.37829274      -0.42803100
C       -1.75992351      -0.37901001       0.32142691
N       -1.58772502       0.38007585      -0.94430544
H        2.38701369      -0.64876068      -0.42047524
H        1.68551145      -1.11337937       1.12291560
H        2.59744669       0.41958634       0.98936451
H       -0.17986377      -1.26175381      -0.99316248
H       -1.74699855       0.29112125       1.18016692
H       -2.58614815      -0.54649879      -0.85073576
H       -1.41774491       1.37578128      -0.83772257
