12
Frame=0 idx=009758 GeodesicLength=0.0 rxn_smarts="[O:1]=[C:2]1[C:3]([H:8])([H:9])[C:4]([H:10])([H:11])[N:5]=[C:6]([H:12])[O:7]1>>[C:4](=[N:5][C:6](=[O:7])[H:12])([H:10])[H:11].[O:1]=[C:2]=[C:3]([H:8])[H:9]"
O       -1.24560077       2.19383764      -0.73666220
C       -1.15689213       1.27212560      -0.07785522
C       -1.23133111       0.09083671       0.58137521
C        0.02908575      -1.09822984      -0.48100333
N        1.22306255      -1.04966460       0.08667313
C        1.82962849       0.14662625       0.08372446
O        1.26437488       1.22911787      -0.10285466
H       -0.70305044       0.05197646       1.52428597
H       -2.22759697      -0.33929531       0.55728659
H       -0.12952232      -0.61500761      -1.44855987
H       -0.54968090      -2.00542407      -0.32843687
H        2.89752295       0.12310094       0.34202677
12
Frame=1 idx=009758 GeodesicLength=0.06101492709174842 rxn_smarts="[O:1]=[C:2]1[C:3]([H:8])([H:9])[C:4]([H:10])([H:11])[N:5]=[C:6]([H:12])[O:7]1>>[C:4](=[N:5][C:6](=[O:7])[H:12])([H:10])[H:11].[O:1]=[C:2]=[C:3]([H:8])[H:9]"
O       -1.24112682       2.18137486      -0.75282181
C       -1.13111791       1.28393815      -0.06069440
C       -1.23738220       0.09422569       0.58516609
C        0.03023197      -1.10506277      -0.48083691
N        1.22993585      -1.05034998       0.07843640
C        1.82627290       0.14943758       0.08922016
O        1.25141273       1.23432100      -0.07287657
H       -0.72329989       0.04456132       1.53588320
H       -2.24164809      -0.31571885       0.55055662
H       -0.12966679      -0.62670986      -1.45077103
H       -0.53581500      -2.02092713      -0.33168526
H        2.90220326       0.13091000       0.31042351
12
Frame=2 idx=009758 GeodesicLength=0.12199030498143575 rxn_smarts="[O:1]=[C:2]1[C:3]([H:8])([H:9])[C:4]([H:10])([H:11])[N:5]=[C:6]([H:12])[O:7]1>>[C:4](=[N:5][C:6](=[O:7])[H:12])([H:10])[H:11].[O:1]=[C:2]=[C:3]([H:8])[H:9]"
O       -1.23565467       2.17098180      -0.76457158
C       -1.10628193       1.29459081      -0.04553719
C       -1.24372440       0.09786970       0.58801146
C        0.03158414      -1.11254152      -0.48032279
N        1.23688307      -1.05104880       0.07054972
C        1.82304767       0.15197431       0.09445853
O        1.23874654       1.23865091      -0.04371604
H       -0.74423806       0.03866618       1.54642816
H       -2.25543460      -0.29196181       0.54365151
H       -0.12942609      -0.63989164      -1.45304690
H       -0.52121978      -2.03710952      -0.33443305
H        2.90571811       0.13981957       0.27852817
12
Frame=3 idx=009758 GeodesicLength=0.18293697733292316 rxn_smarts="[O:1]=[C:2]1[C:3]([H:8])([H:9])[C:4]([H:10])([H:11])[N:5]=[C:6]([H:12])[O:7]1>>[C:4](=[N:5][C:6](=[O:7])[H:12])([H:10])[H:11].[O:1]=[C:2]=[C:3]([H:8])[H:9]"
O       -1.22940144       2.16262011      -0.77269240
C       -1.08226196       1.30420013      -0.03196927
C       -1.25020639       0.10171160       0.59014119
C        0.03306679      -1.12063430      -0.47961094
N        1.24394006      -1.05179380       0.06260793
C        1.81999142       0.15422994       0.09902344
O        1.22638717       1.24214760      -0.01559247
H       -0.76551772       0.03413229       1.55607658
H       -2.26885313      -0.26805133       0.53682354
H       -0.12908830      -0.65441610      -1.45543943
H       -0.50593835      -2.05393362      -0.33680266
H        2.90788185       0.14978749       0.24743448
12
Frame=4 idx=009758 GeodesicLength=0.24394133918691474 rxn_smarts="[O:1]=[C:2]1[C:3]([H:8])([H:9])[C:4]([H:10])([H:11])[N:5]=[C:6]([H:12])[O:7]1>>[C:4](=[N:5][C:6](=[O:7])[H:12])([H:10])[H:11].[O:1]=[C:2]=[C:3]([H:8])[H:9]"
O       -1.22253978       2.15600809      -0.77801515
C       -1.05896633       1.31292241      -0.01959858
C       -1.25674099       0.10572306       0.59178717
C        0.03461105      -1.12928063      -0.47883910
N        1.25110782      -1.05259170       0.05430183
C        1.81710548       0.15623715       0.10268271
O        1.21435026       1.24489378       0.01144662
H       -0.78691872       0.03080571       1.56503719
H       -2.28185567      -0.24399422       0.53031149
H       -0.12886482      -0.67008707      -1.45800735
H       -0.49002429      -2.07133645      -0.33896613
H        2.90873598       0.16069987       0.21785931
12
Frame=5 idx=009758 GeodesicLength=0.3046962780851467 rxn_smarts="[O:1]=[C:2]1[C:3]([H:8])([H:9])[C:4]([H:10])([H:11])[N:5]=[C:6]([H:12])[O:7]1>>[C:4](=[N:5][C:6](=[O:7])[H:12])([H:10])[H:11].[O:1]=[C:2]=[C:3]([H:8])[H:9]"
O       -1.21544881       2.15076316      -0.78106265
C       -1.03633740       1.32079184      -0.00816170
C       -1.26311218       0.10990489       0.59309695
C        0.03611949      -1.13830128      -0.47813012
N        1.25844186      -1.05335597       0.04502723
C        1.81440902       0.15805217       0.10476083
O        1.20265278       1.24702214       0.03694946
H       -0.80791122       0.02863928       1.57319909
H       -2.29426998      -0.21985943       0.52445958
H       -0.12919315      -0.68670788      -1.46070060
H       -0.47352903      -2.08911133      -0.34098408
H        2.90817862       0.17216241       0.19154602
12
Frame=6 idx=009758 GeodesicLength=0.3654770417167932 rxn_smarts="[O:1]=[C:2]1[C:3]([H:8])([H:9])[C:4]([H:10])([H:11])[N:5]=[C:6]([H:12])[O:7]1>>[C:4](=[N:5][C:6](=[O:7])[H:12])([H:10])[H:11].[O:1]=[C:2]=[C:3]([H:8])[H:9]"
O       -1.20799199       2.14658676      -0.78245993
C       -1.01435166       1.32800078       0.00256155
C       -1.26946464       0.11424302       0.59420442
C        0.03758698      -1.14772611      -0.47751139
N        1.26585371      -1.05410805       0.03500787
C        1.81179949       0.15970515       0.10573531
O        1.19122160       1.24849871       0.06149191
H       -0.82878482       0.02748200       1.58093390
H       -2.30624659      -0.19554600       0.51918211
H       -0.12993984      -0.70413988      -1.46356795
H       -0.45645912      -2.10728165      -0.34303998
H        2.90677687       0.18428526       0.16746219
12
Frame=7 idx=009758 GeodesicLength=0.42629741546374067 rxn_smarts="[O:1]=[C:2]1[C:3]([H:8])([H:9])[C:4]([H:10])([H:11])[N:5]=[C:6]([H:12])[O:7]1>>[C:4](=[N:5][C:6](=[O:7])[H:12])([H:10])[H:11].[O:1]=[C:2]=[C:3]([H:8])[H:9]"
O       -1.19984182       2.14330613      -0.78261707
C       -0.99296597       1.33461119       0.01283996
C       -1.27607270       0.11868454       0.59504563
C        0.03913619      -1.15744942      -0.47666433
N        1.27329044      -1.05478701       0.02491079
C        1.80925606       0.16124447       0.10653856
O        1.18005412       1.24941603       0.08619497
H       -0.85017570       0.02712400       1.58831507
H       -2.31808187      -0.17108555       0.51387909
H       -0.13066761      -0.72218619      -1.46626851
H       -0.43870094      -2.12577965      -0.34512386
H        2.90476979       0.19690145       0.14294970
12
Frame=8 idx=009758 GeodesicLength=0.48706247511155176 rxn_smarts="[O:1]=[C:2]1[C:3]([H:8])([H:9])[C:4]([H:10])([H:11])[N:5]=[C:6]([H:12])[O:7]1>>[C:4](=[N:5][C:6](=[O:7])[H:12])([H:10])[H:11].[O:1]=[C:2]=[C:3]([H:8])[H:9]"
O       -1.19125433       2.14069940      -0.78173665
C       -0.97211152       1.34067867       0.02273367
C       -1.28273645       0.12325614       0.59573788
C        0.04066947      -1.16744491      -0.47575984
N        1.28076427      -1.05539093       0.01420093
C        1.80675808       0.16268798       0.10659589
O        1.16915225       1.24981859       0.11048388
H       -0.87163798       0.02758438       1.59531097
H       -2.32957365      -0.14650614       0.50894318
H       -0.13173689      -0.74081078      -1.46891538
H       -0.42034553      -2.14451662      -0.34730160
H        2.90205227       0.20994423       0.11970706
12
Frame=9 idx=009758 GeodesicLength=0.5478236280343578 rxn_smarts="[O:1]=[C:2]1[C:3]([H:8])([H:9])[C:4]([H:10])([H:11])[N:5]=[C:6]([H:12])[O:7]1>>[C:4](=[N:5][C:6](=[O:7])[H:12])([H:10])[H:11].[O:1]=[C:2]=[C:3]([H:8])[H:9]"
O       -1.18213678       2.13855914      -0.78012322
C       -0.95177361       1.34625637       0.03240780
C       -1.28951284       0.12794949       0.59634854
C        0.04218527      -1.17769287      -0.47479678
N        1.28826374      -1.05586105       0.00289085
C        1.80429406       0.16408617       0.10592086
O        1.15850128       1.24967889       0.13464489
H       -0.89325567       0.02878983       1.60204837
H       -2.34081062      -0.12172828       0.50429644
H       -0.13317068      -0.75995858      -1.47147113
H       -0.40134102      -2.16347786      -0.34961842
H        2.89875688       0.22339875       0.09745180
12
Frame=10 idx=009758 GeodesicLength=0.6085612826308325 rxn_smarts="[O:1]=[C:2]1[C:3]([H:8])([H:9])[C:4]([H:10])([H:11])[N:5]=[C:6]([H:12])[O:7]1>>[C:4](=[N:5][C:6](=[O:7])[H:12])([H:10])[H:11].[O:1]=[C:2]=[C:3]([H:8])[H:9]"
O       -1.17257904       2.13679120      -0.77789320
C       -0.93191968       1.35140109       0.04190114
C       -1.29636417       0.13277981       0.59691713
C        0.04368308      -1.18817916      -0.47379203
N        1.29577629      -1.05618928      -0.00911389
C        1.80183189       0.16545943       0.10454169
O        1.14808796       1.24903657       0.15856956
H       -0.91495913       0.03072845       1.60854401
H       -2.35174664      -0.09679914       0.49998706
H       -0.13501812      -0.77958892      -1.47393411
H       -0.38170619      -2.18260741      -0.35211124
H        2.89491378       0.23716736       0.07638386
12
Frame=11 idx=009758 GeodesicLength=0.6692922722831769 rxn_smarts="[O:1]=[C:2]1[C:3]([H:8])([H:9])[C:4]([H:10])([H:11])[N:5]=[C:6]([H:12])[O:7]1>>[C:4](=[N:5][C:6](=[O:7])[H:12])([H:10])[H:11].[O:1]=[C:2]=[C:3]([H:8])[H:9]"
O       -1.16239784       2.13526539      -0.77521010
C       -0.91250164       1.35614001       0.05133764
C       -1.30337581       0.13773328       0.59743034
C        0.04518918      -1.19889745      -0.47266334
N        1.30328495      -1.05635180      -0.02167367
C        1.79935198       0.16682355       0.10264653
O        1.13790082       1.24784756       0.18267822
H       -0.93694997       0.03331235       1.61483138
H       -2.36246922      -0.07165879       0.49583993
H       -0.13720236      -0.79966216      -1.47620980
H       -0.36140240      -2.20187789      -0.35476888
H        2.89057230       0.25132596       0.05576174
12
Frame=12 idx=009758 GeodesicLength=0.7300370627994038 rxn_smarts="[O:1]=[C:2]1[C:3]([H:8])([H:9])[C:4]([H:10])([H:11])[N:5]=[C:6]([H:12])[O:7]1>>[C:4](=[N:5][C:6](=[O:7])[H:12])([H:10])[H:11].[O:1]=[C:2]=[C:3]([H:8])[H:9]"
O       -1.15151100       2.13386158      -0.77219516
C       -0.89346775       1.36050433       0.06081211
C       -1.31054753       0.14281111       0.59791425
C        0.04669338      -1.20984880      -0.47139373
N        1.31076408      -1.05630979      -0.03486005
C        1.79683024       0.16822172       0.10016036
O        1.12792219       1.24609330       0.20708155
H       -0.95924663       0.03649630       1.62093041
H       -2.37298210      -0.04628130       0.49180175
H       -0.13978905      -0.82018012      -1.47824889
H       -0.34040193      -2.22126644      -0.35758476
H        2.88573611       0.26589811       0.03558217
12
Frame=13 idx=009758 GeodesicLength=0.7907683075590146 rxn_smarts="[O:1]=[C:2]1[C:3]([H:8])([H:9])[C:4]([H:10])([H:11])[N:5]=[C:6]([H:12])[O:7]1>>[C:4](=[N:5][C:6](=[O:7])[H:12])([H:10])[H:11].[O:1]=[C:2]=[C:3]([H:8])[H:9]"
O       -1.14001036       2.13254103      -0.76889489
C       -0.87480807       1.36450932       0.07033246
C       -1.31785404       0.14801966       0.59839599
C        0.04820823      -1.22103292      -0.47002050
N        1.31821411      -1.05603344      -0.04876983
C        1.79423998       0.16967213       0.09707282
O        1.11815375       1.24376582       0.23163128
H       -0.98178366       0.04028797       1.62686335
H       -2.38325406      -0.02068301       0.48792703
H       -0.14283011      -0.84113506      -1.48007529
H       -0.31871650      -2.24072275      -0.36056577
H        2.88044073       0.28081127       0.01610336
12
Frame=14 idx=009758 GeodesicLength=0.8515259770052683 rxn_smarts="[O:1]=[C:2]1[C:3]([H:8])([H:9])[C:4]([H:10])([H:11])[N:5]=[C:6]([H:12])[O:7]1>>[C:4](=[N:5][C:6](=[O:7])[H:12])([H:10])[H:11].[O:1]=[C:2]=[C:3]([H:8])[H:9]"
O       -1.12765710       2.13121262      -0.76538790
C       -0.85645441       1.36818197       0.08002596
C       -1.32536681       0.15335766       0.59884778
C        0.04976751      -1.23246504      -0.46844707
N        1.32561017      -1.05551450      -0.06326420
C        1.79156705       0.17117765       0.09360087
O        1.10858399       1.24078516       0.25672837
H       -1.00477522       0.04460876       1.63263514
H       -2.39334560       0.00519001       0.48399468
H       -0.14623927      -0.86251539      -1.48158075
H       -0.29630619      -2.26023330      -0.36368548
H        2.87461588       0.29621441      -0.00346741
12
Frame=15 idx=009758 GeodesicLength=0.9123414515684157 rxn_smarts="[O:1]=[C:2]1[C:3]([H:8])([H:9])[C:4]([H:10])([H:11])[N:5]=[C:6]([H:12])[O:7]1>>[C:4](=[N:5][C:6](=[O:7])[H:12])([H:10])[H:11].[O:1]=[C:2]=[C:3]([H:8])[H:9]"
O       -1.11426580       2.12982158      -0.76170561
C       -0.83834423       1.37153760       0.08999385
C       -1.33312786       0.15882779       0.59924116
C        0.05140104      -1.24416821      -0.46660865
N        1.33294404      -1.05473196      -0.07830375
C        1.78879734       0.17274906       0.08983751
O        1.09920589       1.23705994       0.28264028
H       -1.02836410       0.04939226       1.63823287
H       -2.40328530       0.03140062       0.47984407
H       -0.14999928      -0.88434575      -1.48269036
H       -0.27312837      -2.27978425      -0.36688905
H        2.86816663       0.31224131      -0.02359231
12
Frame=16 idx=009758 GeodesicLength=0.9731859327709839 rxn_smarts="[O:1]=[C:2]1[C:3]([H:8])([H:9])[C:4]([H:10])([H:11])[N:5]=[C:6]([H:12])[O:7]1>>[C:4](=[N:5][C:6](=[O:7])[H:12])([H:10])[H:11].[O:1]=[C:2]=[C:3]([H:8])[H:9]"
O       -1.09992296       2.12831574      -0.75785915
C       -0.82045577       1.37457425       0.10024880
C       -1.34107752       0.16443769       0.59960806
C        0.05310796      -1.25614358      -0.46455869
N        1.34019268      -1.05364305      -0.09404425
C        1.78589596       0.17440247       0.08572344
O        1.09001789       1.23256872       0.30911615
H       -1.05243629       0.05467356       1.64365837
H       -2.41300089       0.05791864       0.47553770
H       -0.15419547      -0.90662943      -1.48342248
H       -0.24920695      -2.29932098      -0.37017341
H        2.86108137       0.32884596      -0.04383453
