11
Frame=0 idx=006126 GeodesicLength=0.0 rxn_smarts="[N:1]#[C:2][C:3]1([H:7])[C:4]([H:8])([H:9])[O:5][C:6]1([H:10])[H:11]>>[H:10][H:11].[N:1]#[C:2][C@@:3]1([H:7])[C:4]([H:8])([H:9])[O+:5]=[C-:6]1"
N        2.62814140      -0.57591949       0.60320522
C        1.57664573      -0.54385383       0.14504741
C        0.24479498      -0.51301288      -0.41846097
C       -0.97557049      -0.51836602       0.51529089
O       -1.54242360       0.54895475      -0.26554814
C       -0.39652045       0.79706029      -0.94959929
H        0.15884830      -1.26602783      -1.20384847
H       -0.74534868      -0.16404738       1.52458930
H       -1.60798141      -1.40557553       0.53671212
H        0.46026396       1.74930624       0.18121294
H        0.19915025       1.89148173      -0.66860104
11
Frame=1 idx=006126 GeodesicLength=0.061748562193450755 rxn_smarts="[N:1]#[C:2][C:3]1([H:7])[C:4]([H:8])([H:9])[O:5][C:6]1([H:10])[H:11]>>[H:10][H:11].[N:1]#[C:2][C@@:3]1([H:7])[C:4]([H:8])([H:9])[O+:5]=[C-:6]1"
N        2.62097748      -0.57243746       0.61632429
C        1.57218926      -0.54846934       0.15154991
C        0.24142722      -0.51286691      -0.41444674
C       -0.97872900      -0.53083057       0.51961568
O       -1.54531668       0.55048104      -0.24198814
C       -0.40261375       0.80057277      -0.93091849
H        0.15984076      -1.25710530      -1.20859967
H       -0.74918352      -0.19629792       1.53555456
H       -1.61216103      -1.41761291       0.52458882
H        0.48214938       1.77364941       0.15186207
H        0.21141988       1.91091721      -0.70354230
11
Frame=2 idx=006126 GeodesicLength=0.12344866253695758 rxn_smarts="[N:1]#[C:2][C:3]1([H:7])[C:4]([H:8])([H:9])[O:5][C:6]1([H:10])[H:11]>>[H:10][H:11].[N:1]#[C:2][C@@:3]1([H:7])[C:4]([H:8])([H:9])[O+:5]=[C-:6]1"
N        2.61359956      -0.56933417       0.63018829
C        1.56767151      -0.55263595       0.15872486
C        0.23805543      -0.51225609      -0.40986701
C       -0.98204862      -0.54387426       0.52408248
O       -1.54788030       0.55241063      -0.21644205
C       -0.40864479       0.80490523      -0.91048718
H        0.16107816      -1.24684366      -1.21338489
H       -0.75329321      -0.23078078       1.54676962
H       -1.61674383      -1.42972807       0.51126522
H        0.50506510       1.79860246       0.11995231
H        0.22314100       1.92953465      -0.74080165
11
Frame=3 idx=006126 GeodesicLength=0.18505899998156744 rxn_smarts="[N:1]#[C:2][C:3]1([H:7])[C:4]([H:8])([H:9])[O:5][C:6]1([H:10])[H:11]>>[H:10][H:11].[N:1]#[C:2][C@@:3]1([H:7])[C:4]([H:8])([H:9])[O+:5]=[C-:6]1"
N        2.60607444      -0.56655643       0.64478057
C        1.56309302      -0.55638147       0.16666750
C        0.23469818      -0.51114588      -0.40466126
C       -0.98554607      -0.55749009       0.52865901
O       -1.55003428       0.55475579      -0.18879150
C       -0.41450122       0.81015653      -0.88809512
H        0.16258084      -1.23511101      -1.21817312
H       -0.75772209      -0.26762028       1.55814018
H       -1.62179014      -1.44179500       0.49662347
H        0.52903507       1.82404801       0.08528354
H        0.23411225       1.94713982      -0.78043327
11
Frame=4 idx=006126 GeodesicLength=0.24652968595389224 rxn_smarts="[N:1]#[C:2][C:3]1([H:7])[C:4]([H:8])([H:9])[O:5][C:6]1([H:10])[H:11]>>[H:10][H:11].[N:1]#[C:2][C@@:3]1([H:7])[C:4]([H:8])([H:9])[O+:5]=[C-:6]1"
N        2.59847849      -0.56424664       0.66011185
C        1.55848128      -0.55970696       0.17546642
C        0.23140111      -0.50948798      -0.39877101
C       -0.98921299      -0.57164149       0.53330421
O       -1.55169883       0.55748337      -0.15898644
C       -0.42003222       0.81643481      -0.86352489
H        0.16439508      -1.22175953      -1.22292580
H       -0.76250685      -0.30685403       1.56953308
H       -1.62730736      -1.45366383       0.48058280
H        0.55403491       1.84985822       0.04763815
H        0.24396739       1.96358406      -0.82242838
11
Frame=5 idx=006126 GeodesicLength=0.30779528532176653 rxn_smarts="[N:1]#[C:2][C:3]1([H:7])[C:4]([H:8])([H:9])[O:5][C:6]1([H:10])[H:11]>>[H:10][H:11].[N:1]#[C:2][C@@:3]1([H:7])[C:4]([H:8])([H:9])[O+:5]=[C-:6]1"
N        2.59090619      -0.56221771       0.67611137
C        1.55383162      -0.56270822       0.18522438
C        0.22818379      -0.50725479      -0.39213414
C       -0.99307275      -0.58629046       0.53796694
O       -1.55278821       0.56058413      -0.12695007
C       -0.42506693       0.82386025      -0.83651248
H        0.16652765      -1.20663577      -1.22760896
H       -0.76770959      -0.34856285       1.58079921
H       -1.63336331      -1.46514691       0.46302320
H        0.58002650       1.87581341       0.00684900
H        0.25252504       1.97855892      -0.86676845
11
Frame=6 idx=006126 GeodesicLength=0.3688417141303329 rxn_smarts="[N:1]#[C:2][C:3]1([H:7])[C:4]([H:8])([H:9])[O:5][C:6]1([H:10])[H:11]>>[H:10][H:11].[N:1]#[C:2][C@@:3]1([H:7])[C:4]([H:8])([H:9])[O+:5]=[C-:6]1"
N        2.58340365      -0.56144656       0.69301918
C        1.54926751      -0.56522572       0.19599014
C        0.22518107      -0.50432034      -0.38470649
C       -0.99701650      -0.60132585       0.54259567
O       -1.55325126       0.56390641      -0.09280160
C       -0.42939386       0.83257065      -0.80682949
H        0.16912902      -1.18950384      -1.23218134
H       -0.77330218      -0.39254299       1.59173507
H       -1.63974388      -1.47608707       0.44397586
H        0.60682877       1.90185382      -0.03745022
H        0.25889766       1.99212147      -0.91334679
11
Frame=7 idx=006126 GeodesicLength=0.42960494037093233 rxn_smarts="[N:1]#[C:2][C:3]1([H:7])[C:4]([H:8])([H:9])[O:5][C:6]1([H:10])[H:11]>>[H:10][H:11].[N:1]#[C:2][C@@:3]1([H:7])[C:4]([H:8])([H:9])[O+:5]=[C-:6]1"
N        2.57603379      -0.56113974       0.71076289
C        1.54474200      -0.56752281       0.20788388
C        0.22237957      -0.50067038      -0.37640878
C       -1.00111110      -0.61672884       0.54712052
O       -1.55292483       0.56757195      -0.05623608
C       -0.43280274       0.84271264      -0.77407788
H        0.17215223      -1.17014368      -1.23661980
H       -0.77935399      -0.43914120       1.60217997
H       -1.64666914      -1.48618405       0.42313523
H        0.63445872       1.92757767      -0.08553762
H        0.26309547       2.00366844      -0.96220233
11
Frame=8 idx=006126 GeodesicLength=0.4901782120879106 rxn_smarts="[N:1]#[C:2][C:3]1([H:7])[C:4]([H:8])([H:9])[O:5][C:6]1([H:10])[H:11]>>[H:10][H:11].[N:1]#[C:2][C@@:3]1([H:7])[C:4]([H:8])([H:9])[O+:5]=[C-:6]1"
N        2.56876556      -0.56230907       0.72982989
C        1.54041281      -0.56946033       0.22097331
C        0.21994319      -0.49612336      -0.36716809
C       -1.00523452      -0.63240078       0.55146927
O       -1.55169277       0.57151736      -0.01715763
C       -0.43502534       0.85449944      -0.73782841
H        0.17577889      -1.14815575      -1.24089774
H       -0.78580293      -0.48836387       1.61189574
H       -1.65395434      -1.49520480       0.40037022
H        0.66276193       1.95286799      -0.13814621
H        0.26404752       2.01313318      -1.01334035
11
Frame=9 idx=006126 GeodesicLength=0.5505868843227572 rxn_smarts="[N:1]#[C:2][C:3]1([H:7])[C:4]([H:8])([H:9])[O:5][C:6]1([H:10])[H:11]>>[H:10][H:11].[N:1]#[C:2][C@@:3]1([H:7])[C:4]([H:8])([H:9])[O+:5]=[C-:6]1"
N        2.56166996      -0.56590447       0.75051429
C        1.53642867      -0.57098722       0.23539375
C        0.21806454      -0.49051570      -0.35688845
C       -1.00926728      -0.64816367       0.55553889
O       -1.54941643       0.57566465       0.02434557
C       -0.43564925       0.86813295      -0.69763252
H        0.18021957      -1.12315603      -1.24493184
H       -0.79265520      -0.54005294       1.62058957
H       -1.66140918      -1.50281345       0.37555426
H        0.69137746       1.97745658      -0.19591939
H        0.26063715       2.02033930      -1.06656414
11
Frame=10 idx=006126 GeodesicLength=0.6108803956107538 rxn_smarts="[N:1]#[C:2][C:3]1([H:7])[C:4]([H:8])([H:9])[O:5][C:6]1([H:10])[H:11]>>[H:10][H:11].[N:1]#[C:2][C@@:3]1([H:7])[C:4]([H:8])([H:9])[O+:5]=[C-:6]1"
N        2.55487828      -0.57240238       0.77297276
C        1.53291975      -0.57220598       0.25134604
C        0.21693008      -0.48368833      -0.34543821
C       -1.01314330      -0.66382579       0.55919082
O       -1.54590891       0.58004328       0.06827865
C       -0.43417233       0.88385895      -0.65289741
H        0.18567384      -1.09470991      -1.24861094
H       -0.79998917      -0.59418491       1.62792787
H       -1.66896216      -1.50856503       0.34840857
H        0.71983845       2.00090919      -0.25953161
H        0.25193549       2.02477093      -1.12164654
11
Frame=11 idx=006126 GeodesicLength=0.6711641425710803 rxn_smarts="[N:1]#[C:2][C:3]1([H:7])[C:4]([H:8])([H:9])[O:5][C:6]1([H:10])[H:11]>>[H:10][H:11].[N:1]#[C:2][C@@:3]1([H:7])[C:4]([H:8])([H:9])[O+:5]=[C-:6]1"
N        2.54825792      -0.58198009       0.79786892
C        1.53007146      -0.57340025       0.26896791
C        0.21678522      -0.47546289      -0.33270603
C       -1.01675874      -0.67918986       0.56220447
O       -1.54074886       0.58488921       0.11498514
C       -0.42989979       0.90198158      -0.60279970
H        0.19235082      -1.06224275      -1.25186196
H       -0.80774099      -0.65108512       1.63343983
H       -1.67666061      -1.51178442       0.31842403
H        0.74790197       2.02238102      -0.33028569
H        0.23644161       2.02589356      -1.17823692
11
Frame=12 idx=006126 GeodesicLength=0.7314599761726983 rxn_smarts="[N:1]#[C:2][C:3]1([H:7])[C:4]([H:8])([H:9])[O:5][C:6]1([H:10])[H:11]>>[H:10][H:11].[N:1]#[C:2][C@@:3]1([H:7])[C:4]([H:8])([H:9])[O+:5]=[C-:6]1"
N        2.54233583      -0.59721141       0.82471949
C        1.52824854      -0.57465204       0.28844196
C        0.21813591      -0.46580807      -0.31868714
C       -1.01980552      -0.69348897       0.56437281
O       -1.53399219       0.58985276       0.16242031
C       -0.42178027       0.92241359      -0.54751955
H        0.20081012      -1.02588910      -1.25433833
H       -0.81611507      -0.70857440       1.63668237
H       -1.68366069      -1.51202862       0.28622261
H        0.77341891       2.04153296      -0.40763881
H        0.21240442       2.02385330      -1.23467573
11
Frame=13 idx=006126 GeodesicLength=0.7914222959764252 rxn_smarts="[N:1]#[C:2][C:3]1([H:7])[C:4]([H:8])([H:9])[O:5][C:6]1([H:10])[H:11]>>[H:10][H:11].[N:1]#[C:2][C@@:3]1([H:7])[C:4]([H:8])([H:9])[O+:5]=[C-:6]1"
N        2.53735412      -0.61678857       0.85298026
C        1.52754546      -0.57655285       0.30968837
C        0.22117083      -0.45481493      -0.30349372
C       -1.02219654      -0.70619956       0.56537061
O       -1.52509550       0.59545084       0.21017345
C       -0.40910866       0.94494100      -0.48731789
H        0.21111314      -0.98597361      -1.25578055
H       -0.82510539      -0.76612351       1.63712440
H       -1.69022538      -1.50825296       0.25150611
H        0.79471902       2.05708866      -0.49065329
H        0.17982889       2.01722548      -1.28959773
11
Frame=14 idx=006126 GeodesicLength=0.85163609227163 rxn_smarts="[N:1]#[C:2][C:3]1([H:7])[C:4]([H:8])([H:9])[O:5][C:6]1([H:10])[H:11]>>[H:10][H:11].[N:1]#[C:2][C@@:3]1([H:7])[C:4]([H:8])([H:9])[O+:5]=[C-:6]1"
N        2.53323584      -0.64313166       0.88279249
C        1.52841335      -0.57949449       0.33257333
C        0.22652274      -0.44276899      -0.28740862
C       -1.02350844      -0.71645065       0.56497039
O       -1.51359206       0.60198649       0.25634440
C       -0.39087549       0.96889764      -0.42354127
H        0.22401419      -0.94342549      -1.25593845
H       -0.83464411      -0.82150065       1.63450642
H       -1.69556151      -1.49990997       0.21496496
H        0.80909511       2.06903304      -0.57828340
H        0.13690038       2.00676473      -1.34098024
11
Frame=15 idx=006126 GeodesicLength=0.9116134057915606 rxn_smarts="[N:1]#[C:2][C:3]1([H:7])[C:4]([H:8])([H:9])[O:5][C:6]1([H:10])[H:11]>>[H:10][H:11].[N:1]#[C:2][C@@:3]1([H:7])[C:4]([H:8])([H:9])[O+:5]=[C-:6]1"
N        2.53024913      -0.67297679       0.91252145
C        1.53069572      -0.58405147       0.35626685
C        0.23402693      -0.43055113      -0.27121101
C       -1.02375901      -0.72367991       0.56303241
O       -1.49889937       0.61016490       0.30003563
C       -0.36752459       0.99282690      -0.35965349
H        0.23919408      -0.90084903      -1.25467084
H       -0.84456831      -0.87328211       1.62871549
H       -1.70028338      -1.48623036       0.17739539
H        0.81443125       2.07671895      -0.66557770
H        0.08643755       1.99191006      -1.38685418
11
Frame=16 idx=006126 GeodesicLength=0.9716627558599824 rxn_smarts="[N:1]#[C:2][C:3]1([H:7])[C:4]([H:8])([H:9])[O:5][C:6]1([H:10])[H:11]>>[H:10][H:11].[N:1]#[C:2][C@@:3]1([H:7])[C:4]([H:8])([H:9])[O+:5]=[C-:6]1"
N        2.52776792      -0.70533925       0.94281436
C        1.53437709      -0.59060525       0.38029329
C        0.24374246      -0.41895058      -0.25544320
C       -1.02283005      -0.72763624       0.55947983
O       -1.48000443       0.62054185       0.34161660
C       -0.33930210       1.01543431      -0.29837838
H        0.25674523      -0.86010069      -1.25204386
H       -0.85447153      -0.92116965       1.61957436
H       -1.70473238      -1.46663324       0.13914743
H        0.80992215       2.08060695      -0.75080496
H        0.02878562       1.97385180      -1.42625547
