8
Frame=0 idx=001236 GeodesicLength=0.0 rxn_smarts="[n:1]1([H:6])[c:2]([H:7])[n:3][n:4][c:5]1[H:8]>>[N:1](=[C:5](/[C-:2]([N+:3]#[N:4])[H:7])[H:8])\[H:6]"
N       -0.25696560       1.42857516       0.53299176
C        0.85345231      -0.83548466      -0.58927223
N        0.46285358      -1.75359058       0.26420218
N       -0.32721511      -0.92536178       0.86762908
C       -0.57244603       0.28706484       0.07007078
H       -0.72787174       2.16923128       0.02202125
H        1.86353799      -0.43785926      -0.44467186
H       -1.29534543       0.06742502      -0.72297097
8
Frame=1 idx=001236 GeodesicLength=0.12048273868124952 rxn_smarts="[n:1]1([H:6])[c:2]([H:7])[n:3][n:4][c:5]1[H:8]>>[N:1](=[C:5](/[C-:2]([N+:3]#[N:4])[H:7])[H:8])\[H:6]"
N       -0.20860548       1.41064083       0.48646174
C        0.85518856      -0.78684478      -0.57218717
N        0.46909675      -1.74092695       0.24279929
N       -0.35006310      -0.97056753       0.87603118
C       -0.60399907       0.27011684       0.08134717
H       -0.69313319       2.16406466       0.00898318
H        1.87101895      -0.40979104      -0.42122133
H       -1.33950342       0.06330796      -0.70221407
8
Frame=2 idx=001236 GeodesicLength=0.24114597218114792 rxn_smarts="[n:1]1([H:6])[c:2]([H:7])[n:3][n:4][c:5]1[H:8]>>[N:1](=[C:5](/[C-:2]([N+:3]#[N:4])[H:7])[H:8])\[H:6]"
N       -0.16885417       1.39193834       0.44252542
C        0.85653139      -0.74110957      -0.55406435
N        0.47485188      -1.72756227       0.22328985
N       -0.37108192      -1.01556510       0.88212216
C       -0.63021782       0.25594898       0.09190702
H       -0.65938534       2.15915216      -0.00484267
H        1.87829788      -0.38471201      -0.40080846
H       -1.38014191       0.06190948      -0.68012897
8
Frame=3 idx=001236 GeodesicLength=0.36192654136551167 rxn_smarts="[n:1]1([H:6])[c:2]([H:7])[n:3][n:4][c:5]1[H:8]>>[N:1](=[C:5](/[C-:2]([N+:3]#[N:4])[H:7])[H:8])\[H:6]"
N       -0.13571753       1.37322897       0.40113483
C        0.85766995      -0.69818073      -0.53499794
N        0.48029221      -1.71378042       0.20564654
N       -0.39069032      -1.06074181       0.88584132
C       -0.65211990       0.24391612       0.10168106
H       -0.62670717       2.15443998      -0.01955886
H        1.88522918      -0.36174869      -0.38286640
H       -1.41795643       0.06286659      -0.65688055
8
Frame=4 idx=001236 GeodesicLength=0.4828017965744993 rxn_smarts="[n:1]1([H:6])[c:2]([H:7])[n:3][n:4][c:5]1[H:8]>>[N:1](=[C:5](/[C-:2]([N+:3]#[N:4])[H:7])[H:8])\[H:6]"
N       -0.10766071       1.35497548       0.36191723
C        0.85873056      -0.65790374      -0.51506850
N        0.48549891      -1.69978988       0.18977274
N       -0.40916200      -1.10637766       0.88712558
C       -0.67046873       0.23357033       0.11070464
H       -0.59520945       2.14991709      -0.03515817
H        1.89174280      -0.34030625      -0.36684301
H       -1.45347138       0.06591463      -0.63245050
8
Frame=5 idx=001236 GeodesicLength=0.6037526495545757 rxn_smarts="[n:1]1([H:6])[c:2]([H:7])[n:3][n:4][c:5]1[H:8]>>[N:1](=[C:5](/[C-:2]([N+:3]#[N:4])[H:7])[H:8])\[H:6]"
N       -0.08360797       1.33743369       0.32451492
C        0.85979521      -0.62006592      -0.49432325
N        0.49053366      -1.68573101       0.17553303
N       -0.42670280      -1.15272802       0.88585611
C       -0.68585978       0.22458656       0.11908774
H       -0.56484194       2.14556804      -0.05176679
H        1.89780744      -0.31992477      -0.35224473
H       -1.48712384       0.07086142      -0.60665703
8
Frame=6 idx=001236 GeodesicLength=0.7247447498437949 rxn_smarts="[n:1]1([H:6])[c:2]([H:7])[n:3][n:4][c:5]1[H:8]>>[N:1](=[C:5](/[C-:2]([N+:3]#[N:4])[H:7])[H:8])\[H:6]"
N       -0.06278537       1.32072487       0.28865239
C        0.86089802      -0.58445475      -0.47276884
N        0.49549686      -1.67167510       0.16289344
N       -0.44353246      -1.20003616       0.88182692
C       -0.69876961       0.21673081       0.12697337
H       -0.53547499       2.14135644      -0.06957556
H        1.90340029      -0.30023000      -0.33872928
H       -1.51923274       0.07758388      -0.57927245
8
Frame=7 idx=001236 GeodesicLength=0.8457640617616045 rxn_smarts="[n:1]1([H:6])[c:2]([H:7])[n:3][n:4][c:5]1[H:8]>>[N:1](=[C:5](/[C-:2]([N+:3]#[N:4])[H:7])[H:8])\[H:6]"
N       -0.04459278       1.30491546       0.25399106
C        0.86207774      -0.55084927      -0.45037147
N        0.50042653      -1.65767220       0.15176684
N       -0.45980454      -1.24850753       0.87477022
C       -0.70955597       0.20984502       0.13452888
H       -0.50704144       2.13724353      -0.08880102
H        1.90854427      -0.28097535      -0.32593010
H       -1.55005380       0.08600034      -0.54995439
8
Frame=8 idx=001236 GeodesicLength=0.9667971872304281 rxn_smarts="[n:1]1([H:6])[c:2]([H:7])[n:3][n:4][c:5]1[H:8]>>[N:1](=[C:5](/[C-:2]([N+:3]#[N:4])[H:7])[H:8])\[H:6]"
N       -0.02856706       1.29002441       0.22016510
C        0.86337330      -0.51904155      -0.42704995
N        0.50534041      -1.64374885       0.14208348
N       -0.47565107      -1.29831984       0.86432966
C       -0.71849183       0.20382759       0.14193436
H       -0.47950987       2.13318348      -0.10968153
H        1.91328366      -0.26199073      -0.31350096
H       -1.57977755       0.09606549      -0.51828016
8
Frame=9 idx=001236 GeodesicLength=1.0878460959401457 rxn_smarts="[n:1]1([H:6])[c:2]([H:7])[n:3][n:4][c:5]1[H:8]>>[N:1](=[C:5](/[C-:2]([N+:3]#[N:4])[H:7])[H:8])\[H:6]"
N       -0.01436342       1.27604883       0.18677254
C        0.86484545      -0.48880234      -0.40266274
N        0.51018901      -1.62993079       0.13364648
N       -0.49114407      -1.34965025       0.85002703
C       -0.72577131       0.19862060       0.14942285
H       -0.45286573       2.12909709      -0.13262041
H        1.91769324      -0.24315955      -0.30096806
H       -1.60858316       0.10777641      -0.48361769
8
Frame=10 idx=001236 GeodesicLength=1.2088775323246927 rxn_smarts="[n:1]1([H:6])[c:2]([H:7])[n:3][n:4][c:5]1[H:8]>>[N:1](=[C:5](/[C-:2]([N+:3]#[N:4])[H:7])[H:8])\[H:6]"
N       -0.00171089       1.26292546       0.15343389
C        0.86651034      -0.45996563      -0.37700257
N        0.51503139      -1.61618408       0.12657682
N       -0.50647813      -1.40266071       0.83119534
C       -0.73156159       0.19421002       0.15725186
H       -0.42711973       2.12488594      -0.15794368
H        1.92181395      -0.22436998      -0.28811102
H       -1.63648533       0.12115898      -0.44540064
8
Frame=11 idx=001236 GeodesicLength=1.329873033006888 rxn_smarts="[n:1]1([H:6])[c:2]([H:7])[n:3][n:4][c:5]1[H:8]>>[N:1](=[C:5](/[C-:2]([N+:3]#[N:4])[H:7])[H:8])\[H:6]"
N        0.00958599       1.25057538       0.11965726
C        0.86842466      -0.43233290      -0.34976716
N        0.51983127      -1.60248921       0.12082482
N       -0.52178405      -1.45750802       0.80692926
C       -0.73595401       0.19062621       0.16579122
H       -0.40233340       2.12038733      -0.18622751
H        1.92572382      -0.20554492      -0.27447636
H       -1.66349428       0.13628613      -0.40273153
8
Frame=12 idx=001236 GeodesicLength=1.4508120843048549 rxn_smarts="[n:1]1([H:6])[c:2]([H:7])[n:3][n:4][c:5]1[H:8]>>[N:1](=[C:5](/[C-:2]([N+:3]#[N:4])[H:7])[H:8])\[H:6]"
N        0.01966018       1.23888501       0.08471150
C        0.87070783      -0.40568019      -0.32053372
N        0.52440205      -1.58886509       0.11600524
N       -0.53709471      -1.51430516       0.77600132
C       -0.73893966       0.18796300       0.17557127
H       -0.37868148       2.11533674      -0.21841184
H        1.92955959      -0.18664041      -0.25916014
H       -1.68961381       0.15330610      -0.35418363
8
Frame=13 idx=001236 GeodesicLength=1.5717277866352175 rxn_smarts="[n:1]1([H:6])[c:2]([H:7])[n:3][n:4][c:5]1[H:8]>>[N:1](=[C:5](/[C-:2]([N+:3]#[N:4])[H:7])[H:8])\[H:6]"
N        0.02855701       1.22769261       0.04752324
C        0.87354474      -0.37968638      -0.28871912
N        0.52836719      -1.57534120       0.11100301
N       -0.55237433      -1.57320517       0.73644750
C       -0.74032085       0.18642692       0.18754209
H       -0.35644835       2.10917247      -0.25642851
H        1.93350315      -0.16759201      -0.24023723
H       -1.71482855       0.17253276      -0.29713097
8
Frame=14 idx=001236 GeodesicLength=1.6924797736244594 rxn_smarts="[n:1]1([H:6])[c:2]([H:7])[n:3][n:4][c:5]1[H:8]>>[N:1](=[C:5](/[C-:2]([N+:3]#[N:4])[H:7])[H:8])\[H:6]"
N        0.03620273       1.21653338       0.00701855
C        0.87698911      -0.35416481      -0.25337630
N        0.53168008      -1.56175412       0.10591538
N       -0.56810189      -1.63411011       0.68539940
C       -0.73994099       0.18637111       0.20310769
H       -0.33609009       2.10107919      -0.30201065
H        1.93767773      -0.14823866      -0.21676119
H       -1.73841669       0.19428401      -0.22929287
8
Frame=15 idx=001236 GeodesicLength=1.8127242828865584 rxn_smarts="[n:1]1([H:6])[c:2]([H:7])[n:3][n:4][c:5]1[H:8]>>[N:1](=[C:5](/[C-:2]([N+:3]#[N:4])[H:7])[H:8])\[H:6]"
N        0.04233662       1.20454108      -0.03788137
C        0.88104474      -0.32891873      -0.21308438
N        0.53408772      -1.54787343       0.10099574
N       -0.58476003      -1.69622577       0.61900984
C       -0.73751532       0.18838524       0.22451170
H       -0.31834227       2.08958763      -0.35739862
H        1.94214540      -0.12835097      -0.18787129
H       -1.75899686       0.21885495      -0.14828162
8
Frame=16 idx=001236 GeodesicLength=1.9319898913302895 rxn_smarts="[n:1]1([H:6])[c:2]([H:7])[n:3][n:4][c:5]1[H:8]>>[N:1](=[C:5](/[C-:2]([N+:3]#[N:4])[H:7])[H:8])\[H:6]"
N        0.04661380       1.18974592      -0.08832932
C        0.88533269      -0.30413775      -0.16705955
N        0.53516017      -1.53309479       0.09806775
N       -0.60210486      -1.75660829       0.53464583
C       -0.73278238       0.19311153       0.25325927
H       -0.30413335       2.07291940      -0.42191428
H        1.94638598      -0.10792973      -0.15423260
H       -1.77447204       0.24599370      -0.05443709
