10
Frame=0 idx=001691 GeodesicLength=0.0 rxn_smarts="[N:1]([C:2](=[O:3])[O:4]/[C:5](=[N:6]/[H:10])[H:9])([H:7])[H:8]>>[N:1](=[C:2](/[O:3][H:7])[O:4]/[C:5](=[N:6]/[H:10])[H:9])\[H:8]"
N       -1.50248183      -0.31242908      -0.22841474
C       -0.69643749      -0.40947757       0.78066201
O       -1.32104270      -0.87241532       1.78941916
O        0.60673475      -0.11716078       0.91779711
C        1.35556703       0.37633861      -0.10454452
N        0.92176705       0.60655733      -1.25495735
H       -2.17559046      -0.79886595       0.81665558
H       -1.21537202       0.03299725      -1.13102229
H        2.36917034       0.52529472       0.26415407
H        1.65768535       0.96916077      -1.84974902
10
Frame=1 idx=001691 GeodesicLength=0.04801159030513112 rxn_smarts="[N:1]([C:2](=[O:3])[O:4]/[C:5](=[N:6]/[H:10])[H:9])([H:7])[H:8]>>[N:1](=[C:2](/[O:3][H:7])[O:4]/[C:5](=[N:6]/[H:10])[H:9])\[H:8]"
N       -1.50184967      -0.30253666      -0.22656197
C       -0.71667862      -0.33019147       0.80292163
O       -1.31385583      -0.87103901       1.78921834
O        0.60136398      -0.09184206       0.92576210
C        1.36171347       0.35567256      -0.10793222
N        0.94084461       0.53647118      -1.27232388
H       -2.14506308      -0.91513093       0.77530980
H       -1.25362622       0.12806635      -1.10286965
H        2.36638372       0.54001039       0.26946738
H        1.66076766       0.95051965      -1.85299154
10
Frame=2 idx=001691 GeodesicLength=0.0990185840586017 rxn_smarts="[N:1]([C:2](=[O:3])[O:4]/[C:5](=[N:6]/[H:10])[H:9])([H:7])[H:8]>>[N:1](=[C:2](/[O:3][H:7])[O:4]/[C:5](=[N:6]/[H:10])[H:9])\[H:8]"
N       -1.50125134      -0.28451201      -0.22423914
C       -0.73351008      -0.27110704       0.81906443
O       -1.30929019      -0.86668886       1.78653674
O        0.59279201      -0.06095972       0.93581376
C        1.36516060       0.33641755      -0.10820899
N        0.95437887       0.47433139      -1.28247390
H       -2.09947542      -1.01549834       0.73069715
H       -1.28721021       0.20963212      -1.07504298
H        2.36290159       0.54871482       0.27301905
H        1.65550416       0.92967009      -1.85516610
10
Frame=3 idx=001691 GeodesicLength=0.15197792814510575 rxn_smarts="[N:1]([C:2](=[O:3])[O:4]/[C:5](=[N:6]/[H:10])[H:9])([H:7])[H:8]>>[N:1](=[C:2](/[O:3][H:7])[O:4]/[C:5](=[N:6]/[H:10])[H:9])\[H:8]"
N       -1.50116230      -0.26534413      -0.22203490
C       -0.74859331      -0.22330249       0.83222569
O       -1.30439979      -0.86653056       1.78098029
O        0.58273407      -0.02537725       0.94680908
C        1.36643439       0.32040883      -0.10603445
N        0.96326852       0.42192557      -1.28708655
H       -2.04784621      -1.09737584       0.68641071
H       -1.31765636       0.27787584      -1.04924770
H        2.36015864       0.55139835       0.27500202
H        1.64706236       0.90632168      -1.85702419
10
Frame=4 idx=001691 GeodesicLength=0.2061761117369045 rxn_smarts="[N:1]([C:2](=[O:3])[O:4]/[C:5](=[N:6]/[H:10])[H:9])([H:7])[H:8]>>[N:1](=[C:2](/[O:3][H:7])[O:4]/[C:5](=[N:6]/[H:10])[H:9])\[H:8]"
N       -1.50169234      -0.24735430      -0.21999443
C       -0.76328200      -0.18180264       0.84385448
O       -1.29811788      -0.86946357       1.77365253
O        0.57154170       0.01337851       0.95761237
C        1.36519989       0.30977743      -0.10190143
N        0.96820678       0.37917794      -1.28791095
H       -1.99220645      -1.16630411       0.64271430
H       -1.34747044       0.33596535      -1.02515834
H        2.35874562       0.54657101       0.27625071
H        1.63907510       0.88005440      -1.85911924
10
Frame=5 idx=001691 GeodesicLength=0.2614530859551013 rxn_smarts="[N:1]([C:2](=[O:3])[O:4]/[C:5](=[N:6]/[H:10])[H:9])([H:7])[H:8]>>[N:1](=[C:2](/[O:3][H:7])[O:4]/[C:5](=[N:6]/[H:10])[H:9])\[H:8]"
N       -1.50326596      -0.22822677      -0.21715189
C       -0.77738306      -0.14584806       0.85495531
O       -1.28949017      -0.87765222       1.76398790
O        0.56025601       0.05123091       0.96735352
C        1.36183934       0.30418604      -0.09642390
N        0.97049358       0.34067285      -1.28620179
H       -1.93407596      -1.22465398       0.59786666
H       -1.37774447       0.39076205      -0.99992974
H        2.35606078       0.54355477       0.27827888
H        1.63330992       0.84597440      -1.86273494
10
Frame=6 idx=001691 GeodesicLength=0.3178716482169189 rxn_smarts="[N:1]([C:2](=[O:3])[O:4]/[C:5](=[N:6]/[H:10])[H:9])([H:7])[H:8]>>[N:1](=[C:2](/[O:3][H:7])[O:4]/[C:5](=[N:6]/[H:10])[H:9])\[H:8]"
N       -1.50624543      -0.20976967      -0.21354580
C       -0.79184659      -0.11399572       0.86606735
O       -1.27792046      -0.89034700       1.75261780
O        0.54782665       0.09095205       0.97639358
C        1.35543214       0.30668226      -0.09004865
N        0.96874511       0.31167746      -1.28234135
H       -1.87281958      -1.27592365       0.55169738
H       -1.41101114       0.44235003      -0.97297897
H        2.35333528       0.53671536       0.28068710
H        1.63450400       0.80165888      -1.86854843
10
Frame=7 idx=001691 GeodesicLength=0.37497696523968466 rxn_smarts="[N:1]([C:2](=[O:3])[O:4]/[C:5](=[N:6]/[H:10])[H:9])([H:7])[H:8]>>[N:1](=[C:2](/[O:3][H:7])[O:4]/[C:5](=[N:6]/[H:10])[H:9])\[H:8]"
N       -1.50965236      -0.19312324      -0.20993092
C       -0.80650681      -0.08513978       0.87675061
O       -1.26408812      -0.90404871       1.74027299
O        0.53458908       0.13186521       0.98445799
C        1.34716704       0.31460545      -0.08343810
N        0.96482254       0.28825623      -1.27739077
H       -1.80913699      -1.31993770       0.50515030
H       -1.44640302       0.48896982      -0.94554896
H        2.35082945       0.52425076       0.28382547
H        1.63837921       0.75430196      -1.87414861
10
Frame=8 idx=001691 GeodesicLength=0.4331807799466686 rxn_smarts="[N:1]([C:2](=[O:3])[O:4]/[C:5](=[N:6]/[H:10])[H:9])([H:7])[H:8]>>[N:1](=[C:2](/[O:3][H:7])[O:4]/[C:5](=[N:6]/[H:10])[H:9])\[H:8]"
N       -1.51364050      -0.17578700      -0.20561761
C       -0.82042032      -0.06024214       0.88755126
O       -1.24778845      -0.92089837       1.72602564
O        0.52184761       0.16992425       0.99144983
C        1.33789139       0.32726019      -0.07688351
N        0.96023503       0.26497275      -1.27141076
H       -1.74558115      -1.35603906       0.45652669
H       -1.48295603       0.53453647      -0.91576402
H        2.34658633       0.51593527       0.28787654
H        1.64382610       0.70033765      -1.87975407
10
Frame=9 idx=001691 GeodesicLength=0.49222444909079766 rxn_smarts="[N:1]([C:2](=[O:3])[O:4]/[C:5](=[N:6]/[H:10])[H:9])([H:7])[H:8]>>[N:1](=[C:2](/[O:3][H:7])[O:4]/[C:5](=[N:6]/[H:10])[H:9])\[H:8]"
N       -1.51770313      -0.15945508      -0.20131787
C       -0.83391967      -0.03806406       0.89805950
O       -1.22941323      -0.93826506       1.71069667
O        0.50915524       0.20714386       0.99744166
C        1.32787143       0.34399694      -0.07080109
N        0.95508414       0.24337452      -1.26475570
H       -1.68170547      -1.38544784       0.40699410
H       -1.52108499       0.57675547      -0.88486778
H        2.34169725       0.50607252       0.29262119
H        1.65001843       0.64388873      -1.88407069
10
Frame=10 idx=001691 GeodesicLength=0.5521115463683681 rxn_smarts="[N:1]([C:2](=[O:3])[O:4]/[C:5](=[N:6]/[H:10])[H:9])([H:7])[H:8]>>[N:1](=[C:2](/[O:3][H:7])[O:4]/[C:5](=[N:6]/[H:10])[H:9])\[H:8]"
N       -1.52175340      -0.14404996      -0.19707116
C       -0.84693642      -0.01831400       0.90823466
O       -1.20878066      -0.95592519       1.69423277
O        0.49650006       0.24381835       1.00234668
C        1.31734980       0.36424699      -0.06546974
N        0.94950959       0.22360815      -1.25752973
H       -1.61772723      -1.40870875       0.35648979
H       -1.56110860       0.61584718      -0.85258562
H        2.33581858       0.49474363       0.29795860
H        1.65712827       0.58473361      -1.88660625
10
Frame=11 idx=001691 GeodesicLength=0.6126780144151676 rxn_smarts="[N:1]([C:2](=[O:3])[O:4]/[C:5](=[N:6]/[H:10])[H:9])([H:7])[H:8]>>[N:1](=[C:2](/[O:3][H:7])[O:4]/[C:5](=[N:6]/[H:10])[H:9])\[H:8]"
N       -1.52558179      -0.12876942      -0.19275327
C       -0.85883424      -0.00146827       0.91817235
O       -1.18699935      -0.97380264       1.67669601
O        0.48491060       0.27680466       1.00610746
C        1.30726588       0.38438775      -0.06124182
N        0.94428344       0.20354317      -1.24995872
H       -1.55633267      -1.42549950       0.30498557
H       -1.60195249       0.65286483      -0.81837114
H        2.32851053       0.48894775       0.30327631
H        1.66473010       0.52299166      -1.88691275
10
Frame=12 idx=001691 GeodesicLength=0.6738336699510447 rxn_smarts="[N:1]([C:2](=[O:3])[O:4]/[C:5](=[N:6]/[H:10])[H:9])([H:7])[H:8]>>[N:1](=[C:2](/[O:3][H:7])[O:4]/[C:5](=[N:6]/[H:10])[H:9])\[H:8]"
N       -1.52904311      -0.11430111      -0.18870373
C       -0.86992009       0.01332119       0.92762488
O       -1.16420288      -0.99080095       1.65853045
O        0.47395944       0.30787745       1.00874312
C        1.29762575       0.40421241      -0.05807081
N        0.93919727       0.18496722      -1.24237379
H       -1.49682108      -1.43692590       0.25315257
H       -1.64431445       0.68661138      -0.78277691
H        2.32053926       0.48476149       0.30850446
H        1.67297988       0.46027683      -1.88463022
10
Frame=13 idx=001691 GeodesicLength=0.7356060389091735 rxn_smarts="[N:1]([C:2](=[O:3])[O:4]/[C:5](=[N:6]/[H:10])[H:9])([H:7])[H:8]>>[N:1](=[C:2](/[O:3][H:7])[O:4]/[C:5](=[N:6]/[H:10])[H:9])\[H:8]"
N       -1.53220521      -0.09986846      -0.18471642
C       -0.87999813       0.02584977       0.93678689
O       -1.14066775      -1.00765216       1.63933493
O        0.46395124       0.33614491       1.01045212
C        1.28846488       0.42328954      -0.05596012
N        0.93449756       0.16688616      -1.23482070
H       -1.44017488      -1.44319502       0.20030142
H       -1.68793252       0.71807100      -0.74499729
H        2.31199292       0.48551790       0.31322238
H        1.68207189       0.39495638      -1.87960320
10
Frame=14 idx=001691 GeodesicLength=0.7978629883856315 rxn_smarts="[N:1]([C:2](=[O:3])[O:4]/[C:5](=[N:6]/[H:10])[H:9])([H:7])[H:8]>>[N:1](=[C:2](/[O:3][H:7])[O:4]/[C:5](=[N:6]/[H:10])[H:9])\[H:8]"
N       -1.53497055      -0.08546188      -0.18089358
C       -0.88907796       0.03640247       0.94558632
O       -1.11672399      -1.02405022       1.61922078
O        0.45491391       0.36176886       1.01131950
C        1.27980992       0.44154990      -0.05487597
N        0.93029492       0.14961029      -1.22748674
H       -1.38663457      -1.44480499       0.14658037
H       -1.73283916       0.74688082      -0.70509189
H        2.30329964       0.49071284       0.31719515
H        1.69192783       0.32739190      -1.87155393
10
Frame=15 idx=001691 GeodesicLength=0.8603837937540365 rxn_smarts="[N:1]([C:2](=[O:3])[O:4]/[C:5](=[N:6]/[H:10])[H:9])([H:7])[H:8]>>[N:1](=[C:2](/[O:3][H:7])[O:4]/[C:5](=[N:6]/[H:10])[H:9])\[H:8]"
N       -1.53711934      -0.07130499      -0.17748947
C       -0.89720877       0.04549490       0.95384090
O       -1.09291274      -1.03917182       1.59869902
O        0.44685106       0.38504820       1.01136281
C        1.27184036       0.45865806      -0.05472468
N        0.92686907       0.13317240      -1.22053150
H       -1.33634127      -1.44235201       0.09266511
H       -1.77888452       0.77216722      -0.66369702
H        2.29492367       0.49863146       0.32039926
H        1.70198246       0.25965658      -1.86052443
10
Frame=16 idx=001691 GeodesicLength=0.9230318360162056 rxn_smarts="[N:1]([C:2](=[O:3])[O:4]/[C:5](=[N:6]/[H:10])[H:9])([H:7])[H:8]>>[N:1](=[C:2](/[O:3][H:7])[O:4]/[C:5](=[N:6]/[H:10])[H:9])\[H:8]"
N       -1.53856586      -0.05738996      -0.17461129
C       -0.90446329       0.05355165       0.96147490
O       -1.06946127      -1.05265341       1.57805003
O        0.43970288       0.40643701       1.01062329
C        1.26464458       0.47461378      -0.05538471
N        0.92429689       0.11785128      -1.21407860
H       -1.28917696      -1.43633571       0.03886607
H       -1.82608810       0.79336640      -0.62117504
H        2.28711267       0.50786499       0.32291508
H        1.71199846       0.19269395      -1.84667972
