9
Frame=0 idx=000739 GeodesicLength=0.0 rxn_smarts="[O:1]=[C:2]([C:3]([C:4]#[C:5][H:9])([H:7])[H:8])[H:6]>>[O:1]=[C:2]([C:5](=[C:4]=[C:3]([H:7])[H:8])[H:9])[H:6]"
O       -1.35339430       1.06249099       0.84753549
C       -0.57286795       0.77304582      -0.00626777
C       -0.33399997      -1.14213725      -0.35237856
C        0.75858795      -0.51709296       0.19845673
C        1.25320837       0.58821709       0.48432123
H       -0.41898149       1.13130415      -1.01931731
H       -0.27468534      -1.49988173      -1.37388944
H       -1.05652630      -1.61444316       0.30033426
H        1.99865900       1.21849707       0.92120537
9
Frame=1 idx=000739 GeodesicLength=0.06780582034897752 rxn_smarts="[O:1]=[C:2]([C:3]([C:4]#[C:5][H:9])([H:7])[H:8])[H:6]>>[O:1]=[C:2]([C:5](=[C:4]=[C:3]([H:7])[H:8])[H:9])[H:6]"
O       -1.38463892       1.06345946       0.83035643
C       -0.58223155       0.78349702      -0.00670212
C       -0.33254073      -1.14430550      -0.34837755
C        0.76211368      -0.52558329       0.20637211
C        1.25001637       0.58115530       0.50125419
H       -0.41801281       1.16442814      -1.01138781
H       -0.26993415      -1.50034803      -1.37052136
H       -1.04662599      -1.63039620       0.30395438
H        2.02185409       1.20809309       0.89505174
9
Frame=2 idx=000739 GeodesicLength=0.1354826755263367 rxn_smarts="[O:1]=[C:2]([C:3]([C:4]#[C:5][H:9])([H:7])[H:8])[H:6]>>[O:1]=[C:2]([C:5](=[C:4]=[C:3]([H:7])[H:8])[H:9])[H:6]"
O       -1.41659479       1.06394765       0.81202157
C       -0.59155769       0.79404626      -0.00672664
C       -0.33088529      -1.14652462      -0.34404402
C        0.76563935      -0.53461821       0.21548785
C        1.24632707       0.57339064       0.52061142
H       -0.41560000       1.19904744      -1.00156899
H       -0.26441554      -1.50033779      -1.36696261
H       -1.03698209      -1.64652357       0.30693353
H        2.04406899       1.19757219       0.86424790
9
Frame=3 idx=000739 GeodesicLength=0.20296494395132136 rxn_smarts="[O:1]=[C:2]([C:3]([C:4]#[C:5][H:9])([H:7])[H:8])[H:6]>>[O:1]=[C:2]([C:5](=[C:4]=[C:3]([H:7])[H:8])[H:9])[H:6]"
O       -1.44804714       1.06432665       0.79275178
C       -0.60057735       0.80478115      -0.00682560
C       -0.32901805      -1.14883388      -0.33934156
C        0.76970410      -0.54396414       0.22451291
C        1.24305107       0.56531572       0.53988388
H       -0.41259866       1.23488597      -0.99051416
H       -0.25912013      -1.50028607      -1.36309070
H       -1.02693350      -1.66262487       0.31018613
H        2.06353965       1.18639948       0.83243731
9
Frame=4 idx=000739 GeodesicLength=0.2702481275446319 rxn_smarts="[O:1]=[C:2]([C:3]([C:4]#[C:5][H:9])([H:7])[H:8])[H:6]>>[O:1]=[C:2]([C:5](=[C:4]=[C:3]([H:7])[H:8])[H:9])[H:6]"
O       -1.47814893       1.06487506       0.77280124
C       -0.60919468       0.81575097      -0.00746963
C       -0.32699553      -1.15130416      -0.33427346
C        0.77470756      -0.55343304       0.23224935
C        1.24086482       0.55732567       0.55668386
H       -0.40995832       1.27162380      -0.97894905
H       -0.25499072      -1.50064863      -1.35885174
H       -1.01595234      -1.67856011       0.31449984
H        2.07966815       1.17437045       0.80330960
9
Frame=5 idx=000739 GeodesicLength=0.33741002557379535 rxn_smarts="[O:1]=[C:2]([C:3]([C:4]#[C:5][H:9])([H:7])[H:8])[H:6]>>[O:1]=[C:2]([C:5](=[C:4]=[C:3]([H:7])[H:8])[H:9])[H:6]"
O       -1.50692423       1.06555099       0.75219304
C       -0.61747680       0.82692503      -0.00875871
C       -0.32489521      -1.15400315      -0.32886127
C        0.78064305      -0.56308401       0.23857609
C        1.23980745       0.54943019       0.57066864
H       -0.40787603       1.30920350      -0.96696782
H       -0.25220078      -1.50152849      -1.35427177
H       -1.00412646      -1.69434934       0.31989526
H        2.09304903       1.16185528       0.77752652
9
Frame=6 idx=000739 GeodesicLength=0.40435636794748586 rxn_smarts="[O:1]=[C:2]([C:3]([C:4]#[C:5][H:9])([H:7])[H:8])[H:6]>>[O:1]=[C:2]([C:5](=[C:4]=[C:3]([H:7])[H:8])[H:9])[H:6]"
O       -1.53459580       1.06626797       0.73084548
C       -0.62554725       0.83827913      -0.01071686
C       -0.32275594      -1.15693556      -0.32311838
C        0.78742527      -0.57290150       0.24354415
C        1.23968637       0.54167494       0.58196701
H       -0.40644416       1.34756876      -0.95450744
H       -0.25073617      -1.50294192      -1.34935735
H       -0.99151955      -1.71000540       0.32627649
H        2.10448724       1.14899358       0.75506689
9
Frame=7 idx=000739 GeodesicLength=0.4712010243056789 rxn_smarts="[O:1]=[C:2]([C:3]([C:4]#[C:5][H:9])([H:7])[H:8])[H:6]>>[O:1]=[C:2]([C:5](=[C:4]=[C:3]([H:7])[H:8])[H:9])[H:6]"
O       -1.56145794       1.06694412       0.70867392
C       -0.63349097       0.84980964      -0.01328845
C       -0.32056996      -1.16011717      -0.31704109
C        0.79494853      -0.58298682       0.24742037
C        1.24031736       0.53394166       0.59106293
H       -0.40554112       1.38678990      -0.94135910
H       -0.25036741      -1.50482344      -1.34411755
H       -0.97833289      -1.72554450       0.33344105
H        2.11449440       1.13598661       0.73520791
9
Frame=8 idx=000739 GeodesicLength=0.5380057862611515 rxn_smarts="[O:1]=[C:2]([C:3]([C:4]#[C:5][H:9])([H:7])[H:8])[H:6]>>[O:1]=[C:2]([C:5](=[C:4]=[C:3]([H:7])[H:8])[H:9])[H:6]"
O       -1.58774074       1.06751842       0.68556601
C       -0.64138075       0.86151962      -0.01644280
C       -0.31834924      -1.16356598      -0.31062929
C        0.80312404      -0.59338685       0.25039866
C        1.24151543       0.52618462       0.59836663
H       -0.40503165       1.42695505      -0.92730887
H       -0.25094979      -1.50715099      -1.33857295
H       -0.96468949      -1.74103977       0.34126034
H        2.12350218       1.12296588       0.71736227
9
Frame=9 idx=000739 GeodesicLength=0.6044961452284479 rxn_smarts="[O:1]=[C:2]([C:3]([C:4]#[C:5][H:9])([H:7])[H:8])[H:6]>>[O:1]=[C:2]([C:5](=[C:4]=[C:3]([H:7])[H:8])[H:9])[H:6]"
O       -1.61353695       1.06785175       0.66133497
C       -0.64924532       0.87335297      -0.02018128
C       -0.31608040      -1.16720780      -0.30385892
C        0.81188488      -0.60409540       0.25265129
C        1.24316879       0.51832300       0.60414066
H       -0.40488560       1.46800383      -0.91209964
H       -0.25238280      -1.50980088      -1.33263908
H       -0.95065554      -1.75638388       0.34958847
H        2.13173293       1.10995641       0.70106353
9
Frame=10 idx=000739 GeodesicLength=0.6710847532340701 rxn_smarts="[O:1]=[C:2]([C:3]([C:4]#[C:5][H:9])([H:7])[H:8])[H:6]>>[O:1]=[C:2]([C:5](=[C:4]=[C:3]([H:7])[H:8])[H:9])[H:6]"
O       -1.63908918       1.06797076       0.63585711
C       -0.65713918       0.88539083      -0.02448913
C       -0.31375304      -1.17111999      -0.29671718
C        0.82119482      -0.61520593       0.25432085
C        1.24518514       0.51032866       0.60868539
H       -0.40495597       1.51017899      -0.89548464
H       -0.25450557      -1.51282566      -1.32635447
H       -0.93633304      -1.77173741       0.35839744
H        2.13939602       1.09701975       0.68578465
9
Frame=11 idx=000739 GeodesicLength=0.7373785558451434 rxn_smarts="[O:1]=[C:2]([C:3]([C:4]#[C:5][H:9])([H:7])[H:8])[H:6]>>[O:1]=[C:2]([C:5](=[C:4]=[C:3]([H:7])[H:8])[H:9])[H:6]"
O       -1.66437255       1.06779678       0.60891026
C       -0.66505437       0.89756976      -0.02940531
C       -0.31136575      -1.17524641      -0.28918581
C        0.83097322      -0.62669171       0.25549314
C        1.24741163       0.50217827       0.61219134
H       -0.40511911       1.55345127      -0.87709738
H       -0.25728866      -1.51617830      -1.31966755
H       -0.92168107      -1.78702902       0.36763424
H        2.14649666       1.08414935       0.67112707
9
Frame=12 idx=000739 GeodesicLength=0.8037154425627825 rxn_smarts="[O:1]=[C:2]([C:3]([C:4]#[C:5][H:9])([H:7])[H:8])[H:6]>>[O:1]=[C:2]([C:5](=[C:4]=[C:3]([H:7])[H:8])[H:9])[H:6]"
O       -1.68955319       1.06726478       0.58030055
C       -0.67301295       0.90996584      -0.03494179
C       -0.30889587      -1.17961603      -0.28123272
C        0.84121932      -0.63861567       0.25631447
C        1.24991596       0.49383876       0.61472196
H       -0.40545685       1.59795222      -0.85670338
H       -0.26060251      -1.51985764      -1.31254159
H       -0.90684824      -1.80228431       0.37726258
H        2.15323433       1.07135204       0.65681992
9
Frame=13 idx=000739 GeodesicLength=0.870078011490047 rxn_smarts="[O:1]=[C:2]([C:3]([C:4]#[C:5][H:9])([H:7])[H:8])[H:6]>>[O:1]=[C:2]([C:5](=[C:4]=[C:3]([H:7])[H:8])[H:9])[H:6]"
O       -1.71459570       1.06647181       0.54987310
C       -0.68105239       0.92258469      -0.04121425
C       -0.30633824      -1.18423514      -0.27284311
C        0.85193178      -0.65099689       0.25674337
C        1.25258554       0.48529404       0.61632330
H       -0.40591083       1.64370806      -0.83396466
H       -0.26443270      -1.52390936      -1.30493824
H       -0.89177470      -1.81755471       0.38731516
H        2.15958723       1.05863750       0.64270533
9
Frame=14 idx=000739 GeodesicLength=0.9360034463132996 rxn_smarts="[O:1]=[C:2]([C:3]([C:4]#[C:5][H:9])([H:7])[H:8])[H:6]>>[O:1]=[C:2]([C:5](=[C:4]=[C:3]([H:7])[H:8])[H:9])[H:6]"
O       -1.73935479       1.06521096       0.51738593
C       -0.68907594       0.93539637      -0.04823471
C       -0.30367694      -1.18901179      -0.26399877
C        0.86302051      -0.66376301       0.25692348
C        1.25544841       0.47658148       0.61694558
H       -0.40668158       1.69050074      -0.80860514
H       -0.26876149      -1.52826410      -1.29680800
H       -0.87655057      -1.83259547       0.39772092
H        2.16563240       1.04594482       0.62867070
9
Frame=15 idx=000739 GeodesicLength=1.0020772896027779 rxn_smarts="[O:1]=[C:2]([C:3]([C:4]#[C:5][H:9])([H:7])[H:8])[H:6]>>[O:1]=[C:2]([C:5](=[C:4]=[C:3]([H:7])[H:8])[H:9])[H:6]"
O       -1.76402525       1.06358338       0.48251335
C       -0.69717615       0.94848547      -0.05618246
C       -0.30090908      -1.19403556      -0.25465527
C        0.87455122      -0.67701544       0.25685150
C        1.25850205       0.46766534       0.61664565
H       -0.40770630       1.73863819      -0.78009091
H       -0.27352316      -1.53302385      -1.28810941
H       -0.86119668      -1.84759972       0.40860330
H        2.17148337       1.03330219       0.61442425
9
Frame=16 idx=000739 GeodesicLength=1.068090961560763 rxn_smarts="[O:1]=[C:2]([C:3]([C:4]#[C:5][H:9])([H:7])[H:8])[H:6]>>[O:1]=[C:2]([C:5](=[C:4]=[C:3]([H:7])[H:8])[H:9])[H:6]"
O       -1.78851413       1.06150337       0.44480470
C       -0.70528721       0.96186022      -0.06518792
C       -0.29802903      -1.19927125      -0.24476682
C        0.88646728      -0.69073379       0.25658928
C        1.26171698       0.45854956       0.61541298
H       -0.40904456       1.78808955      -0.74777160
H       -0.27871604      -1.53821063      -1.27875171
H       -0.84571476      -1.86247074       0.41999391
H        2.17712147       1.02068371       0.59967718
