12
Frame=0 idx=006079 GeodesicLength=0.0 rxn_smarts="[O:1]=[C:2]([C:3]([C:4]([C:5]#[C:6][H:12])([H:10])[H:11])([H:8])[H:9])[H:7]>>[O:1]=[C:2]([C:3]([C:4](=[C:5]=[C:6]([H:10])[H:12])[H:11])([H:8])[H:9])[H:7]"
O       -2.63740061       0.27600819      -0.70645446
C       -2.15103064      -0.09626750       0.32408235
C       -0.66998892      -0.20061096       0.58225592
C        0.18659349       0.32930021      -0.51816523
C        1.56152925       0.36558180      -0.42204782
C        2.72649469       0.50640432       0.12129037
H       -2.79320091      -0.40374949       1.17393488
H       -0.45499964      -1.25397690       0.79996834
H       -0.42824281       0.32412820       1.51777723
H        1.42439267      -0.28137735      -1.38499288
H       -0.29825251       0.63378453      -1.43830893
H        3.53410593      -0.19922504      -0.04933981
12
Frame=1 idx=006079 GeodesicLength=0.09687328609758597 rxn_smarts="[O:1]=[C:2]([C:3]([C:4]([C:5]#[C:6][H:12])([H:10])[H:11])([H:8])[H:9])[H:7]>>[O:1]=[C:2]([C:3]([C:4](=[C:5]=[C:6]([H:10])[H:12])[H:11])([H:8])[H:9])[H:7]"
O       -2.63804041       0.21387414      -0.72129852
C       -2.14596857      -0.12958608       0.31652876
C       -0.66456115      -0.18240677       0.58664778
C        0.18428243       0.34857114      -0.51974335
C        1.55599467       0.42105623      -0.41615484
C        2.74580085       0.48026403       0.07508398
H       -2.78453186      -0.43573725       1.16975775
H       -0.41801989      -1.22353108       0.82791038
H       -0.44925827       0.36918374       1.51300366
H        1.42449654      -0.26078960      -1.39032949
H       -0.30362106       0.69883049      -1.42170585
H        3.49342673      -0.29972897      -0.01970026
12
Frame=2 idx=006079 GeodesicLength=0.1938822016870062 rxn_smarts="[O:1]=[C:2]([C:3]([C:4]([C:5]#[C:6][H:12])([H:10])[H:11])([H:8])[H:9])[H:7]>>[O:1]=[C:2]([C:3]([C:4](=[C:5]=[C:6]([H:10])[H:12])[H:11])([H:8])[H:9])[H:7]"
O       -2.63396416       0.15605008      -0.73669668
C       -2.13947517      -0.16060131       0.30851077
C       -0.65975007      -0.16569671       0.59157719
C        0.18364853       0.36591223      -0.51945161
C        1.55213959       0.46652752      -0.40735048
C        2.76222603       0.45147256       0.02336445
H       -2.77657673      -0.46488788       1.16366979
H       -0.38517646      -1.19413119       0.85534268
H       -0.47131625       0.41007393       1.50887967
H        1.42221149      -0.24601089      -1.39653224
H       -0.30684075       0.76423150      -1.39984448
H        3.45287396      -0.38293983       0.00853095
12
Frame=3 idx=006079 GeodesicLength=0.29091079265891256 rxn_smarts="[O:1]=[C:2]([C:3]([C:4]([C:5]#[C:6][H:12])([H:10])[H:11])([H:8])[H:9])[H:7]>>[O:1]=[C:2]([C:3]([C:4](=[C:5]=[C:6]([H:10])[H:12])[H:11])([H:8])[H:9])[H:7]"
O       -2.62671028       0.10536361      -0.75136160
C       -2.13213989      -0.18880694       0.30039991
C       -0.65561446      -0.15090556       0.59652949
C        0.18411498       0.38131748      -0.51803446
C        1.54965686       0.50343448      -0.39663872
C        2.77508780       0.42072308      -0.03300266
H       -2.76938053      -0.49124565       1.15627683
H       -0.35672365      -1.16686343       0.88083637
H       -0.49335907       0.44575975       1.50528218
H        1.41733546      -0.23792466      -1.40338603
H       -0.30829983       0.82735087      -1.37430782
H        3.41603260      -0.44820303       0.03740652
12
Frame=4 idx=006079 GeodesicLength=0.38793038637333876 rxn_smarts="[O:1]=[C:2]([C:3]([C:4]([C:5]#[C:6][H:12])([H:10])[H:11])([H:8])[H:9])[H:7]>>[O:1]=[C:2]([C:3]([C:4](=[C:5]=[C:6]([H:10])[H:12])[H:11])([H:8])[H:9])[H:7]"
O       -2.61732008       0.06181309      -0.76535069
C       -2.12446085      -0.21409040       0.29220377
C       -0.65226893      -0.13769992       0.60149301
C        0.18537339       0.39531739      -0.51554853
C        1.54844084       0.53296591      -0.38437774
C        2.78373585       0.38721737      -0.09238994
H       -2.76310951      -0.51552718       1.14754604
H       -0.33241652      -1.14166651       0.90441847
H       -0.51526870       0.47683869       1.50228723
H        1.40948372      -0.23645758      -1.41065058
H       -0.30801862       0.88763386      -1.34578506
H        3.38582943      -0.49634471       0.06615404
12
Frame=5 idx=006079 GeodesicLength=0.4849354090951109 rxn_smarts="[O:1]=[C:2]([C:3]([C:4]([C:5]#[C:6][H:12])([H:10])[H:11])([H:8])[H:9])[H:7]>>[O:1]=[C:2]([C:3]([C:4](=[C:5]=[C:6]([H:10])[H:12])[H:11])([H:8])[H:9])[H:7]"
O       -2.60641853       0.02463166      -0.77903143
C       -2.11678935      -0.23651458       0.28381926
C       -0.64981857      -0.12563772       0.60657529
C        0.18726695       0.40832065      -0.51191979
C        1.54843383       0.55617487      -0.37062702
C        2.78753292       0.35032440      -0.15290462
H       -2.75787481      -0.53837787       1.13734290
H       -0.31194044      -1.11817978       0.92655339
H       -0.53720639       0.50425688       1.49993112
H        1.39843745      -0.24117076      -1.41807389
H       -0.30588779       0.94501734      -1.31471856
H        3.36426474      -0.52884508       0.09305334
12
Frame=6 idx=006079 GeodesicLength=0.581906617807711 rxn_smarts="[O:1]=[C:2]([C:3]([C:4]([C:5]#[C:6][H:12])([H:10])[H:11])([H:8])[H:9])[H:7]>>[O:1]=[C:2]([C:3]([C:4](=[C:5]=[C:6]([H:10])[H:12])[H:11])([H:8])[H:9])[H:7]"
O       -2.59498894      -0.00527474      -0.79234373
C       -2.10980912      -0.25582938       0.27515716
C       -0.64862911      -0.11507855       0.61170949
C        0.18969082       0.41952722      -0.50721208
C        1.54944265       0.57338477      -0.35486058
C        2.78619782       0.31109469      -0.21271282
H       -2.75432753      -0.55892720       1.12581255
H       -0.29593670      -1.09714817       0.94713295
H       -0.55913742       0.52771771       1.49827889
H        1.38474552      -0.25254890      -1.42472218
H       -0.30156859       0.99836525      -1.28187449
H        3.35432059      -0.54528271       0.11563484
12
Frame=7 idx=006079 GeodesicLength=0.6788786289438052 rxn_smarts="[O:1]=[C:2]([C:3]([C:4]([C:5]#[C:6][H:12])([H:10])[H:11])([H:8])[H:9])[H:7]>>[O:1]=[C:2]([C:3]([C:4](=[C:5]=[C:6]([H:10])[H:12])[H:11])([H:8])[H:9])[H:7]"
O       -2.58279666      -0.03039634      -0.80586944
C       -2.10320555      -0.27263238       0.26613211
C       -0.64838846      -0.10504653       0.61706023
C        0.19268352       0.42997601      -0.50139361
C        1.55146851       0.58626873      -0.33739266
C        2.77928808       0.26856223      -0.26986822
H       -2.75180224      -0.57867680       1.11277416
H       -0.28313445      -1.07719574       0.96710166
H       -0.58134428       0.54907395       1.49711154
H        1.36813256      -0.26896335      -1.43091571
H       -0.29516252       1.04858200      -1.24748224
H        3.35426149      -0.54955178       0.13274220
12
Frame=8 idx=006079 GeodesicLength=0.7760371022640632 rxn_smarts="[O:1]=[C:2]([C:3]([C:4]([C:5]#[C:6][H:12])([H:10])[H:11])([H:8])[H:9])[H:7]>>[O:1]=[C:2]([C:3]([C:4](=[C:5]=[C:6]([H:10])[H:12])[H:11])([H:8])[H:9])[H:7]"
O       -2.56992283      -0.05109188      -0.82056900
C       -2.09778006      -0.28689530       0.25623855
C       -0.64994230      -0.09573361       0.62311287
C        0.19634677       0.43864122      -0.49367090
C        1.55445736       0.59402040      -0.31612137
C        2.76751559       0.22473947      -0.32325381
H       -2.75182766      -0.59621695       1.09763463
H       -0.27487971      -1.05858356       0.98772934
H       -0.60509730       0.56868589       1.49663984
H        1.34937219      -0.29113927      -1.43484784
H       -0.28584153       1.09502554      -1.21125040
H        3.36759947      -0.54145195       0.13835808
12
Frame=9 idx=006079 GeodesicLength=0.8731781169306015 rxn_smarts="[O:1]=[C:2]([C:3]([C:4]([C:5]#[C:6][H:12])([H:10])[H:11])([H:8])[H:9])[H:7]>>[O:1]=[C:2]([C:3]([C:4](=[C:5]=[C:6]([H:10])[H:12])[H:11])([H:8])[H:9])[H:7]"
O       -2.55620064      -0.06873464      -0.83597004
C       -2.09267555      -0.29921257       0.24578348
C       -0.65240411      -0.08642323       0.62952505
C        0.20077401       0.44658378      -0.48472520
C        1.55834120       0.59904304      -0.29230278
C        2.75046876       0.17889478      -0.37100245
H       -2.75267167      -0.61340887       1.08084450
H       -0.26930525      -1.04024063       1.00874617
H       -0.62957353       0.58758373       1.49632893
H        1.32847169      -0.31719855      -1.43741282
H       -0.27418560       1.13809171      -1.17426035
H        3.38896069      -0.52497856       0.13444552
12
Frame=10 idx=006079 GeodesicLength=0.9704366544634484 rxn_smarts="[O:1]=[C:2]([C:3]([C:4]([C:5]#[C:6][H:12])([H:10])[H:11])([H:8])[H:9])[H:7]>>[O:1]=[C:2]([C:3]([C:4](=[C:5]=[C:6]([H:10])[H:12])[H:11])([H:8])[H:9])[H:7]"
O       -2.54125263      -0.08412336      -0.85295373
C       -2.08827582      -0.30974523       0.23434099
C       -0.65634032      -0.07715674       0.63673502
C        0.20619278       0.45313730      -0.47380701
C        1.56314777       0.60074655      -0.26402853
C        2.72919067       0.13301689      -0.41258156
H       -2.75537170      -0.62926217       1.06185071
H       -0.26733541      -1.02211154       1.03138133
H       -0.65589237       0.60625372       1.49623922
H        1.30620053      -0.34760601      -1.43708106
H       -0.25952256       1.17747051      -1.13616886
H        3.41925906      -0.50061990       0.11607349
12
Frame=11 idx=006079 GeodesicLength=1.0678421269059029 rxn_smarts="[O:1]=[C:2]([C:3]([C:4]([C:5]#[C:6][H:12])([H:10])[H:11])([H:8])[H:9])[H:7]>>[O:1]=[C:2]([C:3]([C:4](=[C:5]=[C:6]([H:10])[H:12])[H:11])([H:8])[H:9])[H:7]"
O       -2.52442812      -0.09826941      -0.87202182
C       -2.08440244      -0.31873948       0.22169444
C       -0.66179421      -0.06771420       0.64496701
C        0.21288969       0.45822551      -0.46048488
C        1.56894712       0.59917864      -0.23027289
C        2.70442138       0.08829695      -0.44758647
H       -2.75995708      -0.64383906       1.04025682
H       -0.26906797      -1.00375561       1.05642536
H       -0.68453199       0.62533200       1.49620838
H        1.28299624      -0.38229264      -1.43306781
H       -0.24147382       1.21325094      -1.09679099
H        3.45640119      -0.46967363       0.08067285
12
Frame=12 idx=006079 GeodesicLength=1.165042106601497 rxn_smarts="[O:1]=[C:2]([C:3]([C:4]([C:5]#[C:6][H:12])([H:10])[H:11])([H:8])[H:9])[H:7]>>[O:1]=[C:2]([C:3]([C:4](=[C:5]=[C:6]([H:10])[H:12])[H:11])([H:8])[H:9])[H:7]"
O       -2.50576554      -0.11122389      -0.89238471
C       -2.08036214      -0.32643470       0.20819446
C       -0.66795572      -0.05797988       0.65371942
C        0.22100797       0.46222626      -0.44552468
C        1.57571934       0.59581203      -0.19215135
C        2.67632446       0.04435800      -0.47520780
H       -2.76495996      -0.65816826       1.01664940
H       -0.27327898      -0.98500941       1.08294642
H       -0.71427385       0.64477975       1.49577515
H        1.25918305      -0.42033320      -1.42610206
H       -0.22051145       1.24568076      -1.05692198
H        3.49487283      -0.43370745       0.03100775
12
Frame=13 idx=006079 GeodesicLength=1.261983856042077 rxn_smarts="[O:1]=[C:2]([C:3]([C:4]([C:5]#[C:6][H:12])([H:10])[H:11])([H:8])[H:9])[H:7]>>[O:1]=[C:2]([C:3]([C:4](=[C:5]=[C:6]([H:10])[H:12])[H:11])([H:8])[H:9])[H:7]"
O       -2.48512008      -0.12298170      -0.91403088
C       -2.07604202      -0.33281647       0.19381861
C       -0.67467724      -0.04817081       0.66288258
C        0.23077679       0.46478859      -0.42894822
C        1.58347268       0.59065553      -0.14925838
C        2.64566698       0.00169149      -0.49520861
H       -2.77029768      -0.67174448       0.99112383
H       -0.28002598      -0.96621252       1.11073778
H       -0.74478133       0.66436493       1.49482742
H        1.23538017      -0.46192023      -1.41581011
H       -0.19644991       1.27465402      -1.01665395
H        3.53209762      -0.39230835      -0.03348008
12
Frame=14 idx=006079 GeodesicLength=1.3588113566319084 rxn_smarts="[O:1]=[C:2]([C:3]([C:4]([C:5]#[C:6][H:12])([H:10])[H:11])([H:8])[H:9])[H:7]>>[O:1]=[C:2]([C:3]([C:4](=[C:5]=[C:6]([H:10])[H:12])[H:11])([H:8])[H:9])[H:7]"
O       -2.46087658      -0.13507252      -0.93826564
C       -2.07130991      -0.33817272       0.17788621
C       -0.68239404      -0.03824519       0.67309909
C        0.24286217       0.46541059      -0.40922550
C        1.59246237       0.58247446      -0.09868848
C        2.61422256      -0.03553451      -0.50849551
H       -2.77694678      -0.68338149       0.96252018
H       -0.29043329      -0.94698143       1.14151773
H       -0.77743875       0.68473552       1.49326104
H        1.21269401      -0.50795159      -1.39983567
H       -0.16813169       1.29972637      -0.97499454
H        3.56528993      -0.34700749      -0.11877892
12
Frame=15 idx=006079 GeodesicLength=1.4549294025328412 rxn_smarts="[O:1]=[C:2]([C:3]([C:4]([C:5]#[C:6][H:12])([H:10])[H:11])([H:8])[H:9])[H:7]>>[O:1]=[C:2]([C:3]([C:4](=[C:5]=[C:6]([H:10])[H:12])[H:11])([H:8])[H:9])[H:7]"
O       -2.43478337      -0.14549854      -0.96261317
C       -2.06536405      -0.34245459       0.16147670
C       -0.68943558      -0.02854109       0.68290733
C        0.25693463       0.46457628      -0.38891078
C        1.60243475       0.57372563      -0.04484954
C        2.58137146      -0.07146847      -0.51398235
H       -2.78225429      -0.69442189       0.93290983
H       -0.30187231      -0.92815960       1.17180452
H       -0.80868764       0.70455460       1.49058531
H        1.19123417      -0.55669539      -1.38135511
H       -0.13713757       1.32148328      -0.93372410
H        3.58755981      -0.29710023      -0.21424866
12
Frame=16 idx=006079 GeodesicLength=1.5508139056052679 rxn_smarts="[O:1]=[C:2]([C:3]([C:4]([C:5]#[C:6][H:12])([H:10])[H:11])([H:8])[H:9])[H:7]>>[O:1]=[C:2]([C:3]([C:4](=[C:5]=[C:6]([H:10])[H:12])[H:11])([H:8])[H:9])[H:7]"
O       -2.40534855      -0.15598822      -0.98805208
C       -2.05769637      -0.34625211       0.14412869
C       -0.69584023      -0.01876183       0.69277343
C        0.27338052       0.46265645      -0.36700083
C        1.61356571       0.56405384       0.01361954
C        2.54855571      -0.10226460      -0.51376166
H       -2.78629406      -0.70495680       0.90148215
H       -0.31445860      -0.90901536       1.20294229
H       -0.83956825       0.72464795       1.48669010
H        1.17163887      -0.60799719      -1.35931641
H       -0.10309436       1.34044468      -0.89195073
H        3.59515962      -0.24656681      -0.32155448
