15
Frame=0 idx=006522 GeodesicLength=0.0 rxn_smarts="[C:1]([C@@:2]1([H:11])[C:3]([H:12])([H:13])[O:4][C@:5]1([C:6]#[C:7][H:15])[H:14])([H:8])([H:9])[H:10]>>[C:1]([C@@:2]([C:3](=[O:4])[H:13])([C:5]1([H:14])[C:6]([H:12])=[C:7]1[H:15])[H:11])([H:8])([H:9])[H:10]"
C       -1.08003596       1.25995866       0.56031029
C       -0.71597648      -0.19430956       0.70856608
C       -1.02464297      -1.24964181      -0.27731147
O        0.03681203      -1.96806744      -0.09955540
C        0.72233109      -0.74383292       0.44299995
C        1.28528090      -0.06203835      -0.77396590
C        2.49970022       0.35084795      -0.91710072
H       -2.16304192       1.39164888       0.58958579
H       -0.64829387       1.83231965       1.38172847
H       -0.69798593       1.66673364      -0.37427068
H       -1.03120890      -0.58683950       1.68450893
H        0.38227153      -0.03229007      -1.48509016
H       -1.85229523      -1.57627477      -0.89662454
H        1.41810012      -0.97791922       1.24203426
H        2.86898541       0.88970485      -1.78581494
15
Frame=1 idx=006522 GeodesicLength=0.12460412598924699 rxn_smarts="[C:1]([C@@:2]1([H:11])[C:3]([H:12])([H:13])[O:4][C@:5]1([C:6]#[C:7][H:15])[H:14])([H:8])([H:9])[H:10]>>[C:1]([C@@:2]([C:3](=[O:4])[H:13])([C:5]1([H:14])[C:6]([H:12])=[C:7]1[H:15])[H:11])([H:8])([H:9])[H:10]"
C       -1.06270017       1.25896165       0.54472060
C       -0.70242925      -0.19540177       0.70459411
C       -1.03401727      -1.24803962      -0.28208415
O        0.01524715      -1.98730343      -0.10528114
C        0.73197585      -0.74597478       0.42666461
C        1.28433744      -0.08529790      -0.80437907
C        2.47854942       0.38722274      -0.87620136
H       -2.14483697       1.39428337       0.58816755
H       -0.61467425       1.83980875       1.35139706
H       -0.69533999       1.65584102      -0.40013499
H       -1.01199788      -0.57540385       1.68676732
H        0.35026769      -0.07496109      -1.51626329
H       -1.90130302      -1.58592357      -0.83876602
H        1.42311361      -1.00208037       1.22281095
H        2.88380763       0.96426886      -1.70201218
15
Frame=2 idx=006522 GeodesicLength=0.2495887829132546 rxn_smarts="[C:1]([C@@:2]1([H:11])[C:3]([H:12])([H:13])[O:4][C@:5]1([C:6]#[C:7][H:15])[H:14])([H:8])([H:9])[H:10]>>[C:1]([C@@:2]([C:3](=[O:4])[H:13])([C:5]1([H:14])[C:6]([H:12])=[C:7]1[H:15])[H:11])([H:8])([H:9])[H:10]"
C       -1.04493990       1.25787031       0.52869082
C       -0.68861559      -0.19658509       0.69989041
C       -1.04239447      -1.24620470      -0.28787005
O       -0.00587363      -2.00614471      -0.11097533
C        0.74215350      -0.74779047       0.41084390
C        1.28571606      -0.10748885      -0.83283402
C        2.45513606       0.41861778      -0.83852674
H       -2.12601702       1.39707465       0.58540137
H       -0.58151108       1.84658810       1.32089695
H       -0.69159800       1.64515986      -0.42562031
H       -0.99300490      -0.56415678       1.68788177
H        0.31960173      -0.11727237      -1.54523985
H       -1.94515276      -1.59197470      -0.78085925
H        1.42759323      -1.02618183       1.20431841
H        2.88890677       1.03848880      -1.61599809
15
Frame=3 idx=006522 GeodesicLength=0.37461839116281437 rxn_smarts="[C:1]([C@@:2]1([H:11])[C:3]([H:12])([H:13])[O:4][C@:5]1([C:6]#[C:7][H:15])[H:14])([H:8])([H:9])[H:10]>>[C:1]([C@@:2]([C:3](=[O:4])[H:13])([C:5]1([H:14])[C:6]([H:12])=[C:7]1[H:15])[H:11])([H:8])([H:9])[H:10]"
C       -1.02865863       1.25649343       0.51347844
C       -0.67506828      -0.19785199       0.69484189
C       -1.04937518      -1.24386654      -0.29495529
O       -0.02542692      -2.02351632      -0.11751629
C        0.75287380      -0.74785895       0.39567810
C        1.28881878      -0.12569536      -0.85874775
C        2.43068886       0.44699581      -0.80349722
H       -2.10866044       1.39876907       0.58275813
H       -0.55111338       1.85248423       1.29181073
H       -0.68910686       1.63537797      -0.44936058
H       -0.97452849      -0.55398261       1.68802676
H        0.28999573      -0.15689720      -1.57188862
H       -1.98314427      -1.59480542      -0.72406495
H        1.43175449      -1.04868789       1.18653188
H        2.89095079       1.10304176      -1.53309524
15
Frame=4 idx=006522 GeodesicLength=0.49958446707622994 rxn_smarts="[C:1]([C@@:2]1([H:11])[C:3]([H:12])([H:13])[O:4][C@:5]1([C:6]#[C:7][H:15])[H:14])([H:8])([H:9])[H:10]>>[C:1]([C@@:2]([C:3](=[O:4])[H:13])([C:5]1([H:14])[C:6]([H:12])=[C:7]1[H:15])[H:11])([H:8])([H:9])[H:10]"
C       -1.01300253       1.25498183       0.49854053
C       -0.66153840      -0.19910168       0.68962263
C       -1.05562171      -1.24139999      -0.30235177
O       -0.04434402      -2.04017434      -0.12403570
C        0.76400287      -0.74693782       0.38113916
C        1.29321883      -0.14170575      -0.88281476
C        2.40657703       0.47000672      -0.77230100
H       -2.09183517       1.40000769       0.57995259
H       -0.52211679       1.85794439       1.26315059
H       -0.68712612       1.62591714      -0.47226290
H       -0.95617844      -0.54403852       1.68771485
H        0.26091914      -0.19552584      -1.59675397
H       -2.01586110      -1.59431204      -0.66912768
H        1.43567220      -1.07020651       1.16925552
H        2.88723419       1.16454471      -1.44972809
15
Frame=5 idx=006522 GeodesicLength=0.6242491266852727 rxn_smarts="[C:1]([C@@:2]1([H:11])[C:3]([H:12])([H:13])[O:4][C@:5]1([C:6]#[C:7][H:15])[H:14])([H:8])([H:9])[H:10]>>[C:1]([C@@:2]([C:3](=[O:4])[H:13])([C:5]1([H:14])[C:6]([H:12])=[C:7]1[H:15])[H:11])([H:8])([H:9])[H:10]"
C       -0.99973918       1.25313807       0.48495628
C       -0.64857094      -0.20038492       0.68455154
C       -1.06084528      -1.23868698      -0.31028291
O       -0.06162233      -2.05531181      -0.13131293
C        0.77547553      -0.74375001       0.36726562
C        1.29833534      -0.15312495      -0.90474305
C        2.38259581       0.49165156      -0.74331387
H       -2.07746630       1.39963330       0.57819347
H       -0.49674416       1.86283444       1.23630783
H       -0.68774075       1.61735888      -0.49310487
H       -0.93825774      -0.53516862       1.68709090
H        0.23189948      -0.23116083      -1.61970932
H       -2.04314168      -1.59148101      -0.61670474
H        1.43952926      -1.08937953       1.15234027
H        2.88629295       1.21383241      -1.37153421
15
Frame=6 idx=006522 GeodesicLength=0.7487341803180491 rxn_smarts="[C:1]([C@@:2]1([H:11])[C:3]([H:12])([H:13])[O:4][C@:5]1([C:6]#[C:7][H:15])[H:14])([H:8])([H:9])[H:10]>>[C:1]([C@@:2]([C:3](=[O:4])[H:13])([C:5]1([H:14])[C:6]([H:12])=[C:7]1[H:15])[H:11])([H:8])([H:9])[H:10]"
C       -0.98729538       1.25118559       0.47179669
C       -0.63568217      -0.20162010       0.67955192
C       -1.06571143      -1.23603076      -0.31797839
O       -0.07849694      -2.06994578      -0.13846391
C        0.78723758      -0.73953674       0.35388919
C        1.30416026      -0.16255433      -0.92535816
C        2.35967827       0.50963740      -0.71749153
H       -2.06385225       1.39874351       0.57667631
H       -0.47281818       1.86753018       1.20990069
H       -0.68926587       1.60903165      -0.51312872
H       -0.92029177      -0.52639123       1.68640095
H        0.20266994      -0.26599168      -1.64130709
H       -2.06624814      -1.58626398      -0.56666112
H        1.44332863      -1.10746153       1.13555126
H        2.88258745       1.25966779      -1.29337806
15
Frame=7 idx=006522 GeodesicLength=0.873014526891078 rxn_smarts="[C:1]([C@@:2]1([H:11])[C:3]([H:12])([H:13])[O:4][C@:5]1([C:6]#[C:7][H:15])[H:14])([H:8])([H:9])[H:10]>>[C:1]([C@@:2]([C:3](=[O:4])[H:13])([C:5]1([H:14])[C:6]([H:12])=[C:7]1[H:15])[H:11])([H:8])([H:9])[H:10]"
C       -0.97599476       1.24909562       0.45922187
C       -0.62296684      -0.20281231       0.67467603
C       -1.07023731      -1.23344476      -0.32541763
O       -0.09484616      -2.08400355      -0.14563703
C        0.79925578      -0.73407732       0.34094149
C        1.31051422      -0.16964297      -0.94476334
C        2.33777539       0.52540486      -0.69419555
H       -2.05134841       1.39713541       0.57562285
H       -0.45072425       1.87205812       1.18411985
H       -0.69210171       1.60101186      -0.53217542
H       -0.90229461      -0.51782640       1.68568956
H        0.17297718      -0.29972720      -1.66163795
H       -2.08562667      -1.57925707      -0.51891637
H        1.44713920      -1.12421563       1.11873518
H        2.87847894       1.30030135      -1.21626352
15
Frame=8 idx=006522 GeodesicLength=0.997119166488961 rxn_smarts="[C:1]([C@@:2]1([H:11])[C:3]([H:12])([H:13])[O:4][C@:5]1([C:6]#[C:7][H:15])[H:14])([H:8])([H:9])[H:10]>>[C:1]([C@@:2]([C:3](=[O:4])[H:13])([C:5]1([H:14])[C:6]([H:12])=[C:7]1[H:15])[H:11])([H:8])([H:9])[H:10]"
C       -0.96557539       1.24690430       0.44707302
C       -0.61032998      -0.20394643       0.66989514
C       -1.07455618      -1.23097825      -0.33246502
O       -0.11090005      -2.09767815      -0.15272914
C        0.81151881      -0.72756583       0.32832230
C        1.31736179      -0.17483283      -0.96319776
C        2.31698871       0.53929409      -0.67325881
H       -2.03967125       1.39498132       0.57491087
H       -0.43010304       1.87649213       1.15873393
H       -0.69597133       1.59318687      -0.55045769
H       -0.88414752      -0.50931439       1.68498347
H        0.14264914      -0.33271509      -1.68087706
H       -2.10185657      -1.57076497      -0.47326811
H        1.45099685      -1.13984974       1.10173736
H        2.87359602       1.33678697      -1.13940249
15
Frame=9 idx=006522 GeodesicLength=1.1209600944022935 rxn_smarts="[C:1]([C@@:2]1([H:11])[C:3]([H:12])([H:13])[O:4][C@:5]1([C:6]#[C:7][H:15])[H:14])([H:8])([H:9])[H:10]>>[C:1]([C@@:2]([C:3](=[O:4])[H:13])([C:5]1([H:14])[C:6]([H:12])=[C:7]1[H:15])[H:11])([H:8])([H:9])[H:10]"
C       -0.95658754       1.24453452       0.43559499
C       -0.59797414      -0.20504160       0.66527198
C       -1.07862691      -1.22864455      -0.33918517
O       -0.12640751      -2.11080679      -0.15993913
C        0.82394333      -0.71962058       0.31603988
C        1.32453400      -0.17747652      -0.98060145
C        2.29692397       0.55282861      -0.65395533
H       -2.02941183       1.39192127       0.57479657
H       -0.41167623       1.88081945       1.13408689
H       -0.70148077       1.58565360      -0.56769118
H       -0.86600419      -0.50106910       1.68430101
H        0.11147860      -0.36449338      -1.69902335
H       -2.11515191      -1.56140608      -0.42962821
H        1.45491790      -1.15394664       1.08449325
H        2.87152324       1.36674780      -1.06456074
15
Frame=10 idx=006522 GeodesicLength=1.2446661376895174 rxn_smarts="[C:1]([C@@:2]1([H:11])[C:3]([H:12])([H:13])[O:4][C@:5]1([C:6]#[C:7][H:15])[H:14])([H:8])([H:9])[H:10]>>[C:1]([C@@:2]([C:3](=[O:4])[H:13])([C:5]1([H:14])[C:6]([H:12])=[C:7]1[H:15])[H:11])([H:8])([H:9])[H:10]"
C       -0.94827376       1.24209195       0.42438249
C       -0.58561956      -0.20607041       0.66068248
C       -1.08264227      -1.22649091      -0.34540838
O       -0.14184641      -2.12376747      -0.16702906
C        0.83658525      -0.71077254       0.30392471
C        1.33217765      -0.17857397      -0.99732372
C        2.27785062       0.56544900      -0.63655686
H       -2.01975794       1.38845221       0.57490585
H       -0.39444459       1.88513446       1.10962369
H       -0.70779409       1.57820896      -0.58436979
H       -0.84760052      -0.49274785       1.68361069
H        0.07937922      -0.39583205      -1.71631614
H       -2.12613294      -1.55115415      -0.38758590
H        1.45894995      -1.16709409       1.06680553
H        2.86916941       1.39316687      -0.98934558
15
Frame=11 idx=006522 GeodesicLength=1.3681421670037228 rxn_smarts="[C:1]([C@@:2]1([H:11])[C:3]([H:12])([H:13])[O:4][C@:5]1([C:6]#[C:7][H:15])[H:14])([H:8])([H:9])[H:10]>>[C:1]([C@@:2]([C:3](=[O:4])[H:13])([C:5]1([H:14])[C:6]([H:12])=[C:7]1[H:15])[H:11])([H:8])([H:9])[H:10]"
C       -0.94131758       1.23946667       0.41369101
C       -0.57351584      -0.20704805       0.65618669
C       -1.08652873      -1.22455297      -0.35121351
O       -0.15688490      -2.13634854      -0.17420070
C        0.84932746      -0.70053815       0.29200300
C        1.34009462      -0.17730794      -1.01324875
C        2.25924189       0.57857495      -0.62039139
H       -2.01142879       1.38411315       0.57551232
H       -0.37930561       1.88941852       1.08570025
H       -0.71568165       1.57092530      -0.60019822
H       -0.82912870      -0.48457425       1.68292165
H        0.04611640      -0.42624042      -1.73272524
H       -2.13484332      -1.54058928      -0.34704838
H        1.46308841      -1.17872837       1.04863817
H        2.87076633       1.41342937      -0.91562690
15
Frame=12 idx=006522 GeodesicLength=1.4914907037225529 rxn_smarts="[C:1]([C@@:2]1([H:11])[C:3]([H:12])([H:13])[O:4][C@:5]1([C:6]#[C:7][H:15])[H:14])([H:8])([H:9])[H:10]>>[C:1]([C@@:2]([C:3](=[O:4])[H:13])([C:5]1([H:14])[C:6]([H:12])=[C:7]1[H:15])[H:11])([H:8])([H:9])[H:10]"
C       -0.93551345       1.23669924       0.40336028
C       -0.56158744      -0.20797319       0.65172469
C       -1.09039761      -1.22289004      -0.35652774
O       -0.17169397      -2.14873481      -0.18137503
C        0.86218094      -0.68907524       0.28017663
C        1.34834043      -0.17395919      -1.02854002
C        2.24104345       0.59236816      -0.60545527
H       -2.00421413       1.37906328       0.57649086
H       -0.36596406       1.89373735       1.06209483
H       -0.72493015       1.56373337      -0.61537761
H       -0.81049961      -0.47644601       1.68221159
H        0.01152966      -0.45600295      -1.74837391
H       -2.14164453      -1.52987475      -0.30772014
H        1.46740639      -1.18902336       1.02985383
H        2.87594407       1.42837814      -0.84254300
15
Frame=13 idx=006522 GeodesicLength=1.614771346361591 rxn_smarts="[C:1]([C@@:2]1([H:11])[C:3]([H:12])([H:13])[O:4][C@:5]1([C:6]#[C:7][H:15])[H:14])([H:8])([H:9])[H:10]>>[C:1]([C@@:2]([C:3](=[O:4])[H:13])([C:5]1([H:14])[C:6]([H:12])=[C:7]1[H:15])[H:11])([H:8])([H:9])[H:10]"
C       -0.92981350       1.23391599       0.39295008
C       -0.54936978      -0.20876598       0.64710557
C       -1.09428219      -1.22141985      -0.36124108
O       -0.18669876      -2.16117453      -0.18836905
C        0.87531626      -0.67694652       0.26818929
C        1.35721508      -0.16959039      -1.04358326
C        2.22350808       0.60612177      -0.59224216
H       -1.99696091       1.37390656       0.57743593
H       -0.35311627       1.89812218       1.03821169
H       -0.73439415       1.55642421      -0.63041381
H       -0.79126110      -0.46792926       1.68135923
H       -0.02437095      -0.48584930      -1.76347557
H       -2.14681478      -1.51865874      -0.26918506
H        1.47200410      -1.19857064       1.01016273
H        2.87903886       1.44041450      -0.76690452
15
Frame=14 idx=006522 GeodesicLength=1.737987534980701 rxn_smarts="[C:1]([C@@:2]1([H:11])[C:3]([H:12])([H:13])[O:4][C@:5]1([C:6]#[C:7][H:15])[H:14])([H:8])([H:9])[H:10]>>[C:1]([C@@:2]([C:3](=[O:4])[H:13])([C:5]1([H:14])[C:6]([H:12])=[C:7]1[H:15])[H:11])([H:8])([H:9])[H:10]"
C       -0.92511798       1.23102999       0.38270390
C       -0.53719066      -0.20944350       0.64240672
C       -1.09813257      -1.22028120      -0.36539612
O       -0.20147214      -2.17351381      -0.19532151
C        0.88861794      -0.66355104       0.25609118
C        1.36651486      -0.16314765      -1.05824219
C        2.20606338       0.62133864      -0.58019402
H       -1.99065040       1.36811072       0.57861796
H       -0.34190654       1.90265367       1.01438992
H       -0.74509513       1.54912700      -0.64504432
H       -0.77166718      -0.45928713       1.68040998
H       -0.06191159      -0.51527603      -1.77798840
H       -2.15032834      -1.50760036      -0.23140395
H        1.47696618      -1.20666511       0.98957393
H        2.88531017       1.44650581      -0.69060307
15
Frame=15 idx=006522 GeodesicLength=1.8614202626983565 rxn_smarts="[C:1]([C@@:2]1([H:11])[C:3]([H:12])([H:13])[O:4][C@:5]1([C:6]#[C:7][H:15])[H:14])([H:8])([H:9])[H:10]>>[C:1]([C@@:2]([C:3](=[O:4])[H:13])([C:5]1([H:14])[C:6]([H:12])=[C:7]1[H:15])[H:11])([H:8])([H:9])[H:10]"
C       -0.92060432       1.22816900       0.37225592
C       -0.52462643      -0.20993452       0.63745295
C       -1.10198081      -1.21941773      -0.36889494
O       -0.21632694      -2.18595838      -0.20210174
C        0.90226918      -0.64932183       0.24360418
C        1.37646821      -0.15533299      -1.07287543
C        2.18904587       0.63740998      -0.56974624
H       -1.98437008       1.36216571       0.57977495
H       -0.33124817       1.90739955       0.99008434
H       -0.75624517       1.54171506      -0.65971072
H       -0.75122966      -0.45018384       1.67925465
H       -0.10124475      -0.54482361      -1.79208874
H       -2.15236054      -1.49640144      -0.19393965
H        1.48245841      -1.21377008       0.96779900
H        2.88999520       1.44828512      -0.61086852
15
Frame=16 idx=006522 GeodesicLength=1.9850597928630858 rxn_smarts="[C:1]([C@@:2]1([H:11])[C:3]([H:12])([H:13])[O:4][C@:5]1([C:6]#[C:7][H:15])[H:14])([H:8])([H:9])[H:10]>>[C:1]([C@@:2]([C:3](=[O:4])[H:13])([C:5]1([H:14])[C:6]([H:12])=[C:7]1[H:15])[H:11])([H:8])([H:9])[H:10]"
C       -0.91548097       1.22534037       0.36131215
C       -0.51135775      -0.21024616       0.63205556
C       -1.10594753      -1.21867586      -0.37164249
O       -0.23173786      -2.19862311      -0.20861103
C        0.91638562      -0.63487265       0.23051057
C        1.38738958      -0.14691328      -1.08759177
C        2.17321505       0.65310811      -0.56092254
H       -1.97724152       1.35651954       0.58075850
H       -0.32001267       1.91219643       0.96472525
H       -0.76709663       1.53393570      -0.67470115
H       -0.72964968      -0.44037628       1.67766266
H       -0.14246902      -0.57495854      -1.80570863
H       -2.15314794      -1.48453697      -0.15639801
H        1.48839832      -1.22059781       0.94460283
H        2.88875299       1.44870051      -0.52605190
