11
Frame=0 idx=011330 GeodesicLength=0.0 rxn_smarts="[C:1]([C:2]#[C:3][C:4](=[O:5])[C:6]#[C:7][H:11])([H:8])([H:9])[H:10]>>[C:1](=[C:2]=[C:3]=[C:4]=[O:5])([H:8])[H:10].[C:6](#[C:7][H:11])[H:9]"
C       -1.66308537      -0.32206710      -0.77061335
C       -1.26561729       0.94476785      -0.49230408
C       -0.46606400       1.79681841      -0.06840486
C        0.78436450       1.36006864       0.45314890
O        1.74246359       1.84778360       0.91358625
C        0.87309395      -0.42886659       0.35862113
C        1.74392929      -1.20899898       0.69326805
H       -2.37584354      -0.81409292      -0.11650861
H       -0.27276531      -0.62340727      -0.17077933
H       -1.62488256      -0.68062345      -1.79436276
H        2.52440671      -1.87138214       0.99434862
11
Frame=1 idx=011330 GeodesicLength=0.09960097697325866 rxn_smarts="[C:1]([C:2]#[C:3][C:4](=[O:5])[C:6]#[C:7][H:11])([H:8])([H:9])[H:10]>>[C:1](=[C:2]=[C:3]=[C:4]=[O:5])([H:8])[H:10].[C:6](#[C:7][H:11])[H:9]"
C       -1.67399589      -0.32003371      -0.77266994
C       -1.26448859       0.94816994      -0.50799993
C       -0.44848984       1.78916243      -0.09191551
C        0.78971202       1.35864231       0.45591551
O        1.72859680       1.85589864       0.94660760
C        0.88410042      -0.44698117       0.36619503
C        1.76342727      -1.21603168       0.70174920
H       -2.41607049      -0.77802932      -0.12619762
H       -0.29249026      -0.65276236      -0.15850823
H       -1.64285511      -0.68502814      -1.79442251
H        2.57255366      -1.85300693       0.98124641
11
Frame=2 idx=011330 GeodesicLength=0.19916233113810416 rxn_smarts="[C:1]([C:2]#[C:3][C:4](=[O:5])[C:6]#[C:7][H:11])([H:8])([H:9])[H:10]>>[C:1](=[C:2]=[C:3]=[C:4]=[O:5])([H:8])[H:10].[C:6](#[C:7][H:11])[H:9]"
C       -1.68497867      -0.31790906      -0.77411836
C       -1.26082350       0.95162678      -0.52835660
C       -0.42756809       1.78063039      -0.12084191
C        0.79301107       1.35667107       0.46348427
O        1.71160272       1.86354117       0.98357117
C        0.89322033      -0.46599083       0.37874940
C        1.78697366      -1.22262571       0.70111389
H       -2.45773111      -0.73634900      -0.13648906
H       -0.31545969      -0.68275892      -0.14075468
H       -1.65971937      -0.69379782      -1.79214345
H        2.62147265      -1.83303808       0.96578533
11
Frame=3 idx=011330 GeodesicLength=0.2985956054390287 rxn_smarts="[C:1]([C:2]#[C:3][C:4](=[O:5])[C:6]#[C:7][H:11])([H:8])([H:9])[H:10]>>[C:1](=[C:2]=[C:3]=[C:4]=[O:5])([H:8])[H:10].[C:6](#[C:7][H:11])[H:9]"
C       -1.69474291      -0.31626785      -0.77556649
C       -1.25672817       0.95440285      -0.54835708
C       -0.40740111       1.77103144      -0.14735058
C        0.79866317       1.35608352       0.46638627
O        1.69349562       1.87327941       1.01839462
C        0.90072273      -0.48465108       0.39811802
C        1.80769540      -1.22833197       0.71069318
H       -2.49868638      -0.69431796      -0.15102683
H       -0.34020556      -0.71267155      -0.11845536
H       -1.67247736      -0.70327112      -1.78957826
H        2.66966458      -1.81528568       0.93674251
11
Frame=4 idx=011330 GeodesicLength=0.39799969296039495 rxn_smarts="[C:1]([C:2]#[C:3][C:4](=[O:5])[C:6]#[C:7][H:11])([H:8])([H:9])[H:10]>>[C:1](=[C:2]=[C:3]=[C:4]=[O:5])([H:8])[H:10].[C:6](#[C:7][H:11])[H:9]"
C       -1.70528105      -0.31414408      -0.77620450
C       -1.25234764       0.95700106      -0.56802473
C       -0.38669507       1.75995486      -0.17249386
C        0.80384095       1.35441192       0.47105228
O        1.67490253       1.88164721       1.05235039
C        0.90953841      -0.50440502       0.41410087
C        1.83125641      -1.23492064       0.71118587
H       -2.53790372      -0.65130287      -0.16554736
H       -0.36572468      -0.74292534      -0.09809017
H       -1.68794154      -0.71150660      -1.78641389
H        2.71635539      -1.79381049       0.91808510
11
Frame=5 idx=011330 GeodesicLength=0.4973399414817758 rxn_smarts="[C:1]([C:2]#[C:3][C:4](=[O:5])[C:6]#[C:7][H:11])([H:8])([H:9])[H:10]>>[C:1](=[C:2]=[C:3]=[C:4]=[O:5])([H:8])[H:10].[C:6](#[C:7][H:11])[H:9]"
C       -1.71483445      -0.31247199      -0.77661391
C       -1.24744010       0.95893614      -0.58762697
C       -0.36673214       1.74802091      -0.19551266
C        0.80983693       1.35387161       0.47450841
O        1.65563953       1.89213700       1.08379698
C        0.91774075      -0.52357497       0.43469891
C        1.85407315      -1.24019055       0.71640830
H       -2.57572872      -0.60811187      -0.18340632
H       -0.39262804      -0.77291536      -0.07465475
H       -1.70048957      -0.72053876      -1.78274086
H        2.76056265      -1.77516216       0.89114289
11
Frame=6 idx=011330 GeodesicLength=0.5966986428827717 rxn_smarts="[C:1]([C:2]#[C:3][C:4](=[O:5])[C:6]#[C:7][H:11])([H:8])([H:9])[H:10]>>[C:1](=[C:2]=[C:3]=[C:4]=[O:5])([H:8])[H:10].[C:6](#[C:7][H:11])[H:9]"
C       -1.72501237      -0.31041157      -0.77646782
C       -1.24322782       0.96070864      -0.60528925
C       -0.34782180       1.73500958      -0.21499883
C        0.81626245       1.35265402       0.47780468
O        1.63748782       1.90174770       1.11196449
C        0.92753609      -0.54355874       0.45175714
C        1.87774230      -1.24641894       0.71790291
H       -2.61165256      -0.56566168      -0.20217563
H       -0.42008571      -0.80329337      -0.05356607
H       -1.71486685      -0.72709611      -1.77928534
H        2.80363845      -1.75367951       0.87235371
11
Frame=7 idx=011330 GeodesicLength=0.696056017927351 rxn_smarts="[C:1]([C:2]#[C:3][C:4](=[O:5])[C:6]#[C:7][H:11])([H:8])([H:9])[H:10]>>[C:1](=[C:2]=[C:3]=[C:4]=[O:5])([H:8])[H:10].[C:6](#[C:7][H:11])[H:9]"
C       -1.73460961      -0.30859690      -0.77607558
C       -1.23864126       0.96196296      -0.62273515
C       -0.32949729       1.72123718      -0.23265040
C        0.82300950       1.35207969       0.48109131
O        1.61939926       1.91283552       1.13770297
C        0.93712953      -0.56326607       0.47192595
C        1.90076654      -1.25196482       0.72290381
H       -2.64610170      -0.52320647      -0.22386469
H       -0.44904205      -0.83358903      -0.03048767
H       -1.72722609      -0.73403049      -1.77544400
H        2.84481317      -1.73346157       0.84763345
11
Frame=8 idx=011330 GeodesicLength=0.795473117573665 rxn_smarts="[C:1]([C:2]#[C:3][C:4](=[O:5])[C:6]#[C:7][H:11])([H:8])([H:9])[H:10]>>[C:1](=[C:2]=[C:3]=[C:4]=[O:5])([H:8])[H:10].[C:6](#[C:7][H:11])[H:9]"
C       -1.74493640      -0.30626033      -0.77495616
C       -1.23347781       0.96299175      -0.64055367
C       -0.31085692       1.70629838      -0.24925094
C        0.82993971       1.35063282       0.48480953
O        1.60084087       1.92258974       1.16315085
C        0.94764506      -0.58412709       0.49020198
C        1.92483040      -1.25858002       0.72314979
H       -2.67928719      -0.47929695      -0.24614546
H       -0.47963094      -0.86429932      -0.00802648
H       -1.74129855      -0.74056326      -1.77076465
H        2.88623178      -1.70938572       0.82838520
11
Frame=9 idx=011330 GeodesicLength=0.8949032778368018 rxn_smarts="[C:1]([C:2]#[C:3][C:4](=[O:5])[C:6]#[C:7][H:11])([H:8])([H:9])[H:10]>>[C:1](=[C:2]=[C:3]=[C:4]=[O:5])([H:8])[H:10].[C:6](#[C:7][H:11])[H:9]"
C       -1.75450320      -0.30423847      -0.77365279
C       -1.22713576       0.96322909      -0.65939153
C       -0.29257684       1.69062380      -0.26440220
C        0.83631548       1.35000297       0.49001552
O        1.58227080       1.93439241       1.18668791
C        0.95776811      -0.60445530       0.51284796
C        1.94846072      -1.26394592       0.72693425
H       -2.71067979      -0.43478770      -0.27154070
H       -0.51206926      -0.89479148       0.01698153
H       -1.75299897      -0.74863003      -1.76527703
H        2.92514870      -1.68739937       0.80079707
11
Frame=10 idx=011330 GeodesicLength=0.9944115385907758 rxn_smarts="[C:1]([C:2]#[C:3][C:4](=[O:5])[C:6]#[C:7][H:11])([H:8])([H:9])[H:10]>>[C:1](=[C:2]=[C:3]=[C:4]=[O:5])([H:8])[H:10].[C:6](#[C:7][H:11])[H:9]"
C       -1.76478076      -0.30165414      -0.77164897
C       -1.22070593       0.96324497      -0.67771029
C       -0.27444388       1.67396115      -0.27807584
C        0.84334929       1.34874967       0.49472280
O        1.56358746       1.94512139       1.20932904
C        0.96906173      -0.62574244       0.53348934
C        1.97276340      -1.27029035       0.72730320
H       -2.74049863      -0.38984582      -0.29779709
H       -0.54629509      -0.92560879       0.04132165
H       -1.76603536      -0.75572658      -1.75918417
H        2.96399778      -1.66220906       0.77825034
11
Frame=11 idx=011330 GeodesicLength=1.093986112536501 rxn_smarts="[C:1]([C:2]#[C:3][C:4](=[O:5])[C:6]#[C:7][H:11])([H:8])([H:9])[H:10]>>[C:1](=[C:2]=[C:3]=[C:4]=[O:5])([H:8])[H:10].[C:6](#[C:7][H:11])[H:9]"
C       -1.77557152      -0.29863897      -0.76914848
C       -1.21440154       0.96302173      -0.69527178
C       -0.25709455       1.65655779      -0.28960615
C        0.85077656       1.34719344       0.49924232
O        1.54564196       1.95542179       1.23002827
C        0.98143109      -0.64766035       0.55285778
C        1.99746560      -1.27723528       0.72583478
H       -2.76866067      -0.34504113      -0.32537856
H       -0.58237015      -0.95672773       0.06518145
H       -1.77962020      -0.76185595      -1.75276058
H        3.00240343      -1.63503536       0.75902096
11
Frame=12 idx=011330 GeodesicLength=1.1935689784734973 rxn_smarts="[C:1]([C:2]#[C:3][C:4](=[O:5])[C:6]#[C:7][H:11])([H:8])([H:9])[H:10]>>[C:1](=[C:2]=[C:3]=[C:4]=[O:5])([H:8])[H:10].[C:6](#[C:7][H:11])[H:9]"
C       -1.78549664      -0.29587865      -0.76671499
C       -1.20702551       0.96197048      -0.71330720
C       -0.24017629       1.63855051      -0.29952718
C        0.85773006       1.34664354       0.50526999
O        1.52802918       1.96820061       1.24887765
C        0.99362031      -0.66877655       0.57698920
C        2.02141574      -1.28286903       0.72995038
H       -2.79430211      -0.30082050      -0.35606862
H       -0.62054473      -0.98763531       0.09102843
H       -1.79058860      -0.76911283      -1.74591088
H        3.03733859      -1.61027227       0.72941322
11
Frame=13 idx=011330 GeodesicLength=1.2931952467316181 rxn_smarts="[C:1]([C:2]#[C:3][C:4](=[O:5])[C:6]#[C:7][H:11])([H:8])([H:9])[H:10]>>[C:1](=[C:2]=[C:3]=[C:4]=[O:5])([H:8])[H:10].[C:6](#[C:7][H:11])[H:9]"
C       -1.79674451      -0.29224670      -0.76353324
C       -1.20074345       0.96114102      -0.72960188
C       -0.22456129       1.62000500      -0.30703491
C        0.86564904       1.34531713       0.50985031
O        1.51167379       1.97912559       1.26569510
C        1.00785019      -0.69107302       0.59638241
C        2.04679688      -1.28990718       0.72697173
H       -2.81868321      -0.25714373      -0.38691088
H       -0.66100652      -1.01900112       0.11525995
H       -1.80349128      -0.77424885      -1.73883385
H        3.07326037      -1.58196814       0.71175525
11
Frame=14 idx=011330 GeodesicLength=1.3928310144884601 rxn_smarts="[C:1]([C:2]#[C:3][C:4](=[O:5])[C:6]#[C:7][H:11])([H:8])([H:9])[H:10]>>[C:1](=[C:2]=[C:3]=[C:4]=[O:5])([H:8])[H:10].[C:6](#[C:7][H:11])[H:9]"
C       -1.80830006      -0.28820982      -0.76015236
C       -1.19449048       0.96007948      -0.74535447
C       -0.20984276       1.60095077      -0.31267288
C        0.87371743       1.34411587       0.51454970
O        1.49617147       1.99034984       1.28076091
C        1.02308941      -0.71355941       0.61573526
C        2.07250409      -1.29700531       0.72330122
H       -2.84112877      -0.21414835      -0.41902716
H       -0.70401889      -1.05055075       0.13941730
H       -1.81620259      -0.77883172      -1.73156598
H        3.10850115      -1.55319060       0.69500845
11
Frame=15 idx=011330 GeodesicLength=1.4924491733683465 rxn_smarts="[C:1]([C:2]#[C:3][C:4](=[O:5])[C:6]#[C:7][H:11])([H:8])([H:9])[H:10]>>[C:1](=[C:2]=[C:3]=[C:4]=[O:5])([H:8])[H:10].[C:6](#[C:7][H:11])[H:9]"
C       -1.81975484      -0.28397368      -0.75671839
C       -1.18806242       0.95867569      -0.76062933
C       -0.19599360       1.58148506      -0.31647748
C        0.88183396       1.34349624       0.51964406
O        1.48126222       2.00267729       1.29430746
C        1.03935585      -0.73572290       0.63621414
C        2.09861116      -1.30341970       0.72072547
H       -2.86138531      -0.17226570      -0.45287867
H       -0.74979204      -1.08209570       0.16411941
H       -1.82780281      -0.78329979      -1.72413845
H        3.14172782      -1.52555680       0.67583179
11
Frame=16 idx=011330 GeodesicLength=1.592052033377758 rxn_smarts="[C:1]([C:2]#[C:3][C:4](=[O:5])[C:6]#[C:7][H:11])([H:8])([H:9])[H:10]>>[C:1](=[C:2]=[C:3]=[C:4]=[O:5])([H:8])[H:10].[C:6](#[C:7][H:11])[H:9]"
C       -1.83197799      -0.27911319      -0.75301862
C       -1.18221917       0.95731603      -0.77485056
C       -0.18342283       1.56162466      -0.31819942
C        0.89040869       1.34273954       0.52415725
O        1.46769568       2.01449691       1.30596373
C        1.05726502      -0.75839801       0.65471530
C        2.12564206      -1.31031465       0.71432322
H       -2.88013273      -0.13125200      -0.48739197
H       -0.79891809      -1.11383592       0.18836948
H       -1.83984199      -0.78669544      -1.71661216
H        3.17550135      -1.49656791       0.66254375
