15
Frame=0 idx=007160 GeodesicLength=0.0 rxn_smarts="[O:1]([C:2]1([C:3]([C:4](=[O:5])[H:11])([H:9])[H:10])[C:6]([H:12])([H:13])[C:7]1([H:14])[H:15])[H:8]>>[C:6](=[C:7]([H:14])[H:15])([H:12])[H:13].[H:8][H:10].[O:1]=[C:2]=[C:3]([C:4](=[O:5])[H:11])[H:9]"
O        0.06809579      -0.35352125      -1.57543886
C       -0.27243083       0.00727414      -0.38042219
C        0.72105933       0.04408802       0.62323610
C        2.12281267       0.45902287       0.38223619
O        2.47069570       1.17439686      -0.51784083
C       -1.71460957      -0.46431158       0.14210906
C       -1.55148417       0.92317607      -0.21009325
H        0.91337607      -1.36242200      -1.02030385
H        0.42599344       0.00382608       1.66956897
H        1.25789995      -1.57961925      -0.23130703
H        2.84763098       0.08573875       1.13210139
H       -1.77870645      -0.74762139       1.18357716
H       -2.15034582      -1.13880189      -0.58129293
H       -1.87542736       1.27405559      -1.17892148
H       -1.48455969       1.67471893       0.56279155
15
Frame=1 idx=007160 GeodesicLength=0.12165725110320953 rxn_smarts="[O:1]([C:2]1([C:3]([C:4](=[O:5])[H:11])([H:9])[H:10])[C:6]([H:12])([H:13])[C:7]1([H:14])[H:15])[H:8]>>[C:6](=[C:7]([H:14])[H:15])([H:12])[H:13].[H:8][H:10].[O:1]=[C:2]=[C:3]([C:4](=[O:5])[H:11])[H:9]"
O        0.07176769      -0.36451864      -1.57798507
C       -0.26016773       0.00002863      -0.38292845
C        0.73298040       0.02407295       0.62289537
C        2.12637939       0.47002523       0.38963225
O        2.47417740       1.15113445      -0.53703392
C       -1.73255035      -0.45680549       0.14348109
C       -1.55903856       0.92892850      -0.20304154
H        0.93368147      -1.38011330      -1.04336173
H        0.42945286      -0.00862031       1.66693702
H        1.28559986      -1.58485147      -0.23543083
H        2.85191139       0.12696236       1.15307691
H       -1.80681279      -0.74277705       1.18376690
H       -2.17280351      -1.12616593      -0.58220069
H       -1.88020247       1.28515895      -1.17109924
H       -1.49437504       1.67754111       0.57329195
15
Frame=2 idx=007160 GeodesicLength=0.2431951674462157 rxn_smarts="[O:1]([C:2]1([C:3]([C:4](=[O:5])[H:11])([H:9])[H:10])[C:6]([H:12])([H:13])[C:7]1([H:14])[H:15])[H:8]>>[C:6](=[C:7]([H:14])[H:15])([H:12])[H:13].[H:8][H:10].[O:1]=[C:2]=[C:3]([C:4](=[O:5])[H:11])[H:9]"
O        0.07505225      -0.37662642      -1.58056752
C       -0.24771356      -0.00776082      -0.38554125
C        0.74524665       0.00355028       0.62218226
C        2.12934671       0.48133133       0.39666912
O        2.47854761       1.12749499      -0.55459496
C       -1.75074160      -0.44893939       0.14528529
C       -1.56666994       0.93485096      -0.19582550
H        0.95477019      -1.39787959      -1.06742383
H        0.43318547      -0.02186578       1.66381097
H        1.31407577      -1.59012493      -0.24012847
H        2.85442741       0.16949019       1.17376535
H       -1.83515240      -0.73726952       1.18436437
H       -2.19553628      -1.11322022      -0.58254450
H       -1.88483930       1.29627500      -1.16320319
H       -1.50399900       1.68069392       0.58375186
15
Frame=3 idx=007160 GeodesicLength=0.3646272633090931 rxn_smarts="[O:1]([C:2]1([C:3]([C:4](=[O:5])[H:11])([H:9])[H:10])[C:6]([H:12])([H:13])[C:7]1([H:14])[H:15])[H:8]>>[C:6](=[C:7]([H:14])[H:15])([H:12])[H:13].[H:8][H:10].[O:1]=[C:2]=[C:3]([C:4](=[O:5])[H:11])[H:9]"
O        0.07793566      -0.38989848      -1.58316819
C       -0.23504716      -0.01608535      -0.38828563
C        0.75787574      -0.01743543       0.62108262
C        2.13169162       0.49289072       0.40334028
O        2.48386836       1.10356378      -0.57049185
C       -1.76916165      -0.44070388       0.14754555
C       -1.57439294       0.94095026      -0.18844431
H        0.97670135      -1.41565112      -1.09254982
H        0.43719294      -0.03592621       1.66017266
H        1.34328086      -1.59543464      -0.24535342
H        2.85505867       0.21319947       1.19412528
H       -1.86369493      -0.73107126       1.18540085
H       -2.21850213      -1.09997903      -0.58229132
H       -1.88934943       1.30738236      -1.15524404
H       -1.51345696       1.68419883       0.59416133
15
Frame=4 idx=007160 GeodesicLength=0.4859730998211228 rxn_smarts="[O:1]([C:2]1([C:3]([C:4](=[O:5])[H:11])([H:9])[H:10])[C:6]([H:12])([H:13])[C:7]1([H:14])[H:15])[H:8]>>[C:6](=[C:7]([H:14])[H:15])([H:12])[H:13].[H:8][H:10].[O:1]=[C:2]=[C:3]([C:4](=[O:5])[H:11])[H:9]"
O        0.08040204      -0.40439830      -1.58576388
C       -0.22214515      -0.02493269      -0.39118943
C        0.77088569      -0.03883977       0.61958077
C        2.13340238       0.50463277       0.40963190
O        2.49020889       1.07942784      -0.58467244
C       -1.78779178      -0.43208997       0.15028989
C       -1.58222388       0.94723318      -0.18089934
H        0.99954332      -1.43334063      -1.11881462
H        0.44147954      -0.05080531       1.65599974
H        1.37315946      -1.60078112      -0.25106312
H        2.85367957       0.25797215       1.21411579
H       -1.89241269      -0.72415092       1.18691503
H       -2.24166450      -1.08646149      -0.58140099
H       -1.89374892       1.31845447      -1.14723733
H       -1.52277398       1.68807980       0.60450802
15
Frame=5 idx=007160 GeodesicLength=0.6072411183817431 rxn_smarts="[O:1]([C:2]1([C:3]([C:4](=[O:5])[H:11])([H:9])[H:10])[C:6]([H:12])([H:13])[C:7]1([H:14])[H:15])[H:8]>>[C:6](=[C:7]([H:14])[H:15])([H:12])[H:13].[H:8][H:10].[O:1]=[C:2]=[C:3]([C:4](=[O:5])[H:11])[H:9]"
O        0.08244518      -0.42016727      -1.58833982
C       -0.20898575      -0.03427906      -0.39427424
C        0.78429543      -0.06059184       0.61766486
C        2.13447469       0.51649557       0.41552974
O        2.49763475       1.05516658      -0.59707688
C       -1.80660543      -0.42309641       0.15354099
C       -1.59019296       0.95370399      -0.17319409
H        1.02335878      -1.45084949      -1.14627849
H        0.44604908      -0.06645762       1.65127936
H        1.40364054      -1.60616521      -0.25718932
H        2.85019545       0.30361142       1.23366601
H       -1.92126830      -0.71648886       1.18893867
H       -2.26497062      -1.07269974      -0.57984203
H       -1.89807096       1.32945827      -1.13920156
H       -1.53199991       1.69235968       0.61477680
15
Frame=6 idx=007160 GeodesicLength=0.7284759803710822 rxn_smarts="[O:1]([C:2]1([C:3]([C:4](=[O:5])[H:11])([H:9])[H:10])[C:6]([H:12])([H:13])[C:7]1([H:14])[H:15])[H:8]>>[C:6](=[C:7]([H:14])[H:15])([H:12])[H:13].[H:8][H:10].[O:1]=[C:2]=[C:3]([C:4](=[O:5])[H:11])[H:9]"
O        0.08405892      -0.43727394      -1.59085501
C       -0.19554258      -0.04410492      -0.39756529
C        0.79811658      -0.08263323       0.61533403
C        2.13491640       0.52839813       0.42103474
O        2.50618315       1.03088346      -0.60765915
C       -1.82558620      -0.41371701       0.15732563
C       -1.59832762       0.96036984      -0.16533539
H        1.04823125      -1.46805303      -1.17502846
H        0.45089313      -0.08283892       1.64600229
H        1.43466561      -1.61158918      -0.26365956
H        2.84452446       0.34991115       1.25269087
H       -1.95024257      -0.70805535       1.19150944
H       -2.28837459      -1.05872445      -0.57757847
H       -1.90233775       1.34036076      -1.13116345
H       -1.54117819       1.69706669       0.62494777
15
Frame=7 idx=007160 GeodesicLength=0.8496917661104247 rxn_smarts="[O:1]([C:2]1([C:3]([C:4](=[O:5])[H:11])([H:9])[H:10])[C:6]([H:12])([H:13])[C:7]1([H:14])[H:15])[H:8]>>[C:6](=[C:7]([H:14])[H:15])([H:12])[H:13].[H:8][H:10].[O:1]=[C:2]=[C:3]([C:4](=[O:5])[H:11])[H:9]"
O        0.08524375      -0.45579439      -1.59325718
C       -0.18179092      -0.05439123      -0.40108598
C        0.81235458      -0.10491333       0.61259653
C        2.13474496       0.54025019       0.42616259
O        2.51586636       1.00670170      -0.61639250
C       -1.84472313      -0.40394354       0.16166593
C       -1.60665390       0.96723904      -0.15733167
H        1.07423309      -1.48482685      -1.20513873
H        0.45599360      -0.09990551       1.64017032
H        1.46618083      -1.61705753      -0.27040734
H        2.83662856       0.39666244       1.27109663
H       -1.97932496      -0.69881952       1.19465689
H       -2.31183030      -1.04456197      -0.57458164
H       -1.90656527       1.35113038      -1.12315086
H       -1.55035726       1.70223014       0.63499701
15
Frame=8 idx=007160 GeodesicLength=0.9709323895722862 rxn_smarts="[O:1]([C:2]1([C:3]([C:4](=[O:5])[H:11])([H:9])[H:10])[C:6]([H:12])([H:13])[C:7]1([H:14])[H:15])[H:8]>>[C:6](=[C:7]([H:14])[H:15])([H:12])[H:13].[H:8][H:10].[O:1]=[C:2]=[C:3]([C:4](=[O:5])[H:11])[H:9]"
O        0.08600652      -0.47580589      -1.59546855
C       -0.16771404      -0.06511908      -0.40485943
C        0.82701163      -0.12736782       0.60946296
C        2.13398471       0.55197449       0.43091801
O        2.52670940       0.98273962      -0.62325548
C       -1.86400065      -0.39376985       0.16658209
C       -1.61521247       0.97431863      -0.14919352
H        1.10142436      -1.50102653      -1.23671691
H        0.46133494      -0.11756675       1.63379333
H        1.49813888      -1.62256801      -0.27734424
H        2.82649616       0.44358461       1.28880281
H       -2.00849838      -0.68875247       1.19840648
H       -2.33528361      -1.03024529      -0.57082466
H       -1.91078780       1.36172649      -1.11519471
H       -1.55960965       1.70787785       0.64489182
15
Frame=9 idx=007160 GeodesicLength=1.0921376041223818 rxn_smarts="[O:1]([C:2]1([C:3]([C:4](=[O:5])[H:11])([H:9])[H:10])[C:6]([H:12])([H:13])[C:7]1([H:14])[H:15])[H:8]>>[C:6](=[C:7]([H:14])[H:15])([H:12])[H:13].[H:8][H:10].[O:1]=[C:2]=[C:3]([C:4](=[O:5])[H:11])[H:9]"
O        0.08631111      -0.49772813      -1.59736744
C       -0.15328976      -0.07643382      -0.40885106
C        0.84209226      -0.15013982       0.60597103
C        2.13274364       0.56329463       0.43531908
O        2.53829731       0.95920541      -0.62797412
C       -1.88346355      -0.38311980       0.17213213
C       -1.62397286       0.98165970      -0.14098085
H        1.12999177      -1.51616571      -1.26996946
H        0.46688739      -0.13592507       1.62686732
H        1.53062833      -1.62821700      -0.28460162
H        2.81415355       0.49076550       1.30568668
H       -2.03783930      -0.67768339       1.20285003
H       -2.35882750      -1.01574700      -0.56620126
H       -1.91487484       1.37210762      -1.10741689
H       -1.56883754       1.71412689       0.65453643
15
Frame=10 idx=007160 GeodesicLength=1.2133848695587384 rxn_smarts="[O:1]([C:2]1([C:3]([C:4](=[O:5])[H:11])([H:9])[H:10])[C:6]([H:12])([H:13])[C:7]1([H:14])[H:15])[H:8]>>[C:6](=[C:7]([H:14])[H:15])([H:12])[H:13].[H:8][H:10].[O:1]=[C:2]=[C:3]([C:4](=[O:5])[H:11])[H:9]"
O        0.08618460      -0.52145973      -1.59885552
C       -0.13849563      -0.08819992      -0.41312121
C        0.85759196      -0.17302557       0.60213322
C        2.13094919       0.57433244       0.43942091
O        2.55094668       0.93617177      -0.63080158
C       -1.90306559      -0.37203360       0.17831882
C       -1.63301500       0.98923337      -0.13269365
H        1.15989109      -1.53024908      -1.30494551
H        0.47262738      -0.15477395       1.61942303
H        1.56356139      -1.63388902      -0.29196914
H        2.79961909       0.53753396       1.32173975
H       -2.06728643      -0.66565291       1.20798055
H       -2.38231571      -1.00115795      -0.56071549
H       -1.91897207       1.38221025      -1.09981577
H       -1.57822097       1.72095992       0.66390160
15
Frame=11 idx=007160 GeodesicLength=1.3346714701117122 rxn_smarts="[O:1]([C:2]1([C:3]([C:4](=[O:5])[H:11])([H:9])[H:10])[C:6]([H:12])([H:13])[C:7]1([H:14])[H:15])[H:8]>>[C:6](=[C:7]([H:14])[H:15])([H:12])[H:13].[H:8][H:10].[O:1]=[C:2]=[C:3]([C:4](=[O:5])[H:11])[H:9]"
O        0.08561721      -0.54713465      -1.59986202
C       -0.12329831      -0.10042162      -0.41767034
C        0.87351722      -0.19599553       0.59797927
C        2.12864729       0.58501890       0.44323593
O        2.56457120       0.91371126      -0.63171054
C       -1.92282104      -0.36049989       0.18516776
C       -1.64236657       0.99705243      -0.12436415
H        1.19119915      -1.54303271      -1.34173663
H        0.47853461      -0.17405489       1.61146751
H        1.59692906      -1.63957235      -0.29941673
H        2.78295839       0.58364116       1.33691745
H       -2.09686291      -0.65260899       1.21383942
H       -2.40574100      -0.98651906      -0.55432821
H       -1.92308880       1.39198897      -1.09245302
H       -1.58779548       1.72842698       0.67293430
15
Frame=12 idx=007160 GeodesicLength=1.4560257277458908 rxn_smarts="[O:1]([C:2]1([C:3]([C:4](=[O:5])[H:11])([H:9])[H:10])[C:6]([H:12])([H:13])[C:7]1([H:14])[H:15])[H:8]>>[C:6](=[C:7]([H:14])[H:15])([H:12])[H:13].[H:8][H:10].[O:1]=[C:2]=[C:3]([C:4](=[O:5])[H:11])[H:9]"
O        0.08460389      -0.57495499      -1.60024148
C       -0.10767273      -0.11312011      -0.42250928
C        0.88986414      -0.21903994       0.59354672
C        2.12585807       0.59528385       0.44680772
O        2.57909783       0.89193514      -0.63072067
C       -1.94274121      -0.34849625       0.19270835
C       -1.65205526       1.00512997      -0.11603369
H        1.22393958      -1.55421484      -1.38050050
H        0.48457702      -0.19372217       1.60301844
H        1.63076943      -1.64524306      -0.30691883
H        2.76426583       0.62880983       1.35121272
H       -2.12659334      -0.63847302       1.22046759
H       -2.42908760      -0.97186614      -0.54698742
H       -1.92722711       1.40138373      -1.08540554
H       -1.59759854       1.73658799       0.68155588
15
Frame=13 idx=007160 GeodesicLength=1.5774220867506135 rxn_smarts="[O:1]([C:2]1([C:3]([C:4](=[O:5])[H:11])([H:9])[H:10])[C:6]([H:12])([H:13])[C:7]1([H:14])[H:15])[H:8]>>[C:6](=[C:7]([H:14])[H:15])([H:12])[H:13].[H:8][H:10].[O:1]=[C:2]=[C:3]([C:4](=[O:5])[H:11])[H:9]"
O        0.08315115      -0.60511942      -1.59985344
C       -0.09159090      -0.12632028      -0.42763711
C        0.90663562      -0.24215279       0.58887648
C        2.12262036       0.60506260       0.45017487
O        2.59442933       0.87092184      -0.62784328
C       -1.96283613      -0.33600228       0.20096064
C       -1.66210588       1.01348101      -0.10774476
H        1.25808465      -1.56349349      -1.42136135
H        0.49072535      -0.21374020       1.59409966
H        1.66511680      -1.65087305      -0.31447469
H        2.74365345       0.67280930       1.36462603
H       -2.15650004      -0.62317455       1.22789446
H       -2.45233801      -0.95723552      -0.53865517
H       -1.93138156       1.41033737      -1.07874909
H       -1.60766419       1.74549946       0.68968674
15
Frame=14 idx=007160 GeodesicLength=1.6988756035302939 rxn_smarts="[O:1]([C:2]1([C:3]([C:4](=[O:5])[H:11])([H:9])[H:10])[C:6]([H:12])([H:13])[C:7]1([H:14])[H:15])[H:8]>>[C:6](=[C:7]([H:14])[H:15])([H:12])[H:13].[H:8][H:10].[O:1]=[C:2]=[C:3]([C:4](=[O:5])[H:11])[H:9]"
O        0.08128555      -0.63785748      -1.59849463
C       -0.07501497      -0.14004925      -0.43306236
C        0.92383304      -0.26534289       0.58401819
C        2.11897088       0.61428828       0.45339130
O        2.61048889       0.85073212      -0.62311866
C       -1.98311719      -0.32299490       0.20994438
C       -1.67253829       1.02211714      -0.09954725
H        1.29352946      -1.57051652      -1.46449374
H        0.49694733      -0.23408570       1.58473540
H        1.70002227      -1.65642443      -0.32208130
H        2.72124035       0.71543499       1.37718765
H       -2.18661438      -0.60663420       1.23614704
H       -2.47546383      -0.94266964      -0.52929276
H       -1.93554159       1.41878201      -1.07256885
H       -1.61802754       1.75522046       0.69723557
15
Frame=15 idx=007160 GeodesicLength=1.8203544716370992 rxn_smarts="[O:1]([C:2]1([C:3]([C:4](=[O:5])[H:11])([H:9])[H:10])[C:6]([H:12])([H:13])[C:7]1([H:14])[H:15])[H:8]>>[C:6](=[C:7]([H:14])[H:15])([H:12])[H:13].[H:8][H:10].[O:1]=[C:2]=[C:3]([C:4](=[O:5])[H:11])[H:9]"
O        0.07906556      -0.67338843      -1.59593742
C       -0.05790164      -0.15432645      -0.43878460
C        0.94146376      -0.28860373       0.57903338
C        2.11495367       0.62291390       0.45651711
O        2.62720031       0.83139084      -0.61659489
C       -2.00358819      -0.30945984       0.21966443
C       -1.68338058       1.03104567      -0.09149740
H        1.33006041      -1.57490803      -1.51004501
H        0.50321138      -0.25471556       1.57495889
H        1.73553781      -1.66184817      -0.32974402
H        2.69719795       0.75646631       1.38893202
H       -2.21696045      -0.58878698       1.24523210
H       -2.49841661      -0.92822425      -0.51888202
H       -1.93970042       1.42664199      -1.06695575
H       -1.62874296       1.76580273       0.70410318
15
Frame=16 idx=007160 GeodesicLength=1.941829208890286 rxn_smarts="[O:1]([C:2]1([C:3]([C:4](=[O:5])[H:11])([H:9])[H:10])[C:6]([H:12])([H:13])[C:7]1([H:14])[H:15])[H:8]>>[C:6](=[C:7]([H:14])[H:15])([H:12])[H:13].[H:8][H:10].[O:1]=[C:2]=[C:3]([C:4](=[O:5])[H:11])[H:9]"
O        0.07659042      -0.71192957      -1.59191785
C       -0.04019218      -0.16917462      -0.44480396
C        0.95954701      -0.31194500       0.57399068
C        2.11063369       0.63086497       0.45960378
O        2.64453000       0.81285726      -0.60831621
C       -2.02424645      -0.29538671       0.23011213
C       -1.69465297       1.04027166      -0.08364602
H        1.36733051      -1.57626529      -1.55818337
H        0.50949966      -0.27559429       1.56480555
H        1.77170834      -1.66711566      -0.33747216
H        2.67163383       0.79582147       1.39990298
H       -2.24755771      -0.56958529       1.25513443
H       -2.52112961      -0.91395307      -0.50742572
H       -1.94383258       1.43384750      -1.06198792
H       -1.63986195       1.77728664       0.71020364
