19
Frame=0 idx=011033 GeodesicLength=0.0 rxn_smarts="[C:1]([C:2]([C:3]([C@@:4]1([H:15])[C:5]([H:16])([H:17])[C@:6]1([O:7][H:19])[H:18])([H:13])[H:14])([H:11])[H:12])([H:8])([H:9])[H:10]>>[C:1]([C:2]([C:3]([C:4]([C:5]([C:6][O:7][H:19])([H:16])[H:17])([H:15])[H:18])([H:13])[H:14])([H:11])[H:12])([H:8])([H:9])[H:10]"
C       -2.73100374       0.30151331      -0.14898720
C       -1.34885445       0.64495246       0.38840035
C       -0.33557462      -0.47350121       0.16829661
C        1.02222042      -0.17048033       0.73333004
C        2.21553490      -0.95465072       0.30360350
C        2.38960740       0.32681691      -0.46860430
O        1.87341152       0.15606462      -1.73315370
H       -2.69792076       0.10875360      -1.22398467
H       -3.12942622      -0.59436003       0.33365474
H       -3.43993811       1.11311927       0.02268331
H       -1.41604617       0.86957122       1.45821312
H       -0.98232392       1.55830328      -0.09201475
H       -0.23110169      -0.67626536      -0.90236579
H       -0.70812638      -1.40118996       0.61826243
H        1.05147120       0.19860559       1.75681565
H        1.99693653      -1.81699497      -0.32043729
H        2.96656398      -1.16205537       1.05730124
H        1.53279272       0.97952435       0.24016385
H        1.97177731       0.99227335      -2.19117722
19
Frame=1 idx=011033 GeodesicLength=0.05679141416791685 rxn_smarts="[C:1]([C:2]([C:3]([C@@:4]1([H:15])[C:5]([H:16])([H:17])[C@:6]1([O:7][H:19])[H:18])([H:13])[H:14])([H:11])[H:12])([H:8])([H:9])[H:10]>>[C:1]([C:2]([C:3]([C:4]([C:5]([C:6][O:7][H:19])([H:16])[H:17])([H:15])[H:18])([H:13])[H:14])([H:11])[H:12])([H:8])([H:9])[H:10]"
C       -2.73546822       0.30050946      -0.14649458
C       -1.35473526       0.64475985       0.39411187
C       -0.33696649      -0.46799631       0.16618484
C        1.02103798      -0.16203351       0.73092772
C        2.21186603      -0.95366872       0.30393389
C        2.38783945       0.32106045      -0.47573199
O        1.89928457       0.14151189      -1.74767168
H       -2.70136815       0.11820684      -1.22330103
H       -3.13013468      -0.60171007       0.32733343
H       -3.44797766       1.10735195       0.03275577
H       -1.42309929       0.86073473       1.46563671
H       -0.99154088       1.56314618      -0.07924570
H       -0.23533490      -0.66543582      -0.90571359
H       -0.70548665      -1.39957195       0.61149132
H        1.04597873       0.19163834       1.75995040
H        1.99307183      -1.82154090      -0.31239410
H        2.96809587      -1.15057995       1.05572500
H        1.54323533       0.99550536       0.24908105
H        1.99170239       0.97811215      -2.20657935
19
Frame=2 idx=011033 GeodesicLength=0.11337994138200219 rxn_smarts="[C:1]([C:2]([C:3]([C@@:4]1([H:15])[C:5]([H:16])([H:17])[C@:6]1([O:7][H:19])[H:18])([H:13])[H:14])([H:11])[H:12])([H:8])([H:9])[H:10]>>[C:1]([C:2]([C:3]([C:4]([C:5]([C:6][O:7][H:19])([H:16])[H:17])([H:15])[H:18])([H:13])[H:14])([H:11])[H:12])([H:8])([H:9])[H:10]"
C       -2.73982358       0.29960385      -0.14414359
C       -1.36051721       0.64455284       0.39975130
C       -0.33834209      -0.46250105       0.16410484
C        1.01985465      -0.15360822       0.72865641
C        2.20826978      -0.95246085       0.30416877
C        2.38549206       0.31556560      -0.48299964
O        1.92575636       0.12644525      -1.76197950
H       -2.70471001       0.12774590      -1.22265137
H       -3.13078688      -0.60882077       0.32081790
H       -3.45584114       1.10165128       0.04257675
H       -1.43006315       0.85187983       1.47291413
H       -1.00058559       1.56787724      -0.06650060
H       -0.23951455      -0.65460518      -0.90899549
H       -0.70286849      -1.39791274       0.60470187
H        1.04036340       0.18422255       1.76309855
H        1.98930184      -1.82587234      -0.30429008
H        2.96985060      -1.13879907       1.05373569
H        1.55412110       1.01142188       0.25882304
H        2.01004288       0.96361401      -2.22178898
19
Frame=3 idx=011033 GeodesicLength=0.16978038928044084 rxn_smarts="[C:1]([C:2]([C:3]([C@@:4]1([H:15])[C:5]([H:16])([H:17])[C@:6]1([O:7][H:19])[H:18])([H:13])[H:14])([H:11])[H:12])([H:8])([H:9])[H:10]>>[C:1]([C:2]([C:3]([C:4]([C:5]([C:6][O:7][H:19])([H:16])[H:17])([H:15])[H:18])([H:13])[H:14])([H:11])[H:12])([H:8])([H:9])[H:10]"
C       -2.74406254       0.29880195      -0.14195397
C       -1.36617887       0.64434367       0.40527522
C       -0.33969763      -0.45704298       0.16207245
C        1.01867630      -0.14523872       0.72654745
C        2.20476620      -0.95103970       0.30428802
C        2.38254977       0.31034704      -0.49039757
O        1.95286544       0.11096642      -1.77599989
H       -2.70794234       0.13727466      -1.22204347
H       -3.13140389      -0.61563579       0.31417125
H       -3.46350036       1.09606781       0.05205370
H       -1.43690917       0.84309316       1.47999104
H       -1.00941587       1.57247217      -0.05388448
H       -0.24362778      -0.64384296      -0.91219048
H       -0.70029025      -1.39621755       0.59794005
H        1.03464252       0.17631334       1.76627600
H        1.98565557      -1.82998020      -0.29618202
H        2.97185728      -1.12674820       1.05129865
H        1.56548270       1.02723078       0.26948632
H        2.02653292       0.94883511      -2.23674829
19
Frame=4 idx=011033 GeodesicLength=0.225901123552845 rxn_smarts="[C:1]([C:2]([C:3]([C@@:4]1([H:15])[C:5]([H:16])([H:17])[C@:6]1([O:7][H:19])[H:18])([H:13])[H:14])([H:11])[H:12])([H:8])([H:9])[H:10]>>[C:1]([C:2]([C:3]([C:4]([C:5]([C:6][O:7][H:19])([H:16])[H:17])([H:15])[H:18])([H:13])[H:14])([H:11])[H:12])([H:8])([H:9])[H:10]"
C       -2.74814746       0.29810173      -0.13992836
C       -1.37168406       0.64413760       0.41063716
C       -0.34102959      -0.45164965       0.16010836
C        1.01749298      -0.13696747       0.72462963
C        2.20133641      -0.94940409       0.30426427
C        2.37896595       0.30546157      -0.49788049
O        1.98064163       0.09523228      -1.78966391
H       -2.71103384       0.14667818      -1.22146241
H       -3.13197055      -0.62209894       0.30749880
H       -3.47088515       1.09064560       0.06109518
H       -1.44358783       0.83445626       1.48680401
H       -1.01798358       1.57689469      -0.04152293
H       -0.24766541      -0.63320806      -0.91526681
H       -0.69776305      -1.39449178       0.59126146
H        1.02879983       0.16783841       1.76949690
H        1.98213440      -1.83381431      -0.28815473
H        2.97406634      -1.11445944       1.04837762
H        1.57730440       1.04286608       0.28115540
H        2.04100857       0.93378134      -2.25144915
19
Frame=5 idx=011033 GeodesicLength=0.28183607234803354 rxn_smarts="[C:1]([C:2]([C:3]([C@@:4]1([H:15])[C:5]([H:16])([H:17])[C@:6]1([O:7][H:19])[H:18])([H:13])[H:14])([H:11])[H:12])([H:8])([H:9])[H:10]>>[C:1]([C:2]([C:3]([C:4]([C:5]([C:6][O:7][H:19])([H:16])[H:17])([H:15])[H:18])([H:13])[H:14])([H:11])[H:12])([H:8])([H:9])[H:10]"
C       -2.75211708       0.29750131      -0.13806302
C       -1.37706066       0.64394044       0.41585143
C       -0.34234742      -0.44631942       0.15820961
C        1.01630404      -0.12878346       0.72291214
C        2.19799747      -0.94755488       0.30409146
C        2.37475090       0.30090492      -0.50546379
O        2.00917121       0.07931973      -1.80290096
H       -2.71401918       0.15596612      -1.22091873
H       -3.13252490      -0.62823170       0.30078914
H       -3.47804909       1.08538600       0.06972667
H       -1.45013282       0.82596970       1.49337822
H       -1.02631589       1.58116434      -0.02938984
H       -0.25163610      -0.62270039      -0.91823558
H       -0.69529544      -1.39274167       0.58465672
H        1.02285845       0.15883514       1.77274802
H        1.97875708      -1.83737611      -0.28023179
H        2.97650933      -1.10193813       1.04496408
H        1.58962197       1.05830575       0.29384746
H        2.05352813       0.91835230      -2.26597124
19
Frame=6 idx=011033 GeodesicLength=0.33758954303258865 rxn_smarts="[C:1]([C:2]([C:3]([C@@:4]1([H:15])[C:5]([H:16])([H:17])[C@:6]1([O:7][H:19])[H:18])([H:13])[H:14])([H:11])[H:12])([H:8])([H:9])[H:10]>>[C:1]([C:2]([C:3]([C:4]([C:5]([C:6][O:7][H:19])([H:16])[H:17])([H:15])[H:18])([H:13])[H:14])([H:11])[H:12])([H:8])([H:9])[H:10]"
C       -2.75597945       0.29699381      -0.13634287
C       -1.38232380       0.64374923       0.42093449
C       -0.34365853      -0.44104388       0.15637589
C        1.01509588      -0.12067530       0.72139832
C        2.19473165      -0.94548091       0.30376114
C        2.36988910       0.29669847      -0.51314479
O        2.03853447       0.06333509      -1.81564585
H       -2.71690277       0.16515462      -1.22040436
H       -3.13306455      -0.63405898       0.29404417
H       -3.48500881       1.08027343       0.07798207
H       -1.45656268       0.81761196       1.49973439
H       -1.03443709       1.58529051      -0.01745813
H       -0.25554950      -0.61229686      -0.92109870
H       -0.69288441      -1.39096727       0.57811773
H        1.01681488       0.14932784       1.77600555
H        1.97551629      -1.84063722      -0.27244552
H        2.97914983      -1.08918203       1.04105235
H        1.60243110       1.07351194       0.30755783
H        2.06420841       0.90239554      -2.28042370
19
Frame=7 idx=011033 GeodesicLength=0.3931806787206203 rxn_smarts="[C:1]([C:2]([C:3]([C@@:4]1([H:15])[C:5]([H:16])([H:17])[C@:6]1([O:7][H:19])[H:18])([H:13])[H:14])([H:11])[H:12])([H:8])([H:9])[H:10]>>[C:1]([C:2]([C:3]([C:4]([C:5]([C:6][O:7][H:19])([H:16])[H:17])([H:15])[H:18])([H:13])[H:14])([H:11])[H:12])([H:8])([H:9])[H:10]"
C       -2.75975170       0.29657202      -0.13475203
C       -1.38749075       0.64356365       0.42589817
C       -0.34497344      -0.43582027       0.15460999
C        1.01385755      -0.11263507       0.72009147
C        2.19152676      -0.94317621       0.30325926
C        2.36437219       0.29285850      -0.52092339
O        2.06881531       0.04741057      -1.82782468
H       -2.71970142       0.17423976      -1.21990933
H       -3.13360107      -0.63959737       0.28728093
H       -3.49178719       1.07530098       0.08588508
H       -1.46289415       0.80937938       1.50588797
H       -1.04237064       1.58927958      -0.00571613
H       -0.25941969      -0.60199187      -0.92385529
H       -0.69053341      -1.38917012       0.57164716
H        1.01067345       0.13934127       1.77924809
H        1.97240875      -1.84357425      -0.26484291
H        2.98196233      -1.07619797       1.03663132
H        1.61572881       1.08844608       0.32227852
H        2.07317833       0.88577132      -2.29489422
19
Frame=8 idx=011033 GeodesicLength=0.44862694150055865 rxn_smarts="[C:1]([C:2]([C:3]([C@@:4]1([H:15])[C:5]([H:16])([H:17])[C@:6]1([O:7][H:19])[H:18])([H:13])[H:14])([H:11])[H:12])([H:8])([H:9])[H:10]>>[C:1]([C:2]([C:3]([C:4]([C:5]([C:6][O:7][H:19])([H:16])[H:17])([H:15])[H:18])([H:13])[H:14])([H:11])[H:12])([H:8])([H:9])[H:10]"
C       -2.76345639       0.29622570      -0.13326791
C       -1.39258231       0.64338300       0.43075488
C       -0.34630726      -0.43064733       0.15291721
C        1.01257583      -0.10465404       0.71899049
C        2.18836579      -0.94063601       0.30256642
C        2.35819240       0.28939926      -0.52880235
O        2.10009141       0.03170103      -1.83935724
H       -2.72244129       0.18320885      -1.21941622
H       -3.13415021      -0.64486378       0.28052915
H       -3.49841123       1.07045996       0.09346406
H       -1.46914322       0.80127340       1.51185436
H       -1.05014515       1.59313510       0.00584247
H       -0.26326930      -0.59178658      -0.92650140
H       -0.68824924      -1.38735101       0.56525586
H        1.00444051       0.12890495       1.78245062
H        1.96942566      -1.84616248      -0.25748224
H        2.98491572      -1.06299818       1.03168584
H        1.62950267       1.10306993       0.33798688
H        2.08064563       0.86833823      -2.30947088
19
Frame=9 idx=011033 GeodesicLength=0.5039448303933854 rxn_smarts="[C:1]([C:2]([C:3]([C@@:4]1([H:15])[C:5]([H:16])([H:17])[C@:6]1([O:7][H:19])[H:18])([H:13])[H:14])([H:11])[H:12])([H:8])([H:9])[H:10]>>[C:1]([C:2]([C:3]([C:4]([C:5]([C:6][O:7][H:19])([H:16])[H:17])([H:15])[H:18])([H:13])[H:14])([H:11])[H:12])([H:8])([H:9])[H:10]"
C       -2.76711984       0.29594272      -0.13186287
C       -1.39762120       0.64320644       0.43551710
C       -0.34767877      -0.42552585       0.15130527
C        1.01123616      -0.09672359       0.71809007
C        2.18522782      -0.93785772       0.30165920
C        2.35134278       0.28633094      -0.53678836
O        2.13243738       0.01637610      -1.85015811
H       -2.72515550       0.19204238      -1.21890229
H       -3.13473116      -0.64987491       0.27382877
H       -3.50491014       1.06574145       0.10075058
H       -1.47532422       0.79330072       1.51764858
H       -1.05779172       1.59685833       0.01721835
H       -0.26712861      -0.58169019      -0.92903017
H       -0.68604181      -1.38551074       0.55896296
H        0.99812472       0.11805262       1.78558527
H        1.96655361      -1.84837812      -0.25042967
H        2.98797371      -1.04959916       1.02619821
H        1.64373244       1.11734560       0.35464519
H        2.08687433       0.84996299      -2.32423808
19
Frame=10 idx=011033 GeodesicLength=0.5591546307706591 rxn_smarts="[C:1]([C:2]([C:3]([C@@:4]1([H:15])[C:5]([H:16])([H:17])[C@:6]1([O:7][H:19])[H:18])([H:13])[H:14])([H:11])[H:12])([H:8])([H:9])[H:10]>>[C:1]([C:2]([C:3]([C:4]([C:5]([C:6][O:7][H:19])([H:16])[H:17])([H:15])[H:18])([H:13])[H:14])([H:11])[H:12])([H:8])([H:9])[H:10]"
C       -2.77077971       0.29570510      -0.13049523
C       -1.40263682       0.64303386       0.44019768
C       -0.34911596      -0.42046079       0.14978654
C        1.00981843      -0.08883582       0.71737953
C        2.18208309      -0.93484174       0.30050480
C        2.34380996       0.28366158      -0.54489587
O        2.16591046       0.00162597      -1.86014438
H       -2.72789684       0.20069727      -1.21833048
H       -3.13537302      -0.65464715       0.26725171
H       -3.51132116       1.06113675       0.10778309
H       -1.48144931       0.78548253       1.52328584
H       -1.06535108       1.60044680       0.02839784
H       -0.27104376      -0.57172585      -0.93143015
H       -0.68392843      -1.38365134       0.55280254
H        0.99173445       0.10681995       1.78862147
H        1.96376878      -1.85019907      -0.24376705
H        2.99109189      -1.03602437       1.02014296
H        1.65838265       1.13123800       0.37220032
H        2.09229636       0.83053832      -2.33929117
19
Frame=11 idx=011033 GeodesicLength=0.6143321608891715 rxn_smarts="[C:1]([C:2]([C:3]([C@@:4]1([H:15])[C:5]([H:16])([H:17])[C@:6]1([O:7][H:19])[H:18])([H:13])[H:14])([H:11])[H:12])([H:8])([H:9])[H:10]>>[C:1]([C:2]([C:3]([C:4]([C:5]([C:6][O:7][H:19])([H:16])[H:17])([H:15])[H:18])([H:13])[H:14])([H:11])[H:12])([H:8])([H:9])[H:10]"
C       -2.77450411       0.29549917      -0.12912165
C       -1.40767640       0.64287501       0.44481729
C       -0.35065144      -0.41546351       0.14837564
C        1.00831190      -0.08098233       0.71685243
C        2.17892032      -0.93160170       0.29907037
C        2.33557966       0.28139187      -0.55315182
O        2.20057421      -0.01238539      -1.86925551
H       -2.73076098       0.20913288      -1.21767516
H       -3.13612267      -0.65920437       0.26087148
H       -3.51772181       1.05665133       0.11460964
H       -1.48753671       0.77785642       1.52880208
H       -1.07289384       1.60391774       0.03937152
H       -0.27508026      -0.56193320      -0.93369999
H       -0.68191778      -1.38179060       0.54681700
H        0.98529909       0.09524914       1.79154815
H        1.96106743      -1.85163047      -0.23758345
H        2.99425566      -1.02230402       1.01350538
H        1.67340881       1.14472590       0.39059379
H        2.09744892       0.80999616      -2.35474720
19
Frame=12 idx=011033 GeodesicLength=0.6692941455497071 rxn_smarts="[C:1]([C:2]([C:3]([C@@:4]1([H:15])[C:5]([H:16])([H:17])[C@:6]1([O:7][H:19])[H:18])([H:13])[H:14])([H:11])[H:12])([H:8])([H:9])[H:10]>>[C:1]([C:2]([C:3]([C:4]([C:5]([C:6][O:7][H:19])([H:16])[H:17])([H:15])[H:18])([H:13])[H:14])([H:11])[H:12])([H:8])([H:9])[H:10]"
C       -2.77833625       0.29523758      -0.12757596
C       -1.41277733       0.64269854       0.44936650
C       -0.35239183      -0.41055325       0.14713002
C        1.00660661      -0.07315971       0.71642524
C        2.17556891      -0.92810573       0.29722282
C        2.32655163       0.27953313      -0.56162714
O        2.23617832      -0.02525500      -1.87741896
H       -2.73383056       0.21709539      -1.21672385
H       -3.13705119      -0.66353469       0.25503357
H       -3.52409593       1.05221771       0.12131021
H       -1.49357664       0.77051875       1.53413725
H       -1.08044235       1.60715107       0.04998009
H       -0.27937576      -0.55242166      -0.93572791
H       -0.68014067      -1.37986847       0.54117242
H        0.97875979       0.08336984       1.79420998
H        1.95826675      -1.85257737      -0.23205119
H        2.99726781      -1.00845808       1.00610859
H        1.68869830       1.15773690       0.40967236
H        2.10412040       0.78837503      -2.37064405
19
Frame=13 idx=011033 GeodesicLength=0.7243217222004257 rxn_smarts="[C:1]([C:2]([C:3]([C@@:4]1([H:15])[C:5]([H:16])([H:17])[C@:6]1([O:7][H:19])[H:18])([H:13])[H:14])([H:11])[H:12])([H:8])([H:9])[H:10]>>[C:1]([C:2]([C:3]([C:4]([C:5]([C:6][O:7][H:19])([H:16])[H:17])([H:15])[H:18])([H:13])[H:14])([H:11])[H:12])([H:8])([H:9])[H:10]"
C       -2.78231766       0.29499102      -0.12596325
C       -1.41797323       0.64254306       0.45391164
C       -0.35426430      -0.40569622       0.14597678
C        1.00480499      -0.06532227       0.71612280
C        2.17216978      -0.92443416       0.29509354
C        2.31684760       0.27797908      -0.57034498
O        2.27321522      -0.03716192      -1.88458134
H       -2.73714062       0.22488951      -1.21567026
H       -3.13811857      -0.66773493       0.24941310
H       -3.53057763       1.04787063       0.12794670
H       -1.49961828       0.76334155       1.53944625
H       -1.08809736       1.61032764       0.06046254
H       -0.28388019      -0.54307105      -0.93766875
H       -0.67844855      -1.37796250       0.53570250
H        0.97223650       0.07133818       1.79667656
H        1.95552617      -1.85321508      -0.22703943
H        3.00026294      -0.99450323       0.99819999
H        1.70433474       1.17029237       0.42933739
H        2.11103847       0.76552832      -2.38702181
19
Frame=14 idx=011033 GeodesicLength=0.7793074817714859 rxn_smarts="[C:1]([C:2]([C:3]([C@@:4]1([H:15])[C:5]([H:16])([H:17])[C@:6]1([O:7][H:19])[H:18])([H:13])[H:14])([H:11])[H:12])([H:8])([H:9])[H:10]>>[C:1]([C:2]([C:3]([C:4]([C:5]([C:6][O:7][H:19])([H:16])[H:17])([H:15])[H:18])([H:13])[H:14])([H:11])[H:12])([H:8])([H:9])[H:10]"
C       -2.78649723       0.29469163      -0.12411165
C       -1.42334980       0.64231198       0.45857593
C       -0.35635598      -0.40078661       0.14487208
C        1.00280887      -0.05734439       0.71575867
C        2.16854907      -0.92046813       0.29260909
C        2.30643676       0.27662989      -0.57946184
O        2.31178512      -0.04815526      -1.89053343
H       -2.74073578       0.23272665      -1.21427979
H       -3.13933109      -0.67192543       0.24395235
H       -3.53723567       1.04334527       0.13489272
H       -1.50576154       0.75602207       1.54479422
H       -1.09596022       1.61337000       0.07111544
H       -0.28870784      -0.53366079      -0.93949823
H       -0.67690903      -1.37594909       0.53027989
H        0.96564181       0.05939655       1.79868379
H        1.95263063      -1.85336938      -0.22248926
H        3.00299731      -0.98028379       0.98964296
H        1.72026165       1.18238446       0.44918922
H        2.11973297       0.74106437      -2.40399217
19
Frame=15 idx=011033 GeodesicLength=0.8345068740792548 rxn_smarts="[C:1]([C:2]([C:3]([C@@:4]1([H:15])[C:5]([H:16])([H:17])[C@:6]1([O:7][H:19])[H:18])([H:13])[H:14])([H:11])[H:12])([H:8])([H:9])[H:10]>>[C:1]([C:2]([C:3]([C:4]([C:5]([C:6][O:7][H:19])([H:16])[H:17])([H:15])[H:18])([H:13])[H:14])([H:11])[H:12])([H:8])([H:9])[H:10]"
C       -2.79101769       0.29433829      -0.12199503
C       -1.42897189       0.64209389       0.46332864
C       -0.35870734      -0.39592671       0.14387568
C        1.00064151      -0.04927720       0.71538706
C        2.16476497      -0.91636328       0.28973973
C        2.29527029       0.27545731      -0.58904745
O        2.35177696      -0.05797631      -1.89537050
H       -2.74485721       0.24033769      -1.21261959
H       -3.14079442      -0.67609153       0.23892992
H       -3.54421350       1.03881240       0.14206216
H       -1.51196887       0.74887404       1.55023873
H       -1.10415405       1.61636852       0.08168644
H       -0.29397865      -0.52446719      -0.94124588
H       -0.67551160      -1.37395285       0.52512946
H        0.95909264       0.04754621       1.80037002
H        1.94966637      -1.85327445      -0.21857241
H        3.00558853      -0.96599148       0.98049944
H        1.73641290       1.19403272       0.46923533
H        2.13096106       0.71545992      -2.42163177
19
Frame=16 idx=011033 GeodesicLength=0.8895951942877662 rxn_smarts="[C:1]([C:2]([C:3]([C@@:4]1([H:15])[C:5]([H:16])([H:17])[C@:6]1([O:7][H:19])[H:18])([H:13])[H:14])([H:11])[H:12])([H:8])([H:9])[H:10]>>[C:1]([C:2]([C:3]([C:4]([C:5]([C:6][O:7][H:19])([H:16])[H:17])([H:15])[H:18])([H:13])[H:14])([H:11])[H:12])([H:8])([H:9])[H:10]"
C       -2.79587973       0.29380927      -0.11937956
C       -1.43482288       0.64182459       0.46810327
C       -0.36147300      -0.39116225       0.14307074
C        0.99815616      -0.04114246       0.71482246
C        2.16052535      -0.91207562       0.28629644
C        2.28316862       0.27433981      -0.59926323
O        2.39292904      -0.06641669      -1.89892512
H       -2.74956084       0.24734102      -1.21032992
H       -3.14260469      -0.68016456       0.23484389
H       -3.55137782       1.03417095       0.14953440
H       -1.51815391       0.74204740       1.55557984
H       -1.11258170       1.61907900       0.09187831
H       -0.29990469      -0.51570912      -0.94268710
H       -0.67449752      -1.37185102       0.52052017
H        0.95250728       0.03585248       1.80142523
H        1.94626748      -1.85278780      -0.21539251
H        3.00770460      -0.95157955       0.97044497
H        1.75270208       1.20506808       0.48911996
H        2.14689616       0.68935648      -2.43966224
