11
Frame=0 idx=004705 GeodesicLength=0.0 rxn_smarts="[C:1]([C:2](=[O:3])[C:4]([O:5][H:11])([H:9])[H:10])([H:6])([H:7])[H:8]>>[C:1](/[C:2]([O:3][H:11])=[C:4](/[O:5][H:10])[H:9])([H:6])([H:7])[H:8]"
C       -1.60330680      -0.03256171      -0.14983642
C       -0.18555015       0.14637925       0.30410758
O        0.08773384       0.64081955       1.40820678
C        0.87644641      -0.29509646      -0.52958470
O        2.18545827       0.18608415       0.17969302
H       -2.14310255      -0.62945576       0.58574130
H       -1.66311122      -0.51899116      -1.12325228
H       -2.08341646       0.94578358      -0.20015279
H        0.93152782      -0.11625184      -1.59302882
H        1.87665693      -0.88987831       0.12568540
H        1.72066395       0.56316868       0.99242095
11
Frame=1 idx=004705 GeodesicLength=0.08885538024840861 rxn_smarts="[C:1]([C:2](=[O:3])[C:4]([O:5][H:11])([H:9])[H:10])([H:6])([H:7])[H:8]>>[C:1](/[C:2]([O:3][H:11])=[C:4](/[O:5][H:10])[H:9])([H:6])([H:7])[H:8]"
C       -1.60147452      -0.03254928      -0.14923796
C       -0.18390280       0.16384075       0.29484180
O        0.09328014       0.66487735       1.39840380
C        0.88089051      -0.28938740      -0.52947565
O        2.18085420       0.17591072       0.18318084
H       -2.12752179      -0.64216848       0.58623186
H       -1.66076427      -0.51433346      -1.12521026
H       -2.09546254       0.93940704      -0.18961623
H        0.93270326      -0.11688684      -1.59446298
H        1.87485445      -0.91098626       0.11706156
H        1.70654334       0.56227586       1.00828322
11
Frame=2 idx=004705 GeodesicLength=0.17772221226994805 rxn_smarts="[C:1]([C:2](=[O:3])[C:4]([O:5][H:11])([H:9])[H:10])([H:6])([H:7])[H:8]>>[C:1](/[C:2]([O:3][H:11])=[C:4](/[O:5][H:10])[H:9])([H:6])([H:7])[H:8]"
C       -1.59946006      -0.03241329      -0.14863446
C       -0.18222886       0.18098758       0.28554045
O        0.09855129       0.68798828       1.38891133
C        0.88537111      -0.28399236      -0.52909368
O        2.17627629       0.16561782       0.18663476
H       -2.11165084      -0.65478673       0.58630486
H       -1.65848239      -0.50908005      -1.12735437
H       -2.10697652       0.93301397      -0.17853495
H        0.93386813      -0.11822252      -1.59564731
H        1.87277954      -0.93216374       0.10821684
H        1.69195230       0.56305103       1.02365652
11
Frame=3 idx=004705 GeodesicLength=0.2665881835744599 rxn_smarts="[C:1]([C:2](=[O:3])[C:4]([O:5][H:11])([H:9])[H:10])([H:6])([H:7])[H:8]>>[C:1](/[C:2]([O:3][H:11])=[C:4](/[O:5][H:10])[H:9])([H:6])([H:7])[H:8]"
C       -1.59726985      -0.03217747      -0.14802729
C       -0.18052795       0.19773698       0.27626596
O        0.10351921       0.71020515       1.37975336
C        0.88988255      -0.27888330      -0.52843526
O        2.17173637       0.15517758       0.19006798
H       -2.09557103      -0.66725716       0.58597063
H       -1.65626418      -0.50332566      -1.12964674
H       -2.11790999       0.92660577      -0.16701084
H        0.93499166      -0.12014105      -1.59655909
H        1.87045187      -0.95344132       0.09905449
H        1.67696134       0.56550047       1.03856681
11
Frame=4 idx=004705 GeodesicLength=0.35541620096652 rxn_smarts="[C:1]([C:2](=[O:3])[C:4]([O:5][H:11])([H:9])[H:10])([H:6])([H:7])[H:8]>>[C:1](/[C:2]([O:3][H:11])=[C:4](/[O:5][H:10])[H:9])([H:6])([H:7])[H:8]"
C       -1.59491234      -0.03186682      -0.14741670
C       -0.17880010       0.21401443       0.26708041
O        0.10815059       0.73161326       1.37095513
C        0.89442350      -0.27403386      -0.52749881
O        2.16724667       0.14454950       0.19350478
H       -2.07935802      -0.67954427       0.58525463
H       -1.65409852      -0.49716656      -1.13206088
H       -2.12823649       0.92019257      -0.15514159
H        0.93605496      -0.12251887      -1.59718111
H        1.86788728      -0.97485614       0.08947197
H        1.66164247       0.56961675       1.05303216
11
Frame=5 idx=004705 GeodesicLength=0.4444353660345296 rxn_smarts="[C:1]([C:2](=[O:3])[C:4]([O:5][H:11])([H:9])[H:10])([H:6])([H:7])[H:8]>>[C:1](/[C:2]([O:3][H:11])=[C:4](/[O:5][H:10])[H:9])([H:6])([H:7])[H:8]"
C       -1.59239913      -0.03151264      -0.14679136
C       -0.17704812       0.22970716       0.25807787
O        0.11248460       0.75219741       1.36242160
C        0.89898891      -0.26939860      -0.52628241
O        2.16280801       0.13372851       0.19696490
H       -2.06315063      -0.69146999       0.58417365
H       -1.65200507      -0.49077007      -1.13443873
H       -2.13784613       0.91372720      -0.14312954
H        0.93702303      -0.12516882      -1.59748309
H        1.86512838      -0.99640953       0.07929958
H        1.64601616       0.57536936       1.06718754
11
Frame=6 idx=004705 GeodesicLength=0.5333648865211129 rxn_smarts="[C:1]([C:2](=[O:3])[C:4]([O:5][H:11])([H:9])[H:10])([H:6])([H:7])[H:8]>>[C:1](/[C:2]([O:3][H:11])=[C:4](/[O:5][H:10])[H:9])([H:6])([H:7])[H:8]"
C       -1.58972694      -0.03115642      -0.14615065
C       -0.17526288       0.24493081       0.24922021
O        0.11642644       0.77237883       1.35415955
C        0.90358288      -0.26491234      -0.52480723
O        2.15844176       0.12251814       0.20053579
H       -2.04684929      -0.70322304       0.58280848
H       -1.64992611      -0.48418457      -1.13686820
H       -2.14689696       0.90719308      -0.13093187
H        0.93795347      -0.12794275      -1.59747889
H        1.86203577      -1.01822578       0.06847585
H        1.63022184       0.58262405       1.08103696
11
Frame=7 idx=004705 GeodesicLength=0.6223572958712817 rxn_smarts="[C:1]([C:2](=[O:3])[C:4]([O:5][H:11])([H:9])[H:10])([H:6])([H:7])[H:8]>>[C:1](/[C:2]([O:3][H:11])=[C:4](/[O:5][H:10])[H:9])([H:6])([H:7])[H:8]"
C       -1.58688917      -0.03085231      -0.14546880
C       -0.17343718       0.25979737       0.24047064
O        0.11999852       0.79252496       1.34594778
C        0.90821451      -0.26045899      -0.52311114
O        2.15414425       0.11073437       0.20433720
H       -2.03035276      -0.71479841       0.58125427
H       -1.64785256      -0.47757490      -1.13924378
H       -2.15547365       0.90046154      -0.11862541
H        0.93892164      -0.13056922      -1.59718408
H        1.85845617      -1.04041050       0.05683044
H        1.61427023       0.59114609       1.09479290
11
Frame=8 idx=004705 GeodesicLength=0.7113877045434183 rxn_smarts="[C:1]([C:2](=[O:3])[C:4]([O:5][H:11])([H:9])[H:10])([H:6])([H:7])[H:8]>>[C:1](/[C:2]([O:3][H:11])=[C:4](/[O:5][H:10])[H:9])([H:6])([H:7])[H:8]"
C       -1.58386966      -0.03065486      -0.14472191
C       -0.17156281       0.27440201       0.23178749
O        0.12319757       0.81303389       1.33757531
C        0.91289580      -0.25594352      -0.52122949
O        2.14988096       0.09820334       0.20849298
H       -2.01358412      -0.72621512       0.57961503
H       -1.64574555      -0.47108750      -1.14147760
H       -2.16362623       0.89342257      -0.10625763
H        0.93999607      -0.13279897      -1.59661635
H        1.85424982      -1.06304152       0.04419602
H        1.59816815       0.60067968       1.10863616
11
Frame=9 idx=004705 GeodesicLength=0.8002945030441141 rxn_smarts="[C:1]([C:2](=[O:3])[C:4]([O:5][H:11])([H:9])[H:10])([H:6])([H:7])[H:8]>>[C:1](/[C:2]([O:3][H:11])=[C:4](/[O:5][H:10])[H:9])([H:6])([H:7])[H:8]"
C       -1.58065539      -0.03055111      -0.14387587
C       -0.16962689       0.28877098       0.22312785
O        0.12623940       0.83370506       1.32899282
C        0.91767426      -0.25147376      -0.51912701
O        2.14551534       0.08460255       0.21344300
H       -1.99640209      -0.73763656       0.57780625
H       -1.64359949      -0.46444236      -1.14363011
H       -2.17141289       0.88600372      -0.09352171
H        0.94141345      -0.13452957      -1.59572453
H        1.84926836      -1.08636119       0.03060848
H        1.58158595       0.61191222       1.12190083
11
Frame=10 idx=004705 GeodesicLength=0.889476067471603 rxn_smarts="[C:1]([C:2](=[O:3])[C:4]([O:5][H:11])([H:9])[H:10])([H:6])([H:7])[H:8]>>[C:1](/[C:2]([O:3][H:11])=[C:4](/[O:5][H:10])[H:9])([H:6])([H:7])[H:8]"
C       -1.57726398      -0.03062244      -0.14294112
C       -0.16764065       0.30274943       0.21462447
O        0.12880519       0.85512172       1.32004690
C        0.92251445      -0.24687795      -0.51686358
O        2.14114770       0.07023409       0.21870163
H       -1.97908828      -0.74868356       0.57613319
H       -1.64138432      -0.45832597      -1.14548485
H       -2.17870195       0.87829673      -0.08107195
H        0.94291207      -0.13559754      -1.59459431
H        1.84367674      -1.11000579       0.01562802
H        1.56502303       0.62371128       1.13582160
11
Frame=11 idx=004705 GeodesicLength=0.9781437081906709 rxn_smarts="[C:1]([C:2](=[O:3])[C:4]([O:5][H:11])([H:9])[H:10])([H:6])([H:7])[H:8]>>[C:1](/[C:2]([O:3][H:11])=[C:4](/[O:5][H:10])[H:9])([H:6])([H:7])[H:8]"
C       -1.57368535      -0.03081225      -0.14193150
C       -0.16559273       0.31633445       0.20626457
O        0.13113211       0.87674916       1.31106233
C        0.92745512      -0.24237556      -0.51426403
O        2.13660709       0.05472641       0.22480369
H       -1.96147206      -0.75975955       0.57428711
H       -1.63910858      -0.45213769      -1.14733729
H       -2.18555726       0.87032784      -0.06831995
H        0.94476901      -0.13611700      -1.59299064
H        1.83731598      -1.13424051      -0.00050447
H        1.54813667       0.63730469       1.14893017
11
Frame=12 idx=004705 GeodesicLength=1.0668893741921595 rxn_smarts="[C:1]([C:2](=[O:3])[C:4]([O:5][H:11])([H:9])[H:10])([H:6])([H:7])[H:8]>>[C:1](/[C:2]([O:3][H:11])=[C:4](/[O:5][H:10])[H:9])([H:6])([H:7])[H:8]"
C       -1.56993441      -0.03116140      -0.14082036
C       -0.16349124       0.32944985       0.19810799
O        0.13312568       0.89873977       1.30186045
C        0.93250562      -0.23795098      -0.51138541
O        2.13186405       0.03806007       0.23167898
H       -1.94371277      -0.77066664       0.57241747
H       -1.63674116      -0.44614365      -1.14901312
H       -2.19192121       0.86207449      -0.05553549
H        0.94696297      -0.13591363      -1.59103851
H        1.83022646      -1.15900126      -0.01806388
H        1.53111601       0.65251337       1.16179188
11
Frame=13 idx=004705 GeodesicLength=1.1560175381006088 rxn_smarts="[C:1]([C:2](=[O:3])[C:4]([O:5][H:11])([H:9])[H:10])([H:6])([H:7])[H:8]>>[C:1](/[C:2]([O:3][H:11])=[C:4](/[O:5][H:10])[H:9])([H:6])([H:7])[H:8]"
C       -1.56602621      -0.03164152      -0.13962194
C       -0.16131525       0.34192614       0.19024723
O        0.13494597       0.92046822       1.29267571
C        0.93767830      -0.23381163      -0.50811421
O        2.12679717       0.02002257       0.23957026
H       -1.92590463      -0.78148799       0.57030836
H       -1.63432288      -0.44006134      -1.15059229
H       -2.19771970       0.85358831      -0.04253774
H        0.94960887      -0.13502444      -1.58860168
H        1.82238165      -1.18433156      -0.03702709
H        1.51387671       0.67035324       1.17369341
11
Frame=14 idx=004705 GeodesicLength=1.2451101074960285 rxn_smarts="[C:1]([C:2](=[O:3])[C:4]([O:5][H:11])([H:9])[H:10])([H:6])([H:7])[H:8]>>[C:1](/[C:2]([O:3][H:11])=[C:4](/[O:5][H:10])[H:9])([H:6])([H:7])[H:8]"
C       -1.56199520      -0.03227587      -0.13836970
C       -0.15909554       0.35359051       0.18288766
O        0.13633350       0.94184377       1.28379633
C        0.94293905      -0.22998792      -0.50435797
O        2.12140282       0.00056507       0.24838041
H       -1.90831457      -0.79220874       0.56793720
H       -1.63177498      -0.43400305      -1.15213319
H       -2.20290989       0.84498144      -0.02953655
H        0.95262913      -0.13340291      -1.58558992
H        1.81381824      -1.21017288      -0.05752192
H        1.49696745       0.69107057       1.18450765
11
Frame=15 idx=004705 GeodesicLength=1.3341909177583062 rxn_smarts="[C:1]([C:2](=[O:3])[C:4]([O:5][H:11])([H:9])[H:10])([H:6])([H:7])[H:8]>>[C:1](/[C:2]([O:3][H:11])=[C:4](/[O:5][H:10])[H:9])([H:6])([H:7])[H:8]"
C       -1.55788613      -0.03304144      -0.13710570
C       -0.15683937       0.36419042       0.17626105
O        0.13726572       0.96207882       1.27573945
C        0.94826517      -0.22671402      -0.49995011
O        2.11556004      -0.02054385       0.25832141
H       -1.89121326      -0.80295021       0.56501761
H       -1.62908018      -0.42766876      -1.15378226
H       -2.20742588       0.83635411      -0.01644215
H        0.95607667      -0.13108109      -1.58182622
H        1.80455439      -1.23658740      -0.07952461
H        1.48072284       0.71596341       1.19329153
11
Frame=16 idx=004705 GeodesicLength=1.4232682867328097 rxn_smarts="[C:1]([C:2](=[O:3])[C:4]([O:5][H:11])([H:9])[H:10])([H:6])([H:7])[H:8]>>[C:1](/[C:2]([O:3][H:11])=[C:4](/[O:5][H:10])[H:9])([H:6])([H:7])[H:8]"
C       -1.55375453      -0.03391437      -0.13586451
C       -0.15456316       0.37352958       0.17057339
O        0.13776481       0.98046100       1.26899487
C        0.95362750      -0.22422677      -0.49472244
O        2.10908654      -0.04349290       0.26968179
H       -1.87485154      -0.81382196       0.56129724
H       -1.62622999      -0.42078434      -1.15566067
H       -2.21123885       0.82779118      -0.00317476
H        0.96003974      -0.12806572      -1.57712693
H        1.79468660      -1.26357348      -0.10303396
H        1.46543287       0.74609779       1.19903598
