15
Frame=0 idx=010450 GeodesicLength=0.0 rxn_smarts="[O:1]([C:2]([C:3]1([C:4]([O:5][H:13])([H:11])[H:12])[C:6]([H:14])([H:15])[O:7]1)([H:9])[H:10])[H:8]>>[O:1]([C:2]([C:3][C:6]([O:7][C:4]([O:5][H:13])([H:11])[H:12])([H:14])[H:15])([H:9])[H:10])[H:8]"
O       -2.33563407      -0.00186210      -0.71569812
C       -1.63072108      -0.37814954       0.45579225
C       -0.30127014       0.26763041       0.68872624
C        1.55769112      -0.60307177       0.37254154
O        2.56576403      -0.69936760      -0.53372917
C       -0.01658428       1.48372660      -0.05092781
O        0.45796506       0.34553045      -0.77137043
H       -1.73650435      -0.13313927      -1.45619122
H       -2.26272877      -0.10281477       1.30515923
H       -1.51379158      -1.47043942       0.49090194
H        1.91590681      -0.04472204       1.22343537
H        1.06967691      -1.54639280       0.58880742
H        2.29470298      -1.24331521      -1.27824015
H        0.76436644       2.16800363       0.27692457
H       -0.82883913       1.95838343      -0.59613166
15
Frame=1 idx=010450 GeodesicLength=0.040681822115371004 rxn_smarts="[O:1]([C:2]([C:3]1([C:4]([O:5][H:13])([H:11])[H:12])[C:6]([H:14])([H:15])[O:7]1)([H:9])[H:10])[H:8]>>[O:1]([C:2]([C:3][C:6]([O:7][C:4]([O:5][H:13])([H:11])[H:12])([H:14])[H:15])([H:9])[H:10])[H:8]"
O       -2.35199875       0.00827839      -0.70096646
C       -1.63914643      -0.37235770       0.46379949
C       -0.30343955       0.26372122       0.68146916
C        1.54971480      -0.60709655       0.37197202
O        2.58400974      -0.66297782      -0.51155787
C       -0.00843219       1.47210415      -0.06805737
O        0.44926541       0.32304827      -0.78367700
H       -1.76389573      -0.13542998      -1.44795225
H       -2.25817052      -0.08849547       1.32015589
H       -1.53210441      -1.46546887       0.50178989
H        1.89152163      -0.07873910       1.24953744
H        1.07797052      -1.56569828       0.55890499
H        2.33873365      -1.19073587      -1.27635186
H        0.78459647       2.14625037       0.25122303
H       -0.81862462       1.95359723      -0.61028910
15
Frame=2 idx=010450 GeodesicLength=0.08114568569688183 rxn_smarts="[O:1]([C:2]([C:3]1([C:4]([O:5][H:13])([H:11])[H:12])[C:6]([H:14])([H:15])[O:7]1)([H:9])[H:10])[H:8]>>[O:1]([C:2]([C:3][C:6]([O:7][C:4]([O:5][H:13])([H:11])[H:12])([H:14])[H:15])([H:9])[H:10])[H:8]"
O       -2.36743043       0.01836102      -0.68647219
C       -1.64690173      -0.36661534       0.47162499
C       -0.30534778       0.25997577       0.67424268
C        1.54165230      -0.61142070       0.37133073
O        2.60012870      -0.62705438      -0.48868193
C       -0.00025460       1.46042056      -0.08524689
O        0.44087224       0.30075888      -0.79569875
H       -1.79046958      -0.13756079      -1.43966096
H       -2.25298342      -0.07449127       1.33469536
H       -1.54948272      -1.46042304       0.51259452
H        1.86713316      -0.11350829       1.27371742
H        1.08724496      -1.58436693       0.52928790
H        2.37984085      -1.13707483      -1.27283624
H        0.80425251       2.12447320       0.22589143
H       -0.80825447       1.94852612      -0.62478806
15
Frame=3 idx=010450 GeodesicLength=0.12160497710522745 rxn_smarts="[O:1]([C:2]([C:3]1([C:4]([O:5][H:13])([H:11])[H:12])[C:6]([H:14])([H:15])[O:7]1)([H:9])[H:10])[H:8]>>[O:1]([C:2]([C:3][C:6]([O:7][C:4]([O:5][H:13])([H:11])[H:12])([H:14])[H:15])([H:9])[H:10])[H:8]"
O       -2.38203119       0.02842973      -0.67212924
C       -1.65404759      -0.36087168       0.47931872
C       -0.30699450       0.25637526       0.66700246
C        1.53349709      -0.61608265       0.37056144
O        2.61429927      -0.59149662      -0.46504458
C        0.00794571       1.44862923      -0.10254429
O        0.43276779       0.27860542      -0.80747571
H       -1.81635158      -0.13954830      -1.43124307
H       -2.24717541      -0.06066859       1.34884489
H       -1.56604379      -1.45524651       0.52338899
H        1.84263379      -0.14913237       1.29607587
H        1.09750535      -1.60246406       0.49973076
H        2.41836861      -1.08229632      -1.26766084
H        0.82336572       2.10264439       0.20083926
H       -0.79773926       1.94312305      -0.63966466
15
Frame=4 idx=010450 GeodesicLength=0.16219219555980469 rxn_smarts="[O:1]([C:2]([C:3]1([C:4]([O:5][H:13])([H:11])[H:12])[C:6]([H:14])([H:15])[O:7]1)([H:9])[H:10])[H:8]>>[O:1]([C:2]([C:3][C:6]([O:7][C:4]([O:5][H:13])([H:11])[H:12])([H:14])[H:15])([H:9])[H:10])[H:8]"
O       -2.39582681       0.03847013      -0.65794818
C       -1.66060967      -0.35510051       0.48691149
C       -0.30836895       0.25290747       0.65975439
C        1.52524550      -0.62115727       0.36967898
O        2.62662257      -0.55641303      -0.44057922
C        0.01617994       1.43672234      -0.11997148
O        0.42495732       0.25654516      -0.81902363
H       -1.84156067      -0.14143282      -1.42271332
H       -2.24076619      -0.04693619       1.36263712
H       -1.58185630      -1.44993447       0.53425757
H        1.81806857      -0.18557418       1.31665297
H        1.10871284      -1.62006347       0.47019700
H        2.45431866      -1.02620869      -1.26093997
H        0.84194849       2.08080091       0.17606708
H       -0.78706530       1.93737464      -0.65498079
15
Frame=5 idx=010450 GeodesicLength=0.20292387552946434 rxn_smarts="[O:1]([C:2]([C:3]1([C:4]([O:5][H:13])([H:11])[H:12])[C:6]([H:14])([H:15])[O:7]1)([H:9])[H:10])[H:8]>>[O:1]([C:2]([C:3][C:6]([O:7][C:4]([O:5][H:13])([H:11])[H:12])([H:14])[H:15])([H:9])[H:10])[H:8]"
O       -2.40884916       0.04851382      -0.64394893
C       -1.66658449      -0.34931482       0.49438235
C       -0.30946895       0.24958272       0.65249727
C        1.51692592      -0.62661375       0.36865583
O        2.63712832      -0.52192231      -0.41539271
C        0.02439995       1.42475708      -0.13749547
O        0.41743900       0.23464975      -0.83036697
H       -1.86612960      -0.14317364      -1.41411278
H       -2.23374997      -0.03334193       1.37608774
H       -1.59688262      -1.44451612       0.54512535
H        1.79351866      -0.22268893       1.33544560
H        1.12093622      -1.63713032       0.44077629
H        2.48769346      -0.96919864      -1.25262469
H        0.85994460       2.05904391       0.15164548
H       -0.77632132       1.93135319      -0.67067436
15
Frame=6 idx=010450 GeodesicLength=0.24395153539685177 rxn_smarts="[O:1]([C:2]([C:3]1([C:4]([O:5][H:13])([H:11])[H:12])[C:6]([H:14])([H:15])[O:7]1)([H:9])[H:10])[H:8]>>[O:1]([C:2]([C:3][C:6]([O:7][C:4]([O:5][H:13])([H:11])[H:12])([H:14])[H:15])([H:9])[H:10])[H:8]"
O       -2.42110943       0.05854282      -0.63008434
C       -1.67200007      -0.34348495       0.50175584
C       -0.31028472       0.24637632       0.64520499
C        1.50850925      -0.63249244       0.36747575
O        2.64589487      -0.48807175      -0.38940227
C        0.03265705       1.41266087      -0.15515575
O        0.41022323       0.21285114      -0.84150141
H       -1.89006889      -0.14480190      -1.40537574
H       -2.22614573      -0.01981569       1.38919353
H       -1.61121864      -1.43893868       0.55606642
H        1.76896565      -0.26048037       1.35246210
H        1.13410473      -1.65366970       0.41139495
H        2.51848013      -0.91095858      -1.24275278
H        0.87742321       2.03732237       0.12751392
H       -0.76543064       1.92496055      -0.68679522
15
Frame=7 idx=010450 GeodesicLength=0.285252588453629 rxn_smarts="[O:1]([C:2]([C:3]1([C:4]([O:5][H:13])([H:11])[H:12])[C:6]([H:14])([H:15])[O:7]1)([H:9])[H:10])[H:8]>>[O:1]([C:2]([C:3][C:6]([O:7][C:4]([O:5][H:13])([H:11])[H:12])([H:14])[H:15])([H:9])[H:10])[H:8]"
O       -2.43261130       0.06858028      -0.61636325
C       -1.67683556      -0.33764567       0.50899766
C       -0.31081378       0.24329098       0.63786165
C        1.50000866      -0.63872756       0.36609944
O        2.65291598      -0.45495683      -0.36274984
C        0.04090440       1.40050376      -0.17290363
O        0.40330289       0.19124578      -0.85244628
H       -1.91339363      -0.14627701      -1.39652288
H       -2.21791233      -0.00644130       1.40195150
H       -1.62481241      -1.43325511       0.56697026
H        1.74447292      -0.29873169       1.36766954
H        1.14825725      -1.66960716       0.38214310
H        2.54666187      -0.85201354      -1.23122515
H        0.89432713       2.01575075       0.10376003
H       -0.75447207       1.91828431      -0.70324216
15
Frame=8 idx=010450 GeodesicLength=0.3269393756989908 rxn_smarts="[O:1]([C:2]([C:3]1([C:4]([O:5][H:13])([H:11])[H:12])[C:6]([H:14])([H:15])[O:7]1)([H:9])[H:10])[H:8]>>[O:1]([C:2]([C:3][C:6]([O:7][C:4]([O:5][H:13])([H:11])[H:12])([H:14])[H:15])([H:9])[H:10])[H:8]"
O       -2.44338935       0.07861285      -0.60280158
C       -1.68112348      -0.33175782       0.51613799
C       -0.31104882       0.24030737       0.63047974
C        1.49144819      -0.64538494       0.36453480
O        2.65829573      -0.42267140      -0.33539341
C        0.04915691       1.38825021      -0.19076403
O        0.39667734       0.16976775      -0.86322210
H       -1.93611584      -0.14762226      -1.38757424
H       -2.20910227       0.00688735       1.41438166
H       -1.63773447      -1.42743131       0.57793405
H        1.72008652      -0.33747415       1.38115110
H        1.16339506      -1.68499306       0.35299474
H        2.57220184      -0.79209649      -1.21813748
H        0.91068687       1.99432069       0.08035588
H       -0.74343421       1.91128519      -0.72007713
15
Frame=9 idx=010450 GeodesicLength=0.36903057487093033 rxn_smarts="[O:1]([C:2]([C:3]1([C:4]([O:5][H:13])([H:11])[H:12])[C:6]([H:14])([H:15])[O:7]1)([H:9])[H:10])[H:8]>>[O:1]([C:2]([C:3][C:6]([O:7][C:4]([O:5][H:13])([H:11])[H:12])([H:14])[H:15])([H:9])[H:10])[H:8]"
O       -2.45346475       0.08864422      -0.58940154
C       -1.68487581      -0.32586944       0.52315725
C       -0.31099158       0.23741648       0.62304900
C        1.48283433      -0.65239087       0.36274886
O        2.66205661      -0.39125849      -0.30748051
C        0.05741281       1.37595615      -0.20870085
O        0.39034766       0.14850037      -0.87385836
H       -1.95826777      -0.14881526      -1.37855131
H       -2.19970926       0.02006596       1.42650090
H       -1.64999769      -1.42152922       0.58887247
H        1.69586663      -0.37648190       1.39290177
H        1.17950002      -1.69974435       0.32404231
H        2.59510735      -0.73165465      -1.20343457
H        0.92651808       1.97312903       0.05737167
H       -0.73233662       1.90403198      -0.73721707
15
Frame=10 idx=010450 GeodesicLength=0.4115575008425395 rxn_smarts="[O:1]([C:2]([C:3]1([C:4]([O:5][H:13])([H:11])[H:12])[C:6]([H:14])([H:15])[O:7]1)([H:9])[H:10])[H:8]>>[O:1]([C:2]([C:3][C:6]([O:7][C:4]([O:5][H:13])([H:11])[H:12])([H:14])[H:15])([H:9])[H:10])[H:8]"
O       -2.46286806       0.09873791      -0.57608606
C       -1.68809579      -0.31988637       0.53005489
C       -0.31064875       0.23459598       0.61550973
C        1.47419519      -0.65978223       0.36068068
O        2.66429375      -0.36077701      -0.27892721
C        0.06561941       1.36349647      -0.22674392
O        0.38429850       0.12734978      -0.88434199
H       -1.97987813      -0.14983009      -1.36933893
H       -2.18973191       0.03324888       1.43825972
H       -1.66159607      -1.41539191       0.59981367
H        1.67175655      -0.41586551       1.40288581
H        1.19668469      -1.71380289       0.29517150
H        2.61547418      -0.67050331      -1.18702152
H        0.94174699       1.95202648       0.03474481
H       -0.72125056       1.89638381      -0.75466118
15
Frame=11 idx=010450 GeodesicLength=0.45465660438192457 rxn_smarts="[O:1]([C:2]([C:3]1([C:4]([O:5][H:13])([H:11])[H:12])[C:6]([H:14])([H:15])[O:7]1)([H:9])[H:10])[H:8]>>[O:1]([C:2]([C:3][C:6]([O:7][C:4]([O:5][H:13])([H:11])[H:12])([H:14])[H:15])([H:9])[H:10])[H:8]"
O       -2.47164409       0.10886629      -0.56292888
C       -1.69079747      -0.31387753       0.53687306
C       -0.30999076       0.23184334       0.60790916
C        1.46554026      -0.66758952       0.35836890
O        2.66504524      -0.33124712      -0.24978846
C        0.07382356       1.35101382      -0.24492162
O        0.37850966       0.10634682      -0.89478137
H       -2.00102635      -0.15070365      -1.36009048
H       -2.17913324       0.04638759       1.44979462
H       -1.67259308      -1.40920134       0.61080851
H        1.64782358      -0.45556200       1.41130695
H        1.21488460      -1.72729542       0.26642996
H        2.63323239      -0.60876842      -1.16897770
H        0.95646495       1.93125985       0.01248820
H       -0.71013924       1.88852730      -0.77249084
15
Frame=12 idx=010450 GeodesicLength=0.49836470522686394 rxn_smarts="[O:1]([C:2]([C:3]1([C:4]([O:5][H:13])([H:11])[H:12])[C:6]([H:14])([H:15])[O:7]1)([H:9])[H:10])[H:8]>>[O:1]([C:2]([C:3][C:6]([O:7][C:4]([O:5][H:13])([H:11])[H:12])([H:14])[H:15])([H:9])[H:10])[H:8]"
O       -2.47976370       0.11902815      -0.54983051
C       -1.69299404      -0.30780066       0.54357343
C       -0.30903686       0.22912002       0.60017694
C        1.45686247      -0.67572313       0.35573683
O        2.66434187      -0.30268662      -0.22012961
C        0.08203390       1.33835033      -0.26320361
O        0.37300895       0.08547769      -0.90510062
H       -2.02165328      -0.15139435      -1.35063230
H       -2.16795519       0.05947974       1.46098110
H       -1.68301344      -1.40279128       0.62180363
H        1.62403937      -0.49544347       1.41800418
H        1.23406646      -1.73996500       0.23778500
H        2.64836846      -0.54652678      -1.14916732
H        0.97067145       1.91062754      -0.00940290
H       -0.69897642       1.88024782      -0.79059423
15
Frame=13 idx=010450 GeodesicLength=0.5426268369932775 rxn_smarts="[O:1]([C:2]([C:3]1([C:4]([O:5][H:13])([H:11])[H:12])[C:6]([H:14])([H:15])[O:7]1)([H:9])[H:10])[H:8]>>[O:1]([C:2]([C:3][C:6]([O:7][C:4]([O:5][H:13])([H:11])[H:12])([H:14])[H:15])([H:9])[H:10])[H:8]"
O       -2.48725740       0.12923688      -0.53689508
C       -1.69467833      -0.30170377       0.55014484
C       -0.30778279       0.22643230       0.59236145
C        1.44821899      -0.68417965       0.35281375
O        2.66221042      -0.27518821      -0.19010795
C        0.09020172       1.32565494      -0.28154910
O        0.36776218       0.06480905      -0.91536878
H       -2.04179242      -0.15189078      -1.34112314
H       -2.15618677       0.07247869       1.47187535
H       -1.69281696      -1.39630519       0.63275311
H        1.60056212      -0.53534285       1.42311823
H        1.25428038      -1.75188497       0.20943850
H        2.66081218      -0.48422262      -1.12769569
H        0.98432631       1.89034528      -0.03082973
H       -0.68785963       1.87176089      -0.80893576
15
Frame=14 idx=010450 GeodesicLength=0.5874229495746395 rxn_smarts="[O:1]([C:2]([C:3]1([C:4]([O:5][H:13])([H:11])[H:12])[C:6]([H:14])([H:15])[O:7]1)([H:9])[H:10])[H:8]>>[O:1]([C:2]([C:3][C:6]([O:7][C:4]([O:5][H:13])([H:11])[H:12])([H:14])[H:15])([H:9])[H:10])[H:8]"
O       -2.49411826       0.13947600      -0.52413945
C       -1.69587079      -0.29561389       0.55654976
C       -0.30624834       0.22375935       0.58446848
C        1.43963429      -0.69286885       0.34959343
O        2.65868592      -0.24878064      -0.15991243
C        0.09832575       1.31292897      -0.29989138
O        0.36277439       0.04439110      -0.92556161
H       -2.06140583      -0.15216290      -1.33156814
H       -2.14388469       0.08530421       1.48242716
H       -1.70202324      -1.38975002       0.64357860
H        1.57749711      -0.57501571       1.42665724
H        1.27547544      -1.76292888       0.18154749
H        2.67051457      -0.42223440      -1.10463733
H        0.99743773       1.87042038      -0.05171386
H       -0.67679405       1.86307529      -0.82739794
15
Frame=15 idx=010450 GeodesicLength=0.6326762884070457 rxn_smarts="[O:1]([C:2]([C:3]1([C:4]([O:5][H:13])([H:11])[H:12])[C:6]([H:14])([H:15])[O:7]1)([H:9])[H:10])[H:8]>>[O:1]([C:2]([C:3][C:6]([O:7][C:4]([O:5][H:13])([H:11])[H:12])([H:14])[H:15])([H:9])[H:10])[H:8]"
O       -2.50035411       0.14973535      -0.51159604
C       -1.69659811      -0.28956081       0.56274798
C       -0.30446465       0.22108820       0.57651763
C        1.43114988      -0.70169530       0.34608941
O        2.65382358      -0.22347715      -0.12975088
C        0.10637904       1.30020081      -0.31814492
O        0.35804966       0.02428522      -0.93565513
H       -2.08046339      -0.15217675      -1.32199900
H       -2.13112155       0.09787060       1.49259832
H       -1.71063669      -1.38315129       0.65418282
H        1.55498086      -0.61418643       1.42867524
H        1.29760315      -1.77298502       0.15426514
H        2.67748753      -0.36107063      -1.08012414
H        1.00998590       1.85088698      -0.07195683
H       -0.66582111       1.85423621      -0.84584959
15
Frame=16 idx=010450 GeodesicLength=0.6785074329018433 rxn_smarts="[O:1]([C:2]([C:3]1([C:4]([O:5][H:13])([H:11])[H:12])[C:6]([H:14])([H:15])[O:7]1)([H:9])[H:10])[H:8]>>[O:1]([C:2]([C:3][C:6]([O:7][C:4]([O:5][H:13])([H:11])[H:12])([H:14])[H:15])([H:9])[H:10])[H:8]"
O       -2.50598542       0.16003634      -0.49924038
C       -1.69687172      -0.28352967       0.56875860
C       -0.30242772       0.21839106       0.56849266
C        1.42277313      -0.71067121       0.34228431
O        2.64767215      -0.19920965      -0.09961139
C        0.11436844       1.28744966      -0.33633687
O        0.35356858       0.00444279      -0.94568128
H       -2.09900559      -0.15193256      -1.31240177
H       -2.11787263       0.11023183       1.50241644
H       -1.71870977      -1.37650145       0.66460216
H        1.53297437      -0.65292118       1.42925642
H        1.32065645      -1.78206487       0.12757132
H        2.68180089      -0.30070029      -1.05419028
H        1.02198141       1.83175141      -0.09158841
H       -0.65492257       1.84522778      -0.86433155
