11
Frame=0 idx=004044 GeodesicLength=0.0 rxn_smarts="[O:1]([c:2]1[c:3]([H:8])[n:4]([H:9])[c:5]([H:10])[c:6]1[H:11])[H:7]>>[O:1]([C@:2]1([H:9])[C:3]([H:8])=[N:4][C:5]([H:10])=[C:6]1[H:11])[H:7]"
O        2.11687669      -0.29114693      -0.23392359
C        0.78161579      -0.10468616      -0.13476665
C       -0.15592170      -1.03467291      -0.58823545
N       -1.48689093      -0.49515775      -0.36969389
C       -1.27278462       0.67294540       0.25886095
C        0.07786231       0.97401157       0.39185275
H        2.57423467       0.44954693       0.16758961
H       -0.01991522      -1.85880527      -1.27090278
H       -0.99890307      -1.41826377       0.30898916
H       -2.11357624       1.24540076       0.62424236
H        0.49740232       1.86082818       0.84598752
11
Frame=1 idx=004044 GeodesicLength=0.0936270028104076 rxn_smarts="[O:1]([c:2]1[c:3]([H:8])[n:4]([H:9])[c:5]([H:10])[c:6]1[H:11])[H:7]>>[O:1]([C@:2]1([H:9])[C:3]([H:8])=[N:4][C:5]([H:10])=[C:6]1[H:11])[H:7]"
O        2.11346109      -0.30820761      -0.20970218
C        0.77729748      -0.13263863      -0.08372390
C       -0.16100476      -1.01961062      -0.62080209
N       -1.48296757      -0.49858989      -0.36724205
C       -1.27390970       0.68199644       0.24664597
C        0.07475185       0.97699656       0.38909473
H        2.57051476       0.46002589       0.13665415
H       -0.02011983      -1.85140474      -1.29258457
H       -0.97688598      -1.41654104       0.33317409
H       -2.11572316       1.24499284       0.62408060
H        0.49458581       1.86298079       0.84440524
11
Frame=2 idx=004044 GeodesicLength=0.18735127252789302 rxn_smarts="[O:1]([c:2]1[c:3]([H:8])[n:4]([H:9])[c:5]([H:10])[c:6]1[H:11])[H:7]>>[O:1]([C@:2]1([H:9])[C:3]([H:8])=[N:4][C:5]([H:10])=[C:6]1[H:11])[H:7]"
O        2.10855048      -0.32692126      -0.18056630
C        0.77113261      -0.15448759      -0.04508809
C       -0.16454245      -1.00350513      -0.65105669
N       -1.47785042      -0.50267469      -0.36411536
C       -1.27483354       0.69046239       0.23486478
C        0.07177067       0.97948948       0.38685319
H        2.56399246       0.46664587       0.10524395
H       -0.01976287      -1.84266599      -1.31240634
H       -0.95237979      -1.41426825       0.35839482
H       -2.11778855       1.24399163       0.62325006
H        0.49171140       1.86393354       0.84462599
11
Frame=3 idx=004044 GeodesicLength=0.281236443632659 rxn_smarts="[O:1]([c:2]1[c:3]([H:8])[n:4]([H:9])[c:5]([H:10])[c:6]1[H:11])[H:7]>>[O:1]([C@:2]1([H:9])[C:3]([H:8])=[N:4][C:5]([H:10])=[C:6]1[H:11])[H:7]"
O        2.10334227      -0.34500405      -0.15013662
C        0.76411942      -0.17288257      -0.01335087
C       -0.16681296      -0.98746893      -0.67858500
N       -1.47169485      -0.50688614      -0.36150289
C       -1.27569211       0.69851928       0.22329789
C        0.06875228       0.98105445       0.38713157
H        2.55578445       0.47045851       0.07138361
H       -0.01858032      -1.83342284      -1.33036272
H       -0.92775088      -1.41160085       0.38427159
H       -2.12025961       1.24351653       0.61996309
H        0.48879232       1.86371662       0.84789035
11
Frame=4 idx=004044 GeodesicLength=0.3752347735383948 rxn_smarts="[O:1]([c:2]1[c:3]([H:8])[n:4]([H:9])[c:5]([H:10])[c:6]1[H:11])[H:7]>>[O:1]([C@:2]1([H:9])[C:3]([H:8])=[N:4][C:5]([H:10])=[C:6]1[H:11])[H:7]"
O        2.09799606      -0.36113452      -0.12104273
C        0.75665801      -0.18917172       0.01411291
C       -0.16805083      -0.97169359      -0.70367731
N       -1.46460125      -0.51105049      -0.35957025
C       -1.27637807       0.70619005       0.21185861
C        0.06565414       0.98190450       0.38942843
H        2.54627679       0.47125622       0.03665262
H       -0.01662400      -1.82383484      -1.34667474
H       -0.90364238      -1.40848071       0.41089421
H       -2.12301582       1.24342234       0.61447880
H        0.48572734       1.86259277       0.85353944
11
Frame=5 idx=004044 GeodesicLength=0.4693451361708265 rxn_smarts="[O:1]([c:2]1[c:3]([H:8])[n:4]([H:9])[c:5]([H:10])[c:6]1[H:11])[H:7]>>[O:1]([C@:2]1([H:9])[C:3]([H:8])=[N:4][C:5]([H:10])=[C:6]1[H:11])[H:7]"
O        2.09259919      -0.37527511      -0.09368688
C        0.74893995      -0.20399434       0.03851881
C       -0.16846577      -0.95610999      -0.72687261
N       -1.45675295      -0.51514153      -0.35825375
C       -1.27690283       0.71341785       0.20076437
C        0.06244431       0.98231061       0.39311252
H        2.53591089       0.46912203       0.00201883
H       -0.01398614      -1.81384075      -1.36186290
H       -0.88023122      -1.40497473       0.43824901
H       -2.12604345       1.24341071       0.60752529
H        0.48248802       1.86107526       0.86048733
11
Frame=6 idx=004044 GeodesicLength=0.5635303621304286 rxn_smarts="[O:1]([c:2]1[c:3]([H:8])[n:4]([H:9])[c:5]([H:10])[c:6]1[H:11])[H:7]>>[O:1]([C@:2]1([H:9])[C:3]([H:8])=[N:4][C:5]([H:10])=[C:6]1[H:11])[H:7]"
O        2.08717628      -0.38745689      -0.06903311
C        0.74109014      -0.21763907       0.06010624
C       -0.16835498      -0.94065671      -0.74872835
N       -1.44834721      -0.51927915      -0.35726133
C       -1.27729392       0.72013443       0.19015774
C        0.05912837       0.98247223       0.39743350
H        2.52509864       0.46424974      -0.03028428
H       -0.01105669      -1.80351039      -1.37634035
H       -0.85734279      -1.40107585       0.46650949
H       -2.12922711       1.24320830       0.59986344
H        0.47912927       1.85955335       0.86757701
11
Frame=7 idx=004044 GeodesicLength=0.6577908152608365 rxn_smarts="[O:1]([c:2]1[c:3]([H:8])[n:4]([H:9])[c:5]([H:10])[c:6]1[H:11])[H:7]>>[O:1]([C@:2]1([H:9])[C:3]([H:8])=[N:4][C:5]([H:10])=[C:6]1[H:11])[H:7]"
O        2.08180107      -0.39810224      -0.04647513
C        0.73318108      -0.23044700       0.07946859
C       -0.16778803      -0.92531750      -0.76952692
N       -1.43944331      -0.52343704      -0.35666596
C       -1.27753853       0.72642339       0.17987185
C        0.05573470       0.98244658       0.40214842
H        2.51386408       0.45736408      -0.06092067
H       -0.00786116      -1.79290048      -1.39029972
H       -0.83512733      -1.39669010       0.49575131
H       -2.13248613       1.24278178       0.59165653
H        0.47566356       1.85787851       0.87499172
11
Frame=8 idx=004044 GeodesicLength=0.7521190684476067 rxn_smarts="[O:1]([c:2]1[c:3]([H:8])[n:4]([H:9])[c:5]([H:10])[c:6]1[H:11])[H:7]>>[O:1]([C@:2]1([H:9])[C:3]([H:8])=[N:4][C:5]([H:10])=[C:6]1[H:11])[H:7]"
O        2.07648429      -0.40749066      -0.02574433
C        0.72524870      -0.24260381       0.09690408
C       -0.16685230      -0.91002897      -0.78953478
N       -1.43009639      -0.52766433      -0.35638817
C       -1.27764969       0.73230231       0.16985291
C        0.05227303       0.98229794       0.40700310
H        2.50234114       0.44882030      -0.09001490
H       -0.00445225      -1.78199275      -1.40394728
H       -0.81356411      -1.39172765       0.52612433
H       -2.13579575       1.24209459       0.58300919
H        0.47206333       1.85599303       0.88273583
11
Frame=9 idx=004044 GeodesicLength=0.8465010381236769 rxn_smarts="[O:1]([c:2]1[c:3]([H:8])[n:4]([H:9])[c:5]([H:10])[c:6]1[H:11])[H:7]>>[O:1]([C@:2]1([H:9])[C:3]([H:8])=[N:4][C:5]([H:10])=[C:6]1[H:11])[H:7]"
O        2.07119798      -0.41591072      -0.00665196
C        0.71729652      -0.25423296       0.11257002
C       -0.16564911      -0.89467905      -0.80903942
N       -1.42036331      -0.53201240      -0.35635803
C       -1.27767375       0.73774871       0.16014141
C        0.04874158       0.98207992       0.41177207
H        2.49075539       0.43881013      -0.11724920
H       -0.00090357      -1.77071541      -1.41752242
H       -0.79259783      -1.38612050       0.55771441
H       -2.13915143       1.24096999       0.57426464
H        0.46834754       1.85406228       0.89035849
11
Frame=10 idx=004044 GeodesicLength=0.940932639166777 rxn_smarts="[O:1]([c:2]1[c:3]([H:8])[n:4]([H:9])[c:5]([H:10])[c:6]1[H:11])[H:7]>>[O:1]([C@:2]1([H:9])[C:3]([H:8])=[N:4][C:5]([H:10])=[C:6]1[H:11])[H:7]"
O        2.06593674      -0.42357058       0.01090408
C        0.70933680      -0.26547147       0.12662929
C       -0.16424347      -0.87921366      -0.82821697
N       -1.41026330      -0.53655001      -0.35649889
C       -1.27762613       0.74275892       0.15069214
C        0.04515353       0.98178561       0.41635629
H        2.47919731       0.42760751      -0.14266729
H        0.00273652      -1.75902910      -1.43118929
H       -0.77219129      -1.37974740       0.59070325
H       -2.14255052       1.23940768       0.56540789
H        0.46451381       1.85202251       0.89787949
11
Frame=11 idx=004044 GeodesicLength=1.035415356379896 rxn_smarts="[O:1]([c:2]1[c:3]([H:8])[n:4]([H:9])[c:5]([H:10])[c:6]1[H:11])[H:7]>>[O:1]([C@:2]1([H:9])[C:3]([H:8])=[N:4][C:5]([H:10])=[C:6]1[H:11])[H:7]"
O        2.06069690      -0.43065262       0.02699665
C        0.70137792      -0.27644882       0.13921649
C       -0.16268735      -0.86358641      -0.84720682
N       -1.39979614      -0.54135428      -0.35673342
C       -1.27751461       0.74732153       0.14145355
C        0.04152345       0.98138721       0.42070211
H        2.46770670       0.41545885      -0.16635804
H        0.00643182      -1.74688276      -1.44510272
H       -0.75230271      -1.37245425       0.62529774
H       -2.14599329       1.23743195       0.55635448
H        0.46055731       1.84977962       0.90537997
11
Frame=12 idx=004044 GeodesicLength=1.1299578033199464 rxn_smarts="[O:1]([c:2]1[c:3]([H:8])[n:4]([H:9])[c:5]([H:10])[c:6]1[H:11])[H:7]>>[O:1]([C@:2]1([H:9])[C:3]([H:8])=[N:4][C:5]([H:10])=[C:6]1[H:11])[H:7]"
O        2.05545541      -0.43732267       0.04200543
C        0.69339560      -0.28726843       0.15053916
C       -0.16097001      -0.84771703      -0.86610657
N       -1.38892920      -0.54646827      -0.35706555
C       -1.27736068       0.75142949       0.13237657
C        0.03784795       0.98089321       0.42476441
H        2.45629128       0.40237464      -0.18878611
H        0.01028812      -1.73413028      -1.45944283
H       -0.73295280      -1.36405091       0.66166957
H       -2.14950639       1.23496071       0.54713180
H        0.45644072       1.84729954       0.91291413
11
Frame=13 idx=004044 GeodesicLength=1.2245426627781486 rxn_smarts="[O:1]([c:2]1[c:3]([H:8])[n:4]([H:9])[c:5]([H:10])[c:6]1[H:11])[H:7]>>[O:1]([C@:2]1([H:9])[C:3]([H:8])=[N:4][C:5]([H:10])=[C:6]1[H:11])[H:7]"
O        2.05017500      -0.44378059       0.05583474
C        0.68537541      -0.29802984       0.16059976
C       -0.15917376      -0.83153517      -0.88507362
N       -1.37766487      -0.55197816      -0.35742956
C       -1.27719575       0.75502687       0.12348398
C        0.03413851       0.98027689       0.42844595
H        2.44507306       0.38852876      -0.20954860
H        0.01422663      -1.72069895      -1.47438688
H       -0.71406830      -1.35434001       0.69999303
H       -2.15309056       1.23189998       0.53786221
H        0.45220464       1.84463021       0.92021901
11
Frame=14 idx=004044 GeodesicLength=1.319160063272917 rxn_smarts="[O:1]([c:2]1[c:3]([H:8])[n:4]([H:9])[c:5]([H:10])[c:6]1[H:11])[H:7]>>[O:1]([C@:2]1([H:9])[C:3]([H:8])=[N:4][C:5]([H:10])=[C:6]1[H:11])[H:7]"
O        2.04481797      -0.45018901       0.06865949
C        0.67728348      -0.30883413       0.16950695
C       -0.15731043      -0.81496568      -0.90420074
N       -1.36596755      -0.55793716      -0.35784217
C       -1.27704674       0.75807668       0.11475919
C        0.03039847       0.97952536       0.43169174
H        2.43407691       0.37395644      -0.22876677
H        0.01830207      -1.70646580      -1.49009391
H       -0.69564725      -1.34306543       0.74042909
H       -2.15676103       1.22813124       0.52863950
H        0.44785409       1.84176748       0.92721764
11
Frame=15 idx=004044 GeodesicLength=1.413800669106139 rxn_smarts="[O:1]([c:2]1[c:3]([H:8])[n:4]([H:9])[c:5]([H:10])[c:6]1[H:11])[H:7]>>[O:1]([C@:2]1([H:9])[C:3]([H:8])=[N:4][C:5]([H:10])=[C:6]1[H:11])[H:7]"
O        2.03934212      -0.45671142       0.08058635
C        0.66908265      -0.31978665       0.17734516
C       -0.15540118      -0.79793854      -0.92356401
N       -1.35380005      -0.56441161      -0.35830854
C       -1.27694222       0.76052483       0.10620570
C        0.02663287       0.97861451       0.43445340
H        2.42332028       0.35869421      -0.24647071
H        0.02255449      -1.69129627      -1.50673219
H       -0.67765873      -1.32994228       0.78313714
H       -2.16053669       1.22354502       0.51953749
H        0.44340646       1.83870819       0.93381021
11
Frame=16 idx=004044 GeodesicLength=1.5084566912380915 rxn_smarts="[O:1]([c:2]1[c:3]([H:8])[n:4]([H:9])[c:5]([H:10])[c:6]1[H:11])[H:7]>>[O:1]([C@:2]1([H:9])[C:3]([H:8])=[N:4][C:5]([H:10])=[C:6]1[H:11])[H:7]"
O        2.03369704      -0.46350005       0.09175687
C        0.66072513      -0.33099020       0.18420895
C       -0.15345859      -0.78038401      -0.94321192
N       -1.34112031      -0.57146066      -0.35885492
C       -1.27691549       0.76231097       0.09784016
C        0.02284473       0.97752607       0.43668298
H        2.41280661       0.34271830      -0.26274571
H        0.02705155      -1.67503523      -1.52446577
H       -0.66006063      -1.31465603       0.82824402
H       -2.16444437       1.21801587       0.51064368
H        0.43887434       1.83545497       0.93990166
