13
Frame=0 idx=000688 GeodesicLength=0.0 rxn_smarts="[C:1]([c:2]1[c:3]([H:10])[n:4]([H:11])[c:5]([H:12])[c:6]1[H:13])([H:7])([H:8])[H:9]>>[C:1]([C:2](/[C:3](=[N:4]/[H:11])[H:10])=[C:6]=[C:5]([H:12])[H:13])([H:7])([H:8])[H:9]"
C        1.74125153       0.04920054       0.12165775
C        0.24796601      -0.01564176      -0.02089307
C       -0.40636584      -1.28337159      -0.33825135
N       -1.66986635      -1.42003430      -0.36100638
C       -1.67482054       1.76316107      -0.01060320
C       -0.57637523       1.02249785       0.12396791
H        2.09309224      -0.56363602       0.95579267
H        2.23783594      -0.31249115      -0.78253448
H        2.08009409       1.07040045       0.29669420
H        0.28252442      -2.10754692      -0.56298294
H       -1.93228124      -2.36271027      -0.63136884
H       -2.18730606       2.01795146       0.92435836
H       -0.23574895       2.14222058       0.28516943
13
Frame=1 idx=000688 GeodesicLength=0.09617768496524753 rxn_smarts="[C:1]([c:2]1[c:3]([H:10])[n:4]([H:11])[c:5]([H:12])[c:6]1[H:13])([H:7])([H:8])[H:9]>>[C:1]([C:2](/[C:3](=[N:4]/[H:11])[H:10])=[C:6]=[C:5]([H:12])[H:13])([H:7])([H:8])[H:9]"
C        1.75972596       0.04532665       0.11682435
C        0.26612447      -0.01744479      -0.01226490
C       -0.40037237      -1.27523174      -0.33442289
N       -1.66958533      -1.36818189      -0.39930015
C       -1.68407150       1.69961932       0.00560560
C       -0.56140981       1.00943778       0.19710355
H        2.11153495      -0.51101241       0.98946944
H        2.25368852      -0.38079050      -0.76016098
H        2.10977173       1.07315129       0.21532437
H        0.27143908      -2.11168634      -0.56117833
H       -1.96068562      -2.30884522      -0.64505069
H       -2.22861050       1.98265322       0.91281722
H       -0.26754956       2.16300464       0.27523341
13
Frame=2 idx=000688 GeodesicLength=0.1925600507549871 rxn_smarts="[C:1]([c:2]1[c:3]([H:10])[n:4]([H:11])[c:5]([H:12])[c:6]1[H:13])([H:7])([H:8])[H:9]>>[C:1]([C:2](/[C:3](=[N:4]/[H:11])[H:10])=[C:6]=[C:5]([H:12])[H:13])([H:7])([H:8])[H:9]"
C        1.77641902       0.04155480       0.11459870
C        0.28279244      -0.01795712      -0.00577420
C       -0.39496627      -1.26570705      -0.33423012
N       -1.66767345      -1.31787028      -0.43123362
C       -1.69222717       1.63843977       0.02469641
C       -0.54530371       1.00040219       0.25147976
H        2.12586184      -0.45388423       1.02392032
H        2.27028460      -0.44868521      -0.72810118
H        2.13615291       1.07071587       0.13560468
H        0.25990403      -2.11304516      -0.56593092
H       -1.98876619      -2.25361228      -0.65552605
H       -2.26125162       1.93912223       0.90978700
H       -0.30122643       2.18052648       0.26070922
13
Frame=3 idx=000688 GeodesicLength=0.2890989084275186 rxn_smarts="[C:1]([c:2]1[c:3]([H:10])[n:4]([H:11])[c:5]([H:12])[c:6]1[H:13])([H:7])([H:8])[H:9]>>[C:1]([C:2](/[C:3](=[N:4]/[H:11])[H:10])=[C:6]=[C:5]([H:12])[H:13])([H:7])([H:8])[H:9]"
C        1.79200512       0.03757889       0.11389762
C        0.29849456      -0.01796322      -0.00067167
C       -0.38991840      -1.25532410      -0.33714918
N       -1.66458054      -1.26886002      -0.46007100
C       -1.69851281       1.58083129       0.04424823
C       -0.52884577       0.99402873       0.29340889
H        2.13781069      -0.39260624       1.05700314
H        2.28698318      -0.51567945      -0.68796216
H        2.16034461       1.06250241       0.05671180
H        0.24818867      -2.11213894      -0.57674864
H       -2.01626866      -2.19852369      -0.66075375
H       -2.28922219       1.89053900       0.91065844
H       -0.33647846       2.19561534       0.24742830
13
Frame=4 idx=000688 GeodesicLength=0.3856532807190877 rxn_smarts="[C:1]([c:2]1[c:3]([H:10])[n:4]([H:11])[c:5]([H:12])[c:6]1[H:13])([H:7])([H:8])[H:9]>>[C:1]([C:2](/[C:3](=[N:4]/[H:11])[H:10])=[C:6]=[C:5]([H:12])[H:13])([H:7])([H:8])[H:9]"
C        1.80659777       0.03323061       0.11520170
C        0.31320943      -0.01840423       0.00579225
C       -0.38496984      -1.24451676      -0.34245795
N       -1.66117186      -1.22285147      -0.48077952
C       -1.70360319       1.52600585       0.06417583
C       -0.51263038       0.98966296       0.32668037
H        2.14932989      -0.32846048       1.08753007
H        2.30234802      -0.58024546      -0.64089544
H        2.18251859       1.04818182      -0.02031628
H        0.23673170      -2.10867666      -0.59479816
H       -2.04221162      -2.14364556      -0.66627467
H       -2.31285191       1.84089313       0.91454933
H       -0.37329660       2.20882626       0.23159248
13
Frame=5 idx=000688 GeodesicLength=0.48212365196372875 rxn_smarts="[C:1]([c:2]1[c:3]([H:10])[n:4]([H:11])[c:5]([H:12])[c:6]1[H:13])([H:7])([H:8])[H:9]>>[C:1]([C:2](/[C:3](=[N:4]/[H:11])[H:10])=[C:6]=[C:5]([H:12])[H:13])([H:7])([H:8])[H:9]"
C        1.82038726       0.02848799       0.11755804
C        0.32726977      -0.01850927       0.01033403
C       -0.37988265      -1.23262924      -0.35258410
N       -1.65789698      -1.17964128      -0.49479793
C       -1.70663024       1.47484221       0.08261759
C       -0.49681742       0.98666903       0.35343669
H        2.15865466      -0.26183924       1.11486974
H        2.31732962      -0.64261539      -0.58683343
H        2.20380690       1.02754253      -0.09476561
H        0.22572545      -2.10230495      -0.62119759
H       -2.06674944      -2.09080907      -0.66605532
H       -2.33421924       1.79022406       0.91814591
H       -0.41097769       2.22058262       0.21927197
13
Frame=6 idx=000688 GeodesicLength=0.5785075131856156 rxn_smarts="[C:1]([c:2]1[c:3]([H:10])[n:4]([H:11])[c:5]([H:12])[c:6]1[H:13])([H:7])([H:8])[H:9]>>[C:1]([C:2](/[C:3](=[N:4]/[H:11])[H:10])=[C:6]=[C:5]([H:12])[H:13])([H:7])([H:8])[H:9]"
C        1.83341246       0.02334680       0.12108216
C        0.34049555      -0.01913125       0.01618654
C       -0.37475700      -1.22036079      -0.36453054
N       -1.65474408      -1.13896857      -0.50388521
C       -1.70823065       1.42655482       0.10057643
C       -0.48162653       0.98479340       0.37584596
H        2.16822988      -0.19251561       1.13808276
H        2.33022014      -0.70237260      -0.52679384
H        2.22381847       1.00042688      -0.16786469
H        0.21527604      -2.09325764      -0.65350138
H       -2.08932583      -2.03959197      -0.66509706
H       -2.35327431       1.74009876       0.92218874
H       -0.44949415       2.23097779       0.20771013
13
Frame=7 idx=000688 GeodesicLength=0.6747995680758688 rxn_smarts="[C:1]([c:2]1[c:3]([H:10])[n:4]([H:11])[c:5]([H:12])[c:6]1[H:13])([H:7])([H:8])[H:9]>>[C:1]([C:2](/[C:3](=[N:4]/[H:11])[H:10])=[C:6]=[C:5]([H:12])[H:13])([H:7])([H:8])[H:9]"
C        1.84572913       0.01783862       0.12550220
C        0.35291248      -0.02039396       0.02377266
C       -0.36959867      -1.20784547      -0.37741185
N       -1.65155774      -1.10045667      -0.50957497
C       -1.70854333       1.38092201       0.11829737
C       -0.46709762       0.98382593       0.39515538
H        2.17862416      -0.12009012       1.15641138
H        2.34060299      -0.75952427      -0.46084344
H        2.24247063       0.96636648      -0.24036964
H        0.20547254      -2.08160154      -0.69020369
H       -2.10985069      -1.98992393      -0.66463103
H       -2.37043043       1.69074802       0.92660770
H       -0.48873347       2.24013490       0.19728793
13
Frame=8 idx=000688 GeodesicLength=0.7709775090310589 rxn_smarts="[C:1]([c:2]1[c:3]([H:10])[n:4]([H:11])[c:5]([H:12])[c:6]1[H:13])([H:7])([H:8])[H:9]>>[C:1]([C:2](/[C:3](=[N:4]/[H:11])[H:10])=[C:6]=[C:5]([H:12])[H:13])([H:7])([H:8])[H:9]"
C        1.85739725       0.01201538       0.13051317
C        0.36454926      -0.02229851       0.03321911
C       -0.36439886      -1.19511927      -0.39061051
N       -1.64827077      -1.06392434      -0.51241709
C       -1.70774300       1.33770554       0.13608322
C       -0.45320273       0.98367650       0.41217312
H        2.19023774      -0.04450953       1.16890363
H        2.34820417      -0.81375191      -0.38912212
H        2.25966551       0.92488080      -0.31241869
H        0.19638929      -2.06752023      -0.72957233
H       -2.12822629      -1.94165466      -0.66639984
H       -2.38591537       1.64230896       0.93156129
H       -0.52868619       2.24819127       0.18808705
13
Frame=9 idx=000688 GeodesicLength=0.8670547609642676 rxn_smarts="[C:1]([c:2]1[c:3]([H:10])[n:4]([H:11])[c:5]([H:12])[c:6]1[H:13])([H:7])([H:8])[H:9]>>[C:1]([C:2](/[C:3](=[N:4]/[H:11])[H:10])=[C:6]=[C:5]([H:12])[H:13])([H:7])([H:8])[H:9]"
C        1.86849509       0.00583221       0.13581601
C        0.37553005      -0.02445746       0.04333820
C       -0.35903349      -1.18174918      -0.40509253
N       -1.64477511      -1.02898432      -0.51369699
C       -1.70601965       1.29668060       0.15416091
C       -0.43981608       0.98436532       0.42694604
H        2.20252462       0.03327467       1.17481767
H        2.35318454      -0.86430073      -0.31205469
H        2.27575334       0.87588859      -0.38266427
H        0.18812923      -2.05159651      -0.76969828
H       -2.14463508      -1.89475879      -0.66957976
H       -2.39976943       1.59440209       0.93749529
H       -0.56956802       2.25540353       0.18021241
13
Frame=10 idx=000688 GeodesicLength=0.9630388390406786 rxn_smarts="[C:1]([c:2]1[c:3]([H:10])[n:4]([H:11])[c:5]([H:12])[c:6]1[H:13])([H:7])([H:8])[H:9]>>[C:1]([C:2](/[C:3](=[N:4]/[H:11])[H:10])=[C:6]=[C:5]([H:12])[H:13])([H:7])([H:8])[H:9]"
C        1.87908260      -0.00071013       0.14140352
C        0.38600008      -0.02625694       0.05264868
C       -0.35332459      -1.16720172      -0.42189565
N       -1.64099836      -0.99547240      -0.51399790
C       -1.70357812       1.25768198       0.17246752
C       -0.42686717       0.98604023       0.43918374
H        2.21468097       0.11153349       1.17399402
H        2.35535742      -0.91044529      -0.23018631
H        2.29169330       0.81954615      -0.44929172
H        0.18088822      -2.03385809      -0.81048120
H       -2.15917647      -1.84958608      -0.67197485
H       -2.41203271       1.54665795       0.94460935
H       -0.61172519       2.26207084       0.17352079
13
Frame=11 idx=000688 GeodesicLength=1.058960508039712 rxn_smarts="[C:1]([c:2]1[c:3]([H:10])[n:4]([H:11])[c:5]([H:12])[c:6]1[H:13])([H:7])([H:8])[H:9]>>[C:1]([C:2](/[C:3](=[N:4]/[H:11])[H:10])=[C:6]=[C:5]([H:12])[H:13])([H:7])([H:8])[H:9]"
C        1.88921808      -0.00737699       0.14692195
C        0.39586964      -0.02831111       0.06328515
C       -0.34745767      -1.15255978      -0.43747233
N       -1.63666032      -0.96293690      -0.51414097
C       -1.70039540       1.22036410       0.19140873
C       -0.41435968       0.98853276       0.45006519
H        2.22863072       0.19047094       1.16510874
H        2.35440183      -0.95126139      -0.14494115
H        2.30610896       0.75587218      -0.51334262
H        0.17462692      -2.01527362      -0.84880000
H       -2.17193919      -1.80469080      -0.67890012
H       -2.42298731       1.49928502       0.95283586
H       -0.65505659       2.26788559       0.16797157
13
Frame=12 idx=000688 GeodesicLength=1.1548872398320118 rxn_smarts="[C:1]([c:2]1[c:3]([H:10])[n:4]([H:11])[c:5]([H:12])[c:6]1[H:13])([H:7])([H:8])[H:9]>>[C:1]([C:2](/[C:3](=[N:4]/[H:11])[H:10])=[C:6]=[C:5]([H:12])[H:13])([H:7])([H:8])[H:9]"
C        1.89901609      -0.01432750       0.15233365
C        0.40557987      -0.02855022       0.06964329
C       -0.34110356      -1.13597420      -0.45672235
N       -1.63193268      -0.93111422      -0.51494919
C       -1.69678266       1.18464559       0.21087922
C       -0.40203359       0.99247503       0.45744622
H        2.24097615       0.26669889       1.14969041
H        2.35043884      -0.98643267      -0.05679396
H        2.32236121       0.68610691      -0.57067782
H        0.16930277      -1.99673036      -0.88470788
H       -2.18316529      -1.76136171      -0.68318647
H       -2.43195846       1.45089856       0.96350750
H       -0.70069870       2.27366590       0.16353739
13
Frame=13 idx=000688 GeodesicLength=1.250835411458237 rxn_smarts="[C:1]([c:2]1[c:3]([H:10])[n:4]([H:11])[c:5]([H:12])[c:6]1[H:13])([H:7])([H:8])[H:9]>>[C:1]([C:2](/[C:3](=[N:4]/[H:11])[H:10])=[C:6]=[C:5]([H:12])[H:13])([H:7])([H:8])[H:9]"
C        1.90852795      -0.02116385       0.15721952
C        0.41495689      -0.02829757       0.07572546
C       -0.33461027      -1.11947392      -0.47412393
N       -1.62649124      -0.89927170      -0.51744225
C       -1.69252714       1.15004951       0.23162011
C       -0.38991688       0.99752665       0.46305882
H        2.25481970       0.34163441       1.12604074
H        2.34370352      -1.01496073       0.03248941
H        2.33756931       0.61042105      -0.62373103
H        0.16466395      -1.98000816      -0.91387506
H       -2.19314059      -1.71691702      -0.69376018
H       -2.43918847       1.40183353       0.97663253
H       -0.74836673       2.27862781       0.16014586
13
Frame=14 idx=000688 GeodesicLength=1.3467785856883092 rxn_smarts="[C:1]([c:2]1[c:3]([H:10])[n:4]([H:11])[c:5]([H:12])[c:6]1[H:13])([H:7])([H:8])[H:9]>>[C:1]([C:2](/[C:3](=[N:4]/[H:11])[H:10])=[C:6]=[C:5]([H:12])[H:13])([H:7])([H:8])[H:9]"
C        1.91782886      -0.02806593       0.16172322
C        0.42444306      -0.02537381       0.07592492
C       -0.32764827      -1.10061551      -0.49585883
N       -1.62070134      -0.86744742      -0.52143889
C       -1.68772465       1.11661721       0.25305149
C       -0.37784309       1.00440883       0.46462525
H        2.26698868       0.41150128       1.09690264
H        2.33371969      -1.03708113       0.12198637
H        2.35555081       0.53088615      -0.66840988
H        0.16032402      -1.96601196      -0.93712429
H       -2.20190282      -1.67333748      -0.70235620
H       -2.44388386       1.35100051       0.99289965
H       -0.79915109       2.28351925       0.15807452
13
Frame=15 idx=000688 GeodesicLength=1.4427098454009384 rxn_smarts="[C:1]([c:2]1[c:3]([H:10])[n:4]([H:11])[c:5]([H:12])[c:6]1[H:13])([H:7])([H:8])[H:9]>>[C:1]([C:2](/[C:3](=[N:4]/[H:11])[H:10])=[C:6]=[C:5]([H:12])[H:13])([H:7])([H:8])[H:9]"
C        1.92693402      -0.03468779       0.16559354
C        0.43396668      -0.02063242       0.07275799
C       -0.32040671      -1.08069687      -0.51871193
N       -1.61437660      -0.83514666      -0.52748675
C       -1.68206169       1.08397222       0.27549628
C       -0.36587689       1.01278974       0.46334373
H        2.27946700       0.47766274       1.06137669
H        2.32073097      -1.05234843       0.21100454
H        2.37431119       0.44755814      -0.70661789
H        0.15588969      -1.95568398      -0.95217958
H       -2.20970732      -1.62879451      -0.71444719
H       -2.44611619       1.29839229       1.01203658
H       -0.85275414       2.28761553       0.15783397
13
Frame=16 idx=000688 GeodesicLength=1.538677571317238 rxn_smarts="[C:1]([c:2]1[c:3]([H:10])[n:4]([H:11])[c:5]([H:12])[c:6]1[H:13])([H:7])([H:8])[H:9]>>[C:1]([C:2](/[C:3](=[N:4]/[H:11])[H:10])=[C:6]=[C:5]([H:12])[H:13])([H:7])([H:8])[H:9]"
C        1.93575245      -0.04137597       0.16940474
C        0.44373865      -0.01321568       0.06416173
C       -0.31277767      -1.05885881      -0.54490815
N       -1.60775992      -0.80299488      -0.53409922
C       -1.67532386       1.05193935       0.29851879
C       -0.35393786       1.02313617       0.45797709
H        2.29117879       0.53916451       1.02109899
H        2.30377378      -1.06131943       0.30043805
H        2.39544712       0.36051427      -0.73665406
H        0.15118773      -1.94677003      -0.96371297
H       -2.21649263      -1.58495657      -0.72515599
H       -2.44508427       1.24387955       1.03408718
H       -0.90970230       2.29085752       0.15884382
