9
Frame=0 idx=005720 GeodesicLength=0.0 rxn_smarts="[N:1]([c:2]1[n:3][o:4][c:5]([H:9])[n:6]1)([H:7])[H:8]>>[N:1]([c:2]1[n:3][o+:4][c-:5][n:6]1[H:9])([H:7])[H:8]"
N        1.54687421       0.35214812       0.25969375
C        0.30090613      -0.13205338       0.02263168
N       -0.05435344      -1.36850231       0.07084293
O       -1.45276327      -1.32917989      -0.11272335
C       -1.83527186      -0.09506877      -0.38308037
N       -0.75710429       0.72023855      -0.32030067
H        1.76728551       1.22590583      -0.18442510
H        2.28968498      -0.32436852       0.28851016
H       -1.80525800       0.95088041       0.35885095
9
Frame=1 idx=005720 GeodesicLength=0.03581134025507171 rxn_smarts="[N:1]([c:2]1[n:3][o:4][c:5]([H:9])[n:6]1)([H:7])[H:8]>>[N:1]([c:2]1[n:3][o+:4][c-:5][n:6]1[H:9])([H:7])[H:8]"
N        1.54880041       0.34866208       0.26187234
C        0.30320632      -0.13589696       0.02127104
N       -0.04973968      -1.37351547       0.06627936
O       -1.44943054      -1.33407799      -0.10675348
C       -1.83302451      -0.09999197      -0.37203546
N       -0.75673124       0.71414005      -0.31168866
H        1.76503972       1.23076592      -0.16758722
H        2.29311924      -0.32686221       0.27087685
H       -1.82123972       0.97677655       0.33776523
9
Frame=2 idx=005720 GeodesicLength=0.07158902340753522 rxn_smarts="[N:1]([c:2]1[n:3][o:4][c:5]([H:9])[n:6]1)([H:7])[H:8]>>[N:1]([c:2]1[n:3][o+:4][c-:5][n:6]1[H:9])([H:7])[H:8]"
N        1.55082703       0.34526650       0.26388947
C        0.30554294      -0.13966971       0.02015618
N       -0.04483106      -1.37856104       0.06055358
O       -1.44576730      -1.33918562      -0.10159689
C       -1.83091946      -0.10478480      -0.35938035
N       -0.75664342       0.70832549      -0.30093754
H        1.76316181       1.23474367      -0.15213707
H        2.29639006      -0.32898696       0.25445077
H       -1.83776058       1.00285248       0.31500184
9
Frame=3 idx=005720 GeodesicLength=0.10735896268717257 rxn_smarts="[N:1]([c:2]1[n:3][o:4][c:5]([H:9])[n:6]1)([H:7])[H:8]>>[N:1]([c:2]1[n:3][o+:4][c-:5][n:6]1[H:9])([H:7])[H:8]"
N        1.55308443       0.34213994       0.26558656
C        0.30780520      -0.14315267       0.02027657
N       -0.03960933      -1.38345585       0.05390572
O       -1.44158134      -1.34455202      -0.09853721
C       -1.82885572      -0.10934216      -0.34521873
N       -0.75692221       0.70304495      -0.28684646
H        1.76193740       1.23741693      -0.13967103
H        2.29946780      -0.33088372       0.23988949
H       -1.85532624       1.02878461       0.29061510
9
Frame=4 idx=005720 GeodesicLength=0.1430967203458324 rxn_smarts="[N:1]([c:2]1[n:3][o:4][c:5]([H:9])[n:6]1)([H:7])[H:8]>>[N:1]([c:2]1[n:3][o+:4][c-:5][n:6]1[H:9])([H:7])[H:8]"
N        1.55544788       0.33918002       0.26711556
C        0.31008086      -0.14652981       0.02081548
N       -0.03407227      -1.38831297       0.04595958
O       -1.43699846      -1.35021920      -0.09692125
C       -1.82701709      -0.11378791      -0.32870777
N       -0.75757234       0.69803237      -0.26983904
H        1.76113157       1.23926691      -0.12906681
H        2.30240443      -0.33258672       0.22678209
H       -1.87340458       1.05495731       0.26386216
9
Frame=5 idx=005720 GeodesicLength=0.178782176151016 rxn_smarts="[N:1]([c:2]1[n:3][o:4][c:5]([H:9])[n:6]1)([H:7])[H:8]>>[N:1]([c:2]1[n:3][o+:4][c-:5][n:6]1[H:9])([H:7])[H:8]"
N        1.55784998       0.33646262       0.26844574
C        0.31238727      -0.14982035       0.02147959
N       -0.02822257      -1.39310115       0.03655306
O       -1.43198626      -1.35624329      -0.09725398
C       -1.82553635      -0.11814401      -0.30898068
N       -0.75866675       0.69321863      -0.24954559
H        1.76075099       1.24030886      -0.12062350
H        2.30517799      -0.33411263       0.21560026
H       -1.89175429       1.08143131       0.23432512
9
Frame=6 idx=005720 GeodesicLength=0.21443831777603214 rxn_smarts="[N:1]([c:2]1[n:3][o:4][c:5]([H:9])[n:6]1)([H:7])[H:8]>>[N:1]([c:2]1[n:3][o+:4][c-:5][n:6]1[H:9])([H:7])[H:8]"
N        1.56078354       0.33412134       0.26926032
C        0.31445045      -0.15263820       0.02542043
N       -0.02211235      -1.39745711       0.02706317
O       -1.42623040      -1.36252321      -0.10225724
C       -1.82400586      -0.12224109      -0.28683890
N       -0.76026189       0.68905625      -0.22275095
H        1.76104949       1.23993776      -0.11666886
H        2.30790161      -0.33584387       0.20572281
H       -1.91157460       1.10758814       0.20104920
9
Frame=7 idx=005720 GeodesicLength=0.24994944059584367 rxn_smarts="[N:1]([c:2]1[n:3][o:4][c:5]([H:9])[n:6]1)([H:7])[H:8]>>[N:1]([c:2]1[n:3][o+:4][c-:5][n:6]1[H:9])([H:7])[H:8]"
N        1.56373214       0.33175031       0.26999987
C        0.31659519      -0.15562653       0.02920854
N       -0.01572704      -1.40184592       0.01571757
O       -1.42014999      -1.36910841      -0.10942908
C       -1.82314378      -0.12651924      -0.25835612
N       -0.76235494       0.68461532      -0.19145627
H        1.76115100       1.23951523      -0.11290955
H        2.31065191      -0.33743787       0.19598300
H       -1.93075450       1.13465711       0.16124204
9
Frame=8 idx=005720 GeodesicLength=0.28518049493333236 rxn_smarts="[N:1]([c:2]1[n:3][o:4][c:5]([H:9])[n:6]1)([H:7])[H:8]>>[N:1]([c:2]1[n:3][o+:4][c-:5][n:6]1[H:9])([H:7])[H:8]"
N        1.56737696       0.32960203       0.27003090
C        0.31843441      -0.15831594       0.03751180
N       -0.00926288      -1.40573887       0.00503912
O       -1.41323759      -1.37553134      -0.12425871
C       -1.82254725      -0.13077457      -0.22339836
N       -0.76520696       0.68044553      -0.14937478
H        1.76120491       1.23810852      -0.11308080
H        2.31350601      -0.33929065       0.18540564
H       -1.95026762       1.16149531       0.11212519
9
Frame=9 idx=005720 GeodesicLength=0.3187187726791567 rxn_smarts="[N:1]([c:2]1[n:3][o:4][c:5]([H:9])[n:6]1)([H:7])[H:8]>>[N:1]([c:2]1[n:3][o+:4][c-:5][n:6]1[H:9])([H:7])[H:8]"
N        1.57058062       0.32671164       0.27009433
C        0.32073680      -0.16147651       0.04035005
N       -0.00328484      -1.40964841      -0.00847244
O       -1.40696701      -1.38098468      -0.14031890
C       -1.82333173      -0.13559277      -0.17332804
N       -0.76869725       0.67538609      -0.10010518
H        1.76013650       1.23857136      -0.10725619
H        2.31641443      -0.34068974       0.17171577
H       -1.96558751       1.18772302       0.04732060
9
Frame=10 idx=005720 GeodesicLength=0.3489511406279647 rxn_smarts="[N:1]([c:2]1[n:3][o:4][c:5]([H:9])[n:6]1)([H:7])[H:8]>>[N:1]([c:2]1[n:3][o+:4][c-:5][n:6]1[H:9])([H:7])[H:8]"
N        1.57426213       0.32354741       0.26896786
C        0.32215128      -0.16365397       0.04682681
N        0.00110876      -1.41205208      -0.02203300
O       -1.40184446      -1.38257675      -0.16119776
C       -1.82433304      -0.14018744      -0.11591313
N       -0.77329293       0.67046449      -0.03130431
H        1.75769564       1.23987553      -0.10062912
H        2.31886417      -0.34217927       0.15149808
H       -1.97461154       1.20676207      -0.03621543
9
Frame=11 idx=005720 GeodesicLength=0.3771945411539501 rxn_smarts="[N:1]([c:2]1[n:3][o:4][c:5]([H:9])[n:6]1)([H:7])[H:8]>>[N:1]([c:2]1[n:3][o+:4][c-:5][n:6]1[H:9])([H:7])[H:8]"
N        1.57674928       0.32127189       0.26702502
C        0.32150947      -0.16421055       0.05625673
N        0.00270112      -1.41223793      -0.03508382
O       -1.39927292      -1.37915086      -0.18424316
C       -1.82620379      -0.14405176      -0.05736838
N       -0.77880752       0.66493013       0.04744416
H        1.75289670       1.24245354      -0.09405984
H        2.31919464      -0.34263885       0.12755537
H       -1.96876698       1.21363438      -0.12752609
9
Frame=12 idx=005720 GeodesicLength=0.40989385496664077 rxn_smarts="[N:1]([c:2]1[n:3][o:4][c:5]([H:9])[n:6]1)([H:7])[H:8]>>[N:1]([c:2]1[n:3][o+:4][c-:5][n:6]1[H:9])([H:7])[H:8]"
N        1.57729538       0.32027722       0.26539539
C        0.31895921      -0.16357430       0.06680294
N        0.00168866      -1.41071591      -0.04727247
O       -1.39960777      -1.37208188      -0.20421691
C       -1.82863418      -0.14696478      -0.00525402
N       -0.78416137       0.65885970       0.11846207
H        1.74621090       1.24617957      -0.08708452
H        2.31708809      -0.34154479       0.10351938
H       -1.94883893       1.20956517      -0.21035186
9
Frame=13 idx=005720 GeodesicLength=0.4462712026734787 rxn_smarts="[N:1]([c:2]1[n:3][o:4][c:5]([H:9])[n:6]1)([H:7])[H:8]>>[N:1]([c:2]1[n:3][o+:4][c-:5][n:6]1[H:9])([H:7])[H:8]"
N        1.57659970       0.32032168       0.26445462
C        0.31552260      -0.16244239       0.07809069
N       -0.00075371      -1.40831078      -0.05740625
O       -1.40141619      -1.36320398      -0.22144564
C       -1.83099935      -0.14915908       0.03806096
N       -0.78884372       0.65311478       0.17549162
H        1.73915848       1.24988436      -0.08148858
H        2.31344448      -0.33953800       0.08216698
H       -1.92271229       1.19933341      -0.27792440
9
Frame=14 idx=005720 GeodesicLength=0.4839084321877891 rxn_smarts="[N:1]([c:2]1[n:3][o:4][c:5]([H:9])[n:6]1)([H:7])[H:8]>>[N:1]([c:2]1[n:3][o+:4][c-:5][n:6]1[H:9])([H:7])[H:8]"
N        1.57518854       0.32122936       0.26403053
C        0.31210693      -0.16068365       0.08617106
N       -0.00352793      -1.40527761      -0.06689202
O       -1.40369715      -1.35363051      -0.23652469
C       -1.83282983      -0.15116111       0.07520535
N       -0.79272628       0.64822905       0.21935254
H        1.73363297       1.25259146      -0.07908236
H        2.30929913      -0.33775871       0.06797978
H       -1.89744639       1.18646173      -0.33024019
9
Frame=15 idx=005720 GeodesicLength=0.5219344288816625 rxn_smarts="[N:1]([c:2]1[n:3][o:4][c:5]([H:9])[n:6]1)([H:7])[H:8]>>[N:1]([c:2]1[n:3][o+:4][c-:5][n:6]1[H:9])([H:7])[H:8]"
N        1.57344122       0.32272624       0.26366098
C        0.30871196      -0.15884165       0.09351861
N       -0.00641644      -1.40220687      -0.07485639
O       -1.40598106      -1.34387791      -0.25067600
C       -1.83428795      -0.15310693       0.10630296
N       -0.79624477       0.64352079       0.25650050
H        1.72854873       1.25471829      -0.07941680
H        2.30502288      -0.33606999       0.05760475
H       -1.87279457       1.17313802      -0.37263861
9
Frame=16 idx=005720 GeodesicLength=0.5600919983031541 rxn_smarts="[N:1]([c:2]1[n:3][o:4][c:5]([H:9])[n:6]1)([H:7])[H:8]>>[N:1]([c:2]1[n:3][o+:4][c-:5][n:6]1[H:9])([H:7])[H:8]"
N        1.57152874       0.32435599       0.26348708
C        0.30541822      -0.15679437       0.09909878
N       -0.00933195      -1.39903962      -0.08242275
O       -1.40845237      -1.33428308      -0.26280517
C       -1.83541361      -0.15499255       0.13388563
N       -0.79937433       0.63914246       0.28821603
H        1.72413341       1.25664145      -0.08006184
H        2.30075474      -0.33454737       0.04941063
H       -1.84926286       1.15951709      -0.40880839
