15
Frame=0 idx=009097 GeodesicLength=0.0 rxn_smarts="[C:1]1([H:8])([H:9])[C@:2]2([H:10])[O:3][C:4]([H:11])([H:12])[C:5]([H:13])([H:14])[O:6][C@:7]12[H:15]>>[C:1]([C:2](=[O+:3][C-:4]([H:11])[H:12])[H:10])([C:7](=[O+:6][C-:5]([H:13])[H:14])[H:15])([H:8])[H:9]"
C       -1.34828884      -0.08204496       0.37823454
C       -0.96004433       0.21790050      -1.01579339
O       -0.05758357       1.15167553      -1.21928470
C        0.80884152       1.53592477      -0.32868818
C        1.55286865      -0.94955269      -0.17155513
O        0.83168469      -1.25185225       0.87831131
C       -0.38409221      -0.91637860       1.18573154
H       -1.56590810       0.86074751       0.92809978
H       -2.29871758      -0.62111073       0.32751183
H       -1.57644857       0.02017647      -1.87718794
H        0.64554148       1.32266170       0.72049181
H        1.49579024       2.29137098      -0.67241717
H        1.02037440      -0.82124843      -1.10658029
H        2.54932195      -1.35972641      -0.12285506
H       -0.71333976      -1.39854344       2.09598108
15
Frame=1 idx=009097 GeodesicLength=0.0916506089874597 rxn_smarts="[C:1]1([H:8])([H:9])[C@:2]2([H:10])[O:3][C:4]([H:11])([H:12])[C:5]([H:13])([H:14])[O:6][C@:7]12[H:15]>>[C:1]([C:2](=[O+:3][C-:4]([H:11])[H:12])[H:10])([C:7](=[O+:6][C-:5]([H:13])[H:14])[H:15])([H:8])[H:9]"
C       -1.35749615      -0.05870783       0.40049161
C       -0.95779874       0.20203709      -0.99641380
O       -0.07035702       1.14693209      -1.22371039
C        0.81723348       1.53530935      -0.35050732
C        1.56523684      -0.93029003      -0.15663662
O        0.83116845      -1.24150834       0.88422669
C       -0.40966220      -0.95794944       1.14719408
H       -1.50887931       0.88185328       0.97236172
H       -2.33926416      -0.53953166       0.36471179
H       -1.55920817      -0.03748612      -1.85794592
H        0.65364752       1.35785699       0.70565143
H        1.48096357       2.30487088      -0.70944310
H        1.04951655      -0.83234024      -1.10469093
H        2.56468280      -1.33171192      -0.09142433
H       -0.75978345      -1.49933410       2.01613509
15
Frame=2 idx=009097 GeodesicLength=0.18236106741954455 rxn_smarts="[C:1]1([H:8])([H:9])[C@:2]2([H:10])[O:3][C:4]([H:11])([H:12])[C:5]([H:13])([H:14])[O:6][C@:7]12[H:15]>>[C:1]([C:2](=[O+:3][C-:4]([H:11])[H:12])[H:10])([C:7](=[O+:6][C-:5]([H:13])[H:14])[H:15])([H:8])[H:9]"
C       -1.36443201      -0.03673634       0.42341811
C       -0.95707173       0.18754734      -0.97631969
O       -0.08434414       1.14214090      -1.22809496
C        0.82437537       1.53518004      -0.37335825
C        1.57596203      -0.91062452      -0.13888848
O        0.82740797      -1.23179203       0.89153166
C       -0.43523748      -0.99852645       1.10531366
H       -1.45018460       0.89615560       1.01765711
H       -2.37244513      -0.46038118       0.40247677
H       -1.54595924      -0.09031316      -1.83513003
H        0.66147706       1.39586034       0.68895131
H        1.46830182       2.31371274      -0.74982838
H        1.07988015      -0.84228457      -1.10003840
H        2.57805345      -1.30285544      -0.05528654
H       -0.80578351      -1.59708327       1.92759612
15
Frame=3 idx=009097 GeodesicLength=0.272278173054055 rxn_smarts="[C:1]1([H:8])([H:9])[C@:2]2([H:10])[O:3][C:4]([H:11])([H:12])[C:5]([H:13])([H:14])[O:6][C@:7]12[H:15]>>[C:1]([C:2](=[O+:3][C-:4]([H:11])[H:12])[H:10])([C:7](=[O+:6][C-:5]([H:13])[H:14])[H:15])([H:8])[H:9]"
C       -1.36916591      -0.01676770       0.44673922
C       -0.95782372       0.17459060      -0.95590774
O       -0.09945583       1.13764514      -1.23212412
C        0.83019214       1.53523561      -0.39650776
C        1.58483527      -0.89074550      -0.11881136
O        0.82001495      -1.22493452       0.89877098
C       -0.46014950      -1.03681248       1.06108717
H       -1.39093699       0.90357550       1.06285710
H       -2.39847382      -0.38552914       0.44080702
H       -1.53659073      -0.13776993      -1.80988099
H        0.66868739       1.43609898       0.67082757
H        1.45826171       2.31754350      -0.79263935
H        1.11140441      -0.85087245      -1.09308245
H        2.58932797      -1.27282919      -0.01500535
H       -0.85012733      -1.68842843       1.83287006
15
Frame=4 idx=009097 GeodesicLength=0.36162781279197653 rxn_smarts="[C:1]1([H:8])([H:9])[C@:2]2([H:10])[O:3][C:4]([H:11])([H:12])[C:5]([H:13])([H:14])[O:6][C@:7]12[H:15]>>[C:1]([C:2](=[O+:3][C-:4]([H:11])[H:12])[H:10])([C:7](=[O+:6][C-:5]([H:13])[H:14])[H:15])([H:8])[H:9]"
C       -1.37185596       0.00085667       0.47016768
C       -0.95983639       0.16316282      -0.93555526
O       -0.11540886       1.13365001      -1.23560416
C        0.83484577       1.53512620      -0.41935895
C        1.59182655      -0.87100652      -0.09708384
O        0.80932428      -1.22244870       0.90482668
C       -0.48397290      -1.07196248       1.01561155
H       -1.33199339       0.90458960       1.10686694
H       -2.41796324      -0.31607886       0.47955106
H       -1.53059860      -0.17982357      -1.78329930
H        0.67499948       1.47792789       0.65159654
H        1.45041940       2.31703040      -0.83664694
H        1.14396526      -0.85821342      -1.08434942
H        2.59848053      -1.24180955       0.02841898
H       -0.89223194      -1.77100051       1.73485845
15
Frame=5 idx=009097 GeodesicLength=0.45062621811909165 rxn_smarts="[C:1]1([H:8])([H:9])[C@:2]2([H:10])[O:3][C:4]([H:11])([H:12])[C:5]([H:13])([H:14])[O:6][C@:7]12[H:15]>>[C:1]([C:2](=[O+:3][C-:4]([H:11])[H:12])[H:10])([C:7](=[O+:6][C-:5]([H:13])[H:14])[H:15])([H:8])[H:9]"
C       -1.37258772       0.01604923       0.49348001
C       -0.96287111       0.15305871      -0.91554159
O       -0.13191370       1.13004166      -1.23846660
C        0.83850319       1.53445410      -0.44151878
C        1.59690576      -0.85162901      -0.07428582
O        0.79608890      -1.22460914       0.90906745
C       -0.50649331      -1.10364834       0.96965295
H       -1.27363880       0.89989080       1.14893107
H       -2.43161118      -0.25206514       0.51873112
H       -1.52761328      -0.21662537      -1.75623726
H        0.68018431       1.52087736       0.63138126
H        1.44423243       2.31251069      -0.88078319
H        1.17733608      -0.86467773      -1.07418076
H        2.60544353      -1.20947532       0.07432396
H       -0.93196510      -1.84415248       1.63544617
15
Frame=6 idx=009097 GeodesicLength=0.5393827713239576 rxn_smarts="[C:1]1([H:8])([H:9])[C@:2]2([H:10])[O:3][C:4]([H:11])([H:12])[C:5]([H:13])([H:14])[O:6][C@:7]12[H:15]>>[C:1]([C:2](=[O+:3][C-:4]([H:11])[H:12])[H:10])([C:7](=[O+:6][C-:5]([H:13])[H:14])[H:15])([H:8])[H:9]"
C       -1.37164735       0.02887165       0.51657566
C       -0.96674474       0.14418443      -0.89601157
O       -0.14878554       1.12698193      -1.24066630
C        0.84126109       1.53320925      -0.46266617
C        1.60033096      -0.83273328      -0.05090182
O        0.78113525      -1.23128903       0.91120765
C       -0.52762572      -1.13182872       0.92394491
H       -1.21634551       0.89033471       1.18852114
H       -2.44026739      -0.19362097       0.55819909
H       -1.52709549      -0.24866700      -1.72928220
H        0.68388390       1.56474107       0.61028356
H        1.43955862       2.30452140      -0.92449351
H        1.21150164      -0.87029981      -1.06286237
H        2.61031350      -1.17648813       0.12179245
H       -0.96947320      -1.90791752       1.53635947
15
Frame=7 idx=009097 GeodesicLength=0.6280104626002896 rxn_smarts="[C:1]1([H:8])([H:9])[C@:2]2([H:10])[O:3][C:4]([H:11])([H:12])[C:5]([H:13])([H:14])[O:6][C@:7]12[H:15]>>[C:1]([C:2](=[O+:3][C-:4]([H:11])[H:12])[H:10])([C:7](=[O+:6][C-:5]([H:13])[H:14])[H:15])([H:8])[H:9]"
C       -1.36915360       0.03945891       0.53939066
C       -0.97130867       0.13634952      -0.87705315
O       -0.16584576       1.12435689      -1.24224115
C        0.84322095       1.53127250      -0.48264321
C        1.60222772      -0.81440389      -0.02724666
O        0.76514117      -1.24192311       0.91111592
C       -0.54738337      -1.15672513       0.87878901
H       -1.16008910       0.87665308       1.22538279
H       -2.44455922      -0.14026686       0.59801210
H       -1.52877692      -0.27635692      -1.70281065
H        0.68592364       1.60933349       0.58824391
H        1.43603587       2.29337570      -0.96730039
H        1.24640892      -0.87526876      -1.05051635
H        2.61306461      -1.14292911       0.17049632
H       -1.00490624      -1.96292630       1.43838083
15
Frame=8 idx=009097 GeodesicLength=0.7165550802814562 rxn_smarts="[C:1]1([H:8])([H:9])[C@:2]2([H:10])[O:3][C:4]([H:11])([H:12])[C:5]([H:13])([H:14])[O:6][C@:7]12[H:15]>>[C:1]([C:2](=[O+:3][C-:4]([H:11])[H:12])[H:10])([C:7](=[O+:6][C-:5]([H:13])[H:14])[H:15])([H:8])[H:9]"
C       -1.36527140       0.04795143       0.56187551
C       -0.97647226       0.12943068      -0.85872296
O       -0.18296745       1.12214489      -1.24324277
C        0.84445388       1.52865522      -0.50131891
C        1.60278482      -0.79670834      -0.00358538
O        0.74865296      -1.25589239       0.90871929
C       -0.56581148      -1.17862188       0.83436574
H       -1.10492662       0.85951039       1.25935643
H       -2.44506183      -0.09162286       0.63815793
H       -1.53240838      -0.30012211      -1.67708783
H        0.68617090       1.65451008       0.56519947
H        1.43345624       2.27939891      -1.00886073
H        1.28207841      -0.87964820      -1.03724545
H        2.61370189      -1.10914319       0.22012610
H       -1.03837968      -2.00984262       1.34226355
15
Frame=9 idx=009097 GeodesicLength=0.8050555328855173 rxn_smarts="[C:1]1([H:8])([H:9])[C@:2]2([H:10])[O:3][C:4]([H:11])([H:12])[C:5]([H:13])([H:14])[O:6][C@:7]12[H:15]>>[C:1]([C:2](=[O+:3][C-:4]([H:11])[H:12])[H:10])([C:7](=[O+:6][C-:5]([H:13])[H:14])[H:15])([H:8])[H:9]"
C       -1.36012635       0.05450000       0.58399386
C       -0.98217701       0.12332138      -0.84104797
O       -0.20004897       1.12026515      -1.24373003
C        0.84502366       1.52533994      -0.51859828
C        1.60213058      -0.77969389       0.01988384
O        0.73208486      -1.27244817       0.90401755
C       -0.58294735      -1.19777330       0.79073640
H       -1.05085049       0.83947975       1.29037710
H       -2.44220923      -0.04724988       0.67868020
H       -1.53779853      -0.32031863      -1.65228860
H        0.68459909       1.70012150       0.54105526
H        1.43158898       2.26278156      -1.04888990
H        1.31851239      -0.88354459      -1.02307956
H        2.61214859      -1.07534502       0.27051245
H       -1.06993023      -2.04943579       1.24837768
15
Frame=10 idx=009097 GeodesicLength=0.8935118557297035 rxn_smarts="[C:1]1([H:8])([H:9])[C@:2]2([H:10])[O:3][C:4]([H:11])([H:12])[C:5]([H:13])([H:14])[O:6][C@:7]12[H:15]>>[C:1]([C:2](=[O+:3][C-:4]([H:11])[H:12])[H:10])([C:7](=[O+:6][C-:5]([H:13])[H:14])[H:15])([H:8])[H:9]"
C       -1.35387326       0.05926499       0.60571783
C       -0.98836937       0.11794215      -0.82401985
O       -0.21701208       1.11871411      -1.24375208
C        0.84495616       1.52142433      -0.53439417
C        1.60047224      -0.76340659       0.04296315
O        0.71575887      -1.29094079       0.89705438
C       -0.59883226      -1.21437235       0.74800458
H       -0.99798845       0.81716139       1.31839946
H       -2.43640259      -0.00688781       0.71948975
H       -1.54471485      -0.33739825      -1.62846977
H        0.68119518       1.74599221       0.51574915
H        1.43030510       2.24384936      -1.08716582
H        1.35572527      -0.88692808      -1.00807854
H        2.60843024      -1.04205152       0.32136474
H       -1.09965019      -2.08236314       1.15713719
15
Frame=11 idx=009097 GeodesicLength=0.981949142678752 rxn_smarts="[C:1]1([H:8])([H:9])[C@:2]2([H:10])[O:3][C:4]([H:11])([H:12])[C:5]([H:13])([H:14])[O:6][C@:7]12[H:15]>>[C:1]([C:2](=[O+:3][C-:4]([H:11])[H:12])[H:10])([C:7](=[O+:6][C-:5]([H:13])[H:14])[H:15])([H:8])[H:9]"
C       -1.34664209       0.06239431       0.62701696
C       -0.99501838       0.11322554      -0.80762187
O       -0.23380314       1.11745011      -1.24335495
C        0.84428254       1.51696475      -0.54864787
C        1.59795588      -0.74787741       0.06549010
O        0.69990510      -1.31070353       0.88791541
C       -0.61350611      -1.22859597       0.70619680
H       -0.94642672       0.79305893       1.34345556
H       -2.42796537       0.02975954       0.76053034
H       -1.55297313      -0.35172369      -1.60565898
H        0.67606360       1.79191118       0.48921759
H        1.42946868       2.22279893      -1.12350341
H        1.39368923      -0.88982486      -0.99226283
H        2.60253377      -1.00955396       0.37248728
H       -1.12756387      -2.10928386       1.06873988
15
Frame=12 idx=009097 GeodesicLength=1.070385628421578 rxn_smarts="[C:1]1([H:8])([H:9])[C@:2]2([H:10])[O:3][C:4]([H:11])([H:12])[C:5]([H:13])([H:14])[O:6][C@:7]12[H:15]>>[C:1]([C:2](=[O+:3][C-:4]([H:11])[H:12])[H:10])([C:7](=[O+:6][C-:5]([H:13])[H:14])[H:15])([H:8])[H:9]"
C       -1.33858129       0.06402804       0.64786029
C       -1.00210050       0.10912334      -0.79182798
O       -0.25039015       1.11646147      -1.24257773
C        0.84303172       1.51204274      -0.56132342
C        1.59473957      -0.73312863       0.08731378
O        0.68469533      -1.33112616       0.87674089
C       -0.62701279      -1.24059435       0.66534262
H       -0.89630921       0.76763382       1.36562640
H       -2.41721361       0.06293020       0.80170362
H       -1.56238003      -0.36363856      -1.58385252
H        0.66937765       1.83764995       0.46142140
H        1.42898032       2.19983077      -1.15776483
H        1.43235593      -0.89225499      -0.97565380
H        2.59449671      -0.97814945       0.42364389
H       -1.15368965      -2.13080817       0.98334740
15
Frame=13 idx=009097 GeodesicLength=1.1588442864873667 rxn_smarts="[C:1]1([H:8])([H:9])[C@:2]2([H:10])[O:3][C:4]([H:11])([H:12])[C:5]([H:13])([H:14])[O:6][C@:7]12[H:15]>>[C:1]([C:2](=[O+:3][C-:4]([H:11])[H:12])[H:10])([C:7](=[O+:6][C-:5]([H:13])[H:14])[H:15])([H:8])[H:9]"
C       -1.32983859       0.06429682       0.66821956
C       -1.00959606       0.10559517      -0.77660376
O       -0.26676538       1.11574856      -1.24144885
C        0.84123540       1.50674303      -0.57241712
C        1.59096661      -0.71916558       0.10830829
O        0.67024212      -1.35168371       0.86370309
C       -0.63940246      -1.25050412       0.62545928
H       -0.84778064       0.74128687       1.38504667
H       -2.40444223       0.09283578       0.84289676
H       -1.57274912      -0.37345839      -1.56302617
H        0.66139361       1.88297158       0.43234005
H        1.42875172       2.17513241      -1.18986771
H        1.47165308      -0.89424458      -0.95826112
H        2.58438102      -0.94805050       0.47460644
H       -1.17804909      -2.14750334       0.90104459
15
Frame=14 idx=009097 GeodesicLength=1.2473557863114477 rxn_smarts="[C:1]1([H:8])([H:9])[C@:2]2([H:10])[O:3][C:4]([H:11])([H:12])[C:5]([H:13])([H:14])[O:6][C@:7]12[H:15]>>[C:1]([C:2](=[O+:3][C-:4]([H:11])[H:12])[H:10])([C:7](=[O+:6][C-:5]([H:13])[H:14])[H:15])([H:8])[H:9]"
C       -1.32055130       0.06331466       0.68806871
C       -1.01747786       0.10260597      -0.76190395
O       -0.28293253       1.11532522      -1.23998496
C        0.83892464       1.50116058      -0.58195324
C        1.58677800      -0.70597254       0.12837611
O        0.65661547      -1.37194578       0.84899267
C       -0.65073676      -1.25845568       0.58655222
H       -0.80097331       0.71435082       1.40188978
H       -2.38991946       0.11965866       0.88397964
H       -1.58390360      -0.38146064      -1.54312855
H        0.65238451       1.92767181       0.40195834
H        1.42870775       2.14888135      -1.21978137
H        1.51149675      -0.89582157      -0.94008213
H        2.57228030      -0.91942420       0.52514621
H       -1.20069259      -2.15988864       0.82187052
15
Frame=15 idx=009097 GeodesicLength=1.3359484835200472 rxn_smarts="[C:1]1([H:8])([H:9])[C@:2]2([H:10])[O:3][C:4]([H:11])([H:12])[C:5]([H:13])([H:14])[O:6][C@:7]12[H:15]>>[C:1]([C:2](=[O+:3][C-:4]([H:11])[H:12])[H:10])([C:7](=[O+:6][C-:5]([H:13])[H:14])[H:15])([H:8])[H:9]"
C       -1.31084580       0.06118089       0.70739221
C       -1.02572234       0.10013016      -0.74767896
O       -0.29891751       1.11521918      -1.23819123
C        0.83612938       1.49538322      -0.58998298
C        1.58228970      -0.69350982       0.14745200
O        0.64384532      -1.39158553       0.83279601
C       -0.66108222      -1.26458206       0.54860812
H       -0.75598401       0.68707488       1.41637467
H       -2.37388872       0.14357320       0.92484419
H       -1.59568938      -0.38787362      -1.52410544
H        0.64265433       1.97158505       0.37025878
H        1.42879906       2.12118799      -1.24753622
H        1.55180075      -0.89700576      -0.92110000
H        2.55829016      -0.89232259       0.57507892
H       -1.22167870      -2.16845520       0.74578993
15
Frame=16 idx=009097 GeodesicLength=1.424653936277335 rxn_smarts="[C:1]1([H:8])([H:9])[C@:2]2([H:10])[O:3][C:4]([H:11])([H:12])[C:5]([H:13])([H:14])[O:6][C@:7]12[H:15]>>[C:1]([C:2](=[O+:3][C-:4]([H:11])[H:12])[H:10])([C:7](=[O+:6][C-:5]([H:13])[H:14])[H:15])([H:8])[H:9]"
C       -1.30083209       0.05797990       0.72618484
C       -1.03430806       0.09814712      -0.73387397
O       -0.31476175       1.11546770      -1.23606106
C        0.83287556       1.48949585      -0.59657382
C        1.57760031      -0.68172067       0.16550143
O        0.63193682      -1.41037188       0.81528293
C       -0.67050880      -1.26901428       0.51159908
H       -0.71286690       0.65963722       1.42874345
H       -2.35656371       0.16474397       0.96540301
H       -1.60797786      -0.39288701      -1.50589570
H        0.63250715       2.01460014       0.33721471
H        1.42898952       2.09210918      -1.27320533
H        1.59248240      -0.89780889      -0.90128356
H        2.54250644      -0.86672327       0.62426161
H       -1.24107903      -2.17365510       0.67270238
