14
Frame=0 idx=001178 GeodesicLength=0.0 rxn_smarts="[C:1]([C:2]([O:3][C:4](=[O:5])[C:6]([H:12])([H:13])[H:14])([H:10])[H:11])([H:7])([H:8])[H:9]>>[C:1](=[C:2]([H:10])[H:11])([H:8])[H:9].[O:3]=[C:4]([O:5][H:7])[C:6]([H:12])([H:13])[H:14]"
C       -2.01181913      -0.56638636       0.11919071
C       -1.65214782       0.74776430      -0.18396205
O        0.28218445       0.95132551      -0.34859014
C        0.97513283      -0.06855927      -0.11108291
O        0.49362002      -1.23714299      -0.01511820
C        2.45347882       0.09867312       0.10019700
H       -0.75182292      -1.04693600       0.04849846
H       -2.32127065      -0.78143012       1.13641614
H       -2.50953847      -1.13827147      -0.65756231
H       -1.76161318       1.13052654      -1.18970428
H       -1.62324535       1.50851729       0.58460491
H        2.80390004       1.01967725      -0.36014257
H        2.98317043      -0.76504912      -0.29771981
H        2.63997097       0.14729135       1.17497507
14
Frame=1 idx=001178 GeodesicLength=0.07238411353663882 rxn_smarts="[C:1]([C:2]([O:3][C:4](=[O:5])[C:6]([H:12])([H:13])[H:14])([H:10])[H:11])([H:7])([H:8])[H:9]>>[C:1](=[C:2]([H:10])[H:11])([H:8])[H:9].[O:3]=[C:4]([O:5][H:7])[C:6]([H:12])([H:13])[H:14]"
C       -2.01913941      -0.56356710       0.13740313
C       -1.65222984       0.74255831      -0.19608499
O        0.28720803       0.96188269      -0.30793974
C        0.98780082      -0.06508162      -0.12721234
O        0.50574149      -1.23678714      -0.08761851
C        2.46264960       0.09796350       0.10728628
H       -0.75548990      -1.05738327       0.04615838
H       -2.31001951      -0.75598482       1.16479340
H       -2.54811804      -1.13948510      -0.61548914
H       -1.75090193       1.08950031      -1.21630590
H       -1.65989360       1.53119005       0.54447581
H        2.81388838       1.03842134      -0.31135854
H        2.99969934      -0.74552100      -0.32286472
H        2.63880457       0.10229385       1.18475688
14
Frame=2 idx=001178 GeodesicLength=0.14400196310285934 rxn_smarts="[C:1]([C:2]([O:3][C:4](=[O:5])[C:6]([H:12])([H:13])[H:14])([H:10])[H:11])([H:7])([H:8])[H:9]>>[C:1](=[C:2]([H:10])[H:11])([H:8])[H:9].[O:3]=[C:4]([O:5][H:7])[C:6]([H:12])([H:13])[H:14]"
C       -2.02686801      -0.56116975       0.15332609
C       -1.65239022       0.73702932      -0.20712603
O        0.29128940       0.97075310      -0.26348699
C        0.99987862      -0.05997831      -0.14028179
O        0.51659141      -1.23193073      -0.15077646
C        2.47191721       0.09712516       0.11224409
H       -0.75896746      -1.06799429       0.04782280
H       -2.30463885      -0.73170542       1.18838288
H       -2.58212702      -1.13969648      -0.57848687
H       -1.73788487       1.04945613      -1.24006891
H       -1.69549193       1.55070641       0.50464902
H        2.82296240       1.05426480      -0.26701593
H        3.01433204      -0.72612871      -0.34917361
H        2.64139728       0.05926876       1.18999171
14
Frame=3 idx=001178 GeodesicLength=0.21502930485407917 rxn_smarts="[C:1]([C:2]([O:3][C:4](=[O:5])[C:6]([H:12])([H:13])[H:14])([H:10])[H:11])([H:7])([H:8])[H:9]>>[C:1](=[C:2]([H:10])[H:11])([H:8])[H:9].[O:3]=[C:4]([O:5][H:7])[C:6]([H:12])([H:13])[H:14]"
C       -2.03516058      -0.55913777       0.16732685
C       -1.65228929       0.73130994      -0.21674782
O        0.29472577       0.97707614      -0.21878118
C        1.01149033      -0.05401346      -0.15151267
O        0.52658018      -1.22427819      -0.20587496
C        2.48113884       0.09662231       0.11577779
H       -0.76263144      -1.07920032       0.05127355
H       -2.30401489      -0.70889660       1.20814540
H       -2.61345633      -1.13841927      -0.54596180
H       -1.72415897       1.01119761      -1.26045726
H       -1.72751629       1.56701956       0.46632807
H        2.83146256       1.06773620      -0.22701128
H        3.02782592      -0.70684258      -0.37453707
H        2.64600417       0.01982642       1.19203238
14
Frame=4 idx=001178 GeodesicLength=0.2856381682787279 rxn_smarts="[C:1]([C:2]([O:3][C:4](=[O:5])[C:6]([H:12])([H:13])[H:14])([H:10])[H:11])([H:7])([H:8])[H:9]>>[C:1](=[C:2]([H:10])[H:11])([H:8])[H:9].[O:3]=[C:4]([O:5][H:7])[C:6]([H:12])([H:13])[H:14]"
C       -2.04398521      -0.55735486       0.17988207
C       -1.65181970       0.72543381      -0.22515333
O        0.29770109       0.98080806      -0.17495452
C        1.02274109      -0.04752026      -0.16143569
O        0.53606268      -1.21484894      -0.25465241
C        2.49027657       0.09655155       0.11836910
H       -0.76665791      -1.09113005       0.05537906
H       -2.30689145      -0.68725724       1.22509176
H       -2.64323837      -1.13565479      -0.51687458
H       -1.71044271       0.97455687      -1.27790332
H       -1.75567719       1.58068980       0.42945478
H        2.83945183       1.07949148      -0.19035378
H        3.04061048      -0.68742978      -0.39864930
H        2.65186881      -0.01633563       1.19180016
14
Frame=5 idx=001178 GeodesicLength=0.3559444233882365 rxn_smarts="[C:1]([C:2]([O:3][C:4](=[O:5])[C:6]([H:12])([H:13])[H:14])([H:10])[H:11])([H:7])([H:8])[H:9]>>[C:1](=[C:2]([H:10])[H:11])([H:8])[H:9].[O:3]=[C:4]([O:5][H:7])[C:6]([H:12])([H:13])[H:14]"
C       -2.05334052      -0.55574392       0.19130244
C       -1.65096604       0.71939960      -0.23255649
O        0.30034775       0.98210118      -0.13228174
C        1.03370724      -0.04069100      -0.17023636
O        0.54527844      -1.20426848      -0.29834618
C        2.49935094       0.09693949       0.12027691
H       -0.77116495      -1.10380552       0.05969727
H       -2.31254229      -0.66651983       1.23985192
H       -2.67209906      -1.13148493      -0.49053962
H       -1.69703405       0.93926105      -1.29287811
H       -1.78015848       1.59219545       0.39385035
H        2.84698237       1.08998877      -0.15634608
H        3.05291027      -0.66771596      -0.42161625
H        2.65872840      -0.04965591       1.18982194
14
Frame=6 idx=001178 GeodesicLength=0.42601504970113324 rxn_smarts="[C:1]([C:2]([O:3][C:4](=[O:5])[C:6]([H:12])([H:13])[H:14])([H:10])[H:11])([H:7])([H:8])[H:9]>>[C:1](=[C:2]([H:10])[H:11])([H:8])[H:9].[O:3]=[C:4]([O:5][H:7])[C:6]([H:12])([H:13])[H:14]"
C       -2.06312998      -0.55424648       0.20191525
C       -1.64975394       0.71320030      -0.23912789
O        0.30277870       0.98117948      -0.09127438
C        1.04446818      -0.03362514      -0.17832773
O        0.55440350      -1.19288959      -0.33832627
C        2.50832992       0.09776751       0.12179621
H       -0.77617566      -1.11722768       0.06378172
H       -2.32010442      -0.64646854       1.25302868
H       -2.70050307      -1.12598990      -0.46619441
H       -1.68437532       0.90506559      -1.30576267
H       -1.80109802       1.60189882       0.35940421
H        2.85414697       1.09950946      -0.12427096
H        3.06494148      -0.64764387      -0.44326434
H        2.66607166      -0.08052997       1.18662258
14
Frame=7 idx=001178 GeodesicLength=0.49590956414830406 rxn_smarts="[C:1]([C:2]([O:3][C:4](=[O:5])[C:6]([H:12])([H:13])[H:14])([H:10])[H:11])([H:7])([H:8])[H:9]>>[C:1](=[C:2]([H:10])[H:11])([H:8])[H:9].[O:3]=[C:4]([O:5][H:7])[C:6]([H:12])([H:13])[H:14]"
C       -2.07323961      -0.55281954       0.21200325
C       -1.64823765       0.70681758      -0.24504054
O        0.30507404       0.97831481      -0.05222622
C        1.05509474      -0.02633331      -0.18608299
O        0.56355700      -1.18085813      -0.37575310
C        2.51718522       0.09897928       0.12315715
H       -0.78166134      -1.13136915       0.06735752
H       -2.32884928      -0.62689097       1.26511567
H       -2.72872664      -1.11927821      -0.44316258
H       -1.67279498       0.87170382      -1.31692307
H       -1.81877148       1.61009863       0.32594228
H        2.86102738       1.10823426      -0.09345653
H        3.07686793      -0.62717646      -0.46351655
H        2.67347468      -0.10942262       1.18258569
14
Frame=8 idx=001178 GeodesicLength=0.5656700640275897 rxn_smarts="[C:1]([C:2]([O:3][C:4](=[O:5])[C:6]([H:12])([H:13])[H:14])([H:10])[H:11])([H:7])([H:8])[H:9]>>[C:1](=[C:2]([H:10])[H:11])([H:8])[H:9].[O:3]=[C:4]([O:5][H:7])[C:6]([H:12])([H:13])[H:14]"
C       -2.08369748      -0.55141019       0.22165806
C       -1.64644971       0.70021031      -0.25047217
O        0.30725327       0.97363995      -0.01461089
C        1.06561189      -0.01884537      -0.19339541
O        0.57280386      -1.16828800      -0.41096596
C        2.52597860       0.10054318       0.12435192
H       -0.78766580      -1.14618723       0.07059815
H       -2.33867508      -0.60753519       1.27626160
H       -2.75685132      -1.11143098      -0.42122685
H       -1.66212330       0.83889087      -1.32669152
H       -1.83364839       1.61700375       0.29316153
H        2.86759605       1.11633828      -0.06354370
H        3.08871271      -0.60611903      -0.48281983
H        2.68115471      -0.13681035       1.17769505
14
Frame=9 idx=001178 GeodesicLength=0.635332901867472 rxn_smarts="[C:1]([C:2]([O:3][C:4](=[O:5])[C:6]([H:12])([H:13])[H:14])([H:10])[H:11])([H:7])([H:8])[H:9]>>[C:1](=[C:2]([H:10])[H:11])([H:8])[H:9].[O:3]=[C:4]([O:5][H:7])[C:6]([H:12])([H:13])[H:14]"
C       -2.09427990      -0.54999874       0.23120766
C       -1.64447809       0.69335181      -0.25557569
O        0.30937691       0.96748786       0.02085121
C        1.07608556      -0.01105622      -0.20079854
O        0.58221650      -1.15505674      -0.44524173
C        2.53461266       0.10237005       0.12569816
H       -0.79408055      -1.16166564       0.07300995
H       -2.34859743      -0.58825275       1.28701020
H       -2.78509979      -1.10252835      -0.39953692
H       -1.65289500       0.80636744      -1.33535099
H       -1.84587596       1.62279721       0.26089953
H        2.87396647       1.12382907      -0.03373300
H        3.10064190      -0.58449537      -0.50080275
H        2.68840671      -0.16314963       1.17236290
14
Frame=10 idx=001178 GeodesicLength=0.7049562552506558 rxn_smarts="[C:1]([C:2]([O:3][C:4](=[O:5])[C:6]([H:12])([H:13])[H:14])([H:10])[H:11])([H:7])([H:8])[H:9]>>[C:1](=[C:2]([H:10])[H:11])([H:8])[H:9].[O:3]=[C:4]([O:5][H:7])[C:6]([H:12])([H:13])[H:14]"
C       -2.10506730      -0.54852963       0.24067043
C       -1.64233729       0.68619082      -0.26051667
O        0.31142076       0.95989384       0.05488312
C        1.08651046      -0.00299806      -0.20795262
O        0.59182421      -1.14121161      -0.47849902
C        2.54317221       0.10444553       0.12710516
H       -0.80099880      -1.17779676       0.07485341
H       -2.35875872      -0.56878411       1.29736866
H       -2.81348822      -1.09259886      -0.37803710
H       -1.64476461       0.77383897      -1.34316117
H       -1.85587380       1.62761069       0.22876157
H        2.88004150       1.13083171      -0.00373267
H        3.11262126      -0.56196045      -0.51809668
H        2.69569835      -0.18893208       1.16635356
14
Frame=11 idx=001178 GeodesicLength=0.7745325369558914 rxn_smarts="[C:1]([C:2]([O:3][C:4](=[O:5])[C:6]([H:12])([H:13])[H:14])([H:10])[H:11])([H:7])([H:8])[H:9]>>[C:1](=[C:2]([H:10])[H:11])([H:8])[H:9].[O:3]=[C:4]([O:5][H:7])[C:6]([H:12])([H:13])[H:14]"
C       -2.11614693      -0.54700688       0.24997439
C       -1.64002842       0.67871850      -0.26527514
O        0.31341289       0.95090168       0.08777729
C        1.09689910       0.00527071      -0.21470098
O        0.60165617      -1.12683904      -0.51067563
C        2.55172319       0.10678318       0.12849421
H       -0.80848567      -1.19457069       0.07638739
H       -2.36941893      -0.54916244       1.30721911
H       -2.84194191      -1.08165457      -0.35696209
H       -1.63763244       0.74135963      -1.35014776
H       -1.86377482       1.63145253       0.19688415
H        2.88585620       1.13734461       0.02613317
H        3.12462449      -0.53862037      -0.53473551
H        2.70325708      -0.21397686       1.15962739
14
Frame=12 idx=001178 GeodesicLength=0.8440356925284835 rxn_smarts="[C:1]([C:2]([O:3][C:4](=[O:5])[C:6]([H:12])([H:13])[H:14])([H:10])[H:11])([H:7])([H:8])[H:9]>>[C:1](=[C:2]([H:10])[H:11])([H:8])[H:9].[O:3]=[C:4]([O:5][H:7])[C:6]([H:12])([H:13])[H:14]"
C       -2.12748752      -0.54544356       0.25915026
C       -1.63757733       0.67091995      -0.26984353
O        0.31539321       0.94063365       0.11941659
C        1.10728261       0.01377148      -0.22118211
O        0.61174475      -1.11189021      -0.54213097
C        2.56025903       0.10936403       0.12991920
H       -0.81652931      -1.21197239       0.07759076
H       -2.38041208      -0.52944536       1.31662012
H       -2.87045321      -1.06970517      -0.33624178
H       -1.63163739       0.70896307      -1.35634554
H       -1.86967116       1.63431976       0.16541394
H        2.89150159       1.14332011       0.05573563
H        3.13668142      -0.51470161      -0.55044491
H        2.71090540      -0.23813375       1.15234235
14
Frame=13 idx=001178 GeodesicLength=0.9135101144196747 rxn_smarts="[C:1]([C:2]([O:3][C:4](=[O:5])[C:6]([H:12])([H:13])[H:14])([H:10])[H:11])([H:7])([H:8])[H:9]>>[C:1](=[C:2]([H:10])[H:11])([H:8])[H:9].[O:3]=[C:4]([O:5][H:7])[C:6]([H:12])([H:13])[H:14]"
C       -2.13909852      -0.54379505       0.26827499
C       -1.63499813       0.66274787      -0.27433251
O        0.31734971       0.92910537       0.15002300
C        1.11766173       0.02250098      -0.22733996
O        0.62210812      -1.09633756      -0.57302298
C        2.56879923       0.11217438       0.13138499
H       -0.82517552      -1.23001440       0.07855329
H       -2.39166170      -0.50942904       1.32566239
H       -2.89905562      -1.05676121      -0.31570424
H       -1.62668046       0.67642122      -1.36191079
H       -1.87373503       1.63628329       0.13407886
H        2.89692270       1.14881666       0.08544515
H        3.14880173      -0.48993851      -0.56550641
H        2.71876177      -0.26177401       1.14439421
14
Frame=14 idx=001178 GeodesicLength=0.9829867162649979 rxn_smarts="[C:1]([C:2]([O:3][C:4](=[O:5])[C:6]([H:12])([H:13])[H:14])([H:10])[H:11])([H:7])([H:8])[H:9]>>[C:1](=[C:2]([H:10])[H:11])([H:8])[H:9].[O:3]=[C:4]([O:5][H:7])[C:6]([H:12])([H:13])[H:14]"
C       -2.15100966      -0.54199392       0.27741949
C       -1.63228404       0.65415503      -0.27883479
O        0.31926387       0.91626699       0.17984211
C        1.12802724       0.03143726      -0.23309765
O        0.63275912      -1.08017470      -0.60340604
C        2.57735870       0.11520588       0.13286359
H       -0.83449170      -1.24869944       0.07944205
H       -2.40319917      -0.48887660       1.33439572
H       -2.92771561      -1.04284126      -0.29525132
H       -1.62260821       0.64351014      -1.36695630
H       -1.87608589       1.63738740       0.10259994
H        2.90202061       1.15386449       0.11563713
H        3.16098462      -0.46396929      -0.58024189
H        2.72698014      -0.28527199       1.13558796
14
Frame=15 idx=001178 GeodesicLength=1.0524348261309315 rxn_smarts="[C:1]([C:2]([O:3][C:4](=[O:5])[C:6]([H:12])([H:13])[H:14])([H:10])[H:11])([H:7])([H:8])[H:9]>>[C:1](=[C:2]([H:10])[H:11])([H:8])[H:9].[O:3]=[C:4]([O:5][H:7])[C:6]([H:12])([H:13])[H:14]"
C       -2.16309903      -0.54008839       0.28664788
C       -1.62949497       0.64510951      -0.28335627
O        0.32117687       0.90232774       0.20846053
C        1.13842142       0.04069573      -0.23874512
O        0.64372852      -1.06317139      -0.63386762
C        2.58588507       0.11841853       0.13450497
H       -0.84440463      -1.26802876       0.08003236
H       -2.41454697      -0.46792488       1.34295518
H       -2.95648865      -1.02790496      -0.27462546
H       -1.61975365       0.61027031      -1.37150213
H       -1.87678517       1.63756523       0.07115252
H        2.90694739       1.15832461       0.14621817
H        3.17327857      -0.43718061      -0.59408499
H        2.73513523      -0.30841266       1.12620998
14
Frame=16 idx=001178 GeodesicLength=1.1218661369014045 rxn_smarts="[C:1]([C:2]([O:3][C:4](=[O:5])[C:6]([H:12])([H:13])[H:14])([H:10])[H:11])([H:7])([H:8])[H:9]>>[C:1](=[C:2]([H:10])[H:11])([H:8])[H:9].[O:3]=[C:4]([O:5][H:7])[C:6]([H:12])([H:13])[H:14]"
C       -2.17539010      -0.53804392       0.29599190
C       -1.62664297       0.63559016      -0.28790744
O        0.32309366       0.88729419       0.23598215
C        1.14885086       0.05030010      -0.24427861
O        0.65502340      -1.04524600      -0.66449465
C        2.59439353       0.12178549       0.13628050
H       -0.85494105      -1.28798239       0.08051589
H       -2.42579810      -0.44648357       1.35133371
H       -2.98524376      -1.01202214      -0.25386782
H       -1.61805007       0.57664244      -1.37556470
H       -1.87595050       1.63681678       0.03968496
H        2.91169160       1.16215996       0.17723617
H        3.18569614      -0.40952876      -0.60710053
H        2.74326735      -0.33128234       1.11618845
