11
Frame=0 idx=000298 GeodesicLength=0.0 rxn_smarts="[C:1]([C:2](=[O:3])[C:4](=[O:5])[N:6]([H:10])[H:11])([H:7])([H:8])[H:9]>>[C:1]([C:2](=[O:3])[H:10])([H:7])([H:8])[H:9].[C:4](=[O:5])=[N:6][H:11]"
C       -1.59448027      -0.07013304       0.24990601
C       -0.32804171      -0.67916471      -0.28516666
O       -0.29275101      -1.62698568      -1.02269849
C        1.17049439       0.65858575      -0.38344574
O        0.85049021       1.54675708      -1.07607574
N        2.02250292       0.06283729       0.38459189
H       -2.46381674      -0.56577407      -0.18031796
H       -1.60934498      -0.17580815       1.33755039
H       -1.62154582       0.99704196       0.02516269
H        0.91652077      -0.60864716       0.42696692
H        2.94997228       0.46129070       0.52352665
11
Frame=1 idx=000298 GeodesicLength=0.07426072256550222 rxn_smarts="[C:1]([C:2](=[O:3])[C:4](=[O:5])[N:6]([H:10])[H:11])([H:7])([H:8])[H:9]>>[C:1]([C:2](=[O:3])[H:10])([H:7])([H:8])[H:9].[C:4](=[O:5])=[N:6][H:11]"
C       -1.59488337      -0.07028265       0.24635557
C       -0.33256354      -0.68432216      -0.29176334
O       -0.30496227      -1.63493099      -1.02628785
C        1.17082106       0.67085588      -0.37719390
O        0.85934416       1.57626385      -1.05248620
N        2.02556060       0.05886511       0.37343224
H       -2.46755621      -0.58645627      -0.15149363
H       -1.58914630      -0.13949479       1.33696125
H       -1.63666025       0.98899830      -0.01148014
H        0.92432882      -0.64180301       0.41694997
H        2.94571730       0.46230673       0.53700604
11
Frame=2 idx=000298 GeodesicLength=0.14848882914262507 rxn_smarts="[C:1]([C:2](=[O:3])[C:4](=[O:5])[N:6]([H:10])[H:11])([H:7])([H:8])[H:9]>>[C:1]([C:2](=[O:3])[H:10])([H:7])([H:8])[H:9].[C:4](=[O:5])=[N:6][H:11]"
C       -1.59479505      -0.07024285       0.24270504
C       -0.33685213      -0.69010821      -0.29810162
O       -0.31751905      -1.64414780      -1.02870811
C        1.17130070       0.68279116      -0.37234068
O        0.86698272       1.60649322      -1.02715006
N        2.02823764       0.05537665       0.36145375
H       -2.47021143      -0.60545193      -0.12232489
H       -1.56888948      -0.10281078       1.33467545
H       -1.65102567       0.98001186      -0.04764964
H        0.93251270      -0.67513172       0.40602130
H        2.94025903       0.46322039       0.55141947
11
Frame=3 idx=000298 GeodesicLength=0.22270257771030832 rxn_smarts="[C:1]([C:2](=[O:3])[C:4](=[O:5])[N:6]([H:10])[H:11])([H:7])([H:8])[H:9]>>[C:1]([C:2](=[O:3])[H:10])([H:7])([H:8])[H:9].[C:4](=[O:5])=[N:6][H:11]"
C       -1.59437277      -0.07007411       0.23876327
C       -0.34083546      -0.69643175      -0.30399041
O       -0.33001217      -1.65459382      -1.02965571
C        1.17184378       0.69474708      -0.36847062
O        0.87332940       1.63767946      -0.99948670
N        2.03028332       0.05281835       0.34943669
H       -2.47182457      -0.62298538      -0.09318079
H       -1.54897586      -0.06578010       1.33052522
H       -1.66487629       0.97002086      -0.08363640
H        0.94095033      -0.70832974       0.39478346
H        2.93449029       0.46292915       0.56491198
11
Frame=4 idx=000298 GeodesicLength=0.2969029133900007 rxn_smarts="[C:1]([C:2](=[O:3])[C:4](=[O:5])[N:6]([H:10])[H:11])([H:7])([H:8])[H:9]>>[C:1]([C:2](=[O:3])[H:10])([H:7])([H:8])[H:9].[C:4](=[O:5])=[N:6][H:11]"
C       -1.59347624      -0.06971993       0.23463587
C       -0.34454966      -0.70335846      -0.30956670
O       -0.34271664      -1.66631050      -1.02925886
C        1.17254848       0.70656560      -0.36609906
O        0.87842505       1.66959601      -0.96965315
N        2.03183486       0.05083796       0.33677364
H       -2.47244166      -0.63883740      -0.06387401
H       -1.52905242      -0.02849064       1.32462132
H       -1.67797927       0.95913868      -0.11924296
H        0.94974238      -0.74162005       0.38291705
H        2.92766511       0.46219873       0.57874685
11
Frame=5 idx=000298 GeodesicLength=0.3710952936505712 rxn_smarts="[C:1]([C:2](=[O:3])[C:4](=[O:5])[N:6]([H:10])[H:11])([H:7])([H:8])[H:9]>>[C:1]([C:2](=[O:3])[H:10])([H:7])([H:8])[H:9].[C:4](=[O:5])=[N:6][H:11]"
C       -1.59212560      -0.06918571       0.23028182
C       -0.34797259      -0.71087060      -0.31477117
O       -0.35554125      -1.67925830      -1.02743028
C        1.17340013       0.71839316      -0.36522290
O        0.88226692       1.70216179      -0.93746759
N        2.03283563       0.04950000       0.32356053
H       -2.47210857      -0.65300030      -0.03454507
H       -1.50918530       0.00896976       1.31694220
H       -1.69033454       0.94739845      -0.15449096
H        0.95888341      -0.77495158       0.37059191
H        2.91988177       0.46084332       0.59255150
11
Frame=6 idx=000298 GeodesicLength=0.4452907040019483 rxn_smarts="[C:1]([C:2](=[O:3])[C:4](=[O:5])[N:6]([H:10])[H:11])([H:7])([H:8])[H:9]>>[C:1]([C:2](=[O:3])[H:10])([H:7])([H:8])[H:9].[C:4](=[O:5])=[N:6][H:11]"
C       -1.59058108      -0.06854356       0.22542388
C       -0.35103208      -0.71886514      -0.31928863
O       -0.36793994      -1.69332590      -1.02381574
C        1.17422273       0.73069115      -0.36506203
O        0.88477113       1.73549705      -0.90211775
N        2.03291133       0.04931664       0.31092951
H       -2.47093564      -0.66571757      -0.00578672
H       -1.49008114       0.04657687       1.30726089
H       -1.70218955       0.93470304      -0.18978135
H        0.96818996      -0.80798635       0.35870553
H        2.91266428       0.45765377       0.60353240
11
Frame=7 idx=000298 GeodesicLength=0.519455495207933 rxn_smarts="[C:1]([C:2](=[O:3])[C:4](=[O:5])[N:6]([H:10])[H:11])([H:7])([H:8])[H:9]>>[C:1]([C:2](=[O:3])[H:10])([H:7])([H:8])[H:9].[C:4](=[O:5])=[N:6][H:11]"
C       -1.58853256      -0.06769840       0.22038852
C       -0.35380418      -0.72744707      -0.32340217
O       -0.38051807      -1.70846088      -1.01884237
C        1.17517544       0.74318534      -0.36654707
O        0.88612121       1.76894204      -0.86452276
N        2.03246068       0.04959131       0.29740050
H       -2.46893221      -0.67658067       0.02288183
H       -1.47093200       0.08409580       1.29591645
H       -1.71310676       0.92129948      -0.22451797
H        0.97792320      -0.84117651       0.34635242
H        2.90414525       0.45424955       0.61489261
11
Frame=8 idx=000298 GeodesicLength=0.5936141539691386 rxn_smarts="[C:1]([C:2](=[O:3])[C:4](=[O:5])[N:6]([H:10])[H:11])([H:7])([H:8])[H:9]>>[C:1]([C:2](=[O:3])[H:10])([H:7])([H:8])[H:9].[C:4](=[O:5])=[N:6][H:11]"
C       -1.58607181      -0.06667916       0.21513312
C       -0.35625571      -0.73655174      -0.32696942
O       -0.39307546      -1.72449110      -1.01245964
C        1.17616735       0.75618086      -0.36934162
O        0.88639164       1.80227739      -0.82471875
N        2.03141073       0.05045780       0.28319598
H       -2.46619056      -0.68564934       0.05120299
H       -1.45197564       0.12137110       1.28293956
H       -1.72313591       0.90723360      -0.25871013
H        0.98807841      -0.87442780       0.33381484
H        2.89465696       0.45027838       0.62591307
11
Frame=9 idx=000298 GeodesicLength=0.6677330426174615 rxn_smarts="[C:1]([C:2](=[O:3])[C:4](=[O:5])[N:6]([H:10])[H:11])([H:7])([H:8])[H:9]>>[C:1]([C:2](=[O:3])[H:10])([H:7])([H:8])[H:9].[C:4](=[O:5])=[N:6][H:11]"
C       -1.58351479      -0.06556582       0.20934126
C       -0.35834312      -0.74606558      -0.32959158
O       -0.40504531      -1.74126424      -1.00431651
C        1.17693314       0.77016959      -0.37230542
O        0.88556646       1.83550710      -0.78188658
N        2.02929762       0.05237809       0.26946868
H       -2.46288750      -0.69318724       0.07843082
H       -1.43411076       0.15838034       1.26811370
H       -1.73245640       0.89240636      -0.29280243
H        0.99840815      -0.90742528       0.32215109
H        2.88615250       0.44466667       0.63339697
11
Frame=10 idx=000298 GeodesicLength=0.7418157463878648 rxn_smarts="[C:1]([C:2](=[O:3])[C:4](=[O:5])[N:6]([H:10])[H:11])([H:7])([H:8])[H:9]>>[C:1]([C:2](=[O:3])[H:10])([H:7])([H:8])[H:9].[C:4](=[O:5])=[N:6][H:11]"
C       -1.58068276      -0.06433480       0.20333396
C       -0.36010324      -0.75598912      -0.33145571
O       -0.41679417      -1.75857770      -0.99481635
C        1.17754727       0.78512099      -0.37588225
O        0.88395702       1.86805307      -0.73741421
N        2.02647038       0.05490588       0.25524639
H       -2.45910575      -0.69895533       0.10478389
H       -1.41681276       0.19466762       1.25189109
H       -1.74077715       0.87711542      -0.32612730
H        1.00914822      -0.94045451       0.31067131
H        2.87715295       0.43844847       0.63976918
11
Frame=11 idx=000298 GeodesicLength=0.8158580652520424 rxn_smarts="[C:1]([C:2](=[O:3])[C:4](=[O:5])[N:6]([H:10])[H:11])([H:7])([H:8])[H:9]>>[C:1]([C:2](=[O:3])[H:10])([H:7])([H:8])[H:9].[C:4](=[O:5])=[N:6][H:11]"
C       -1.57766798      -0.06301853       0.19703068
C       -0.36153170      -0.76625896      -0.33242796
O       -0.42817864      -1.77632734      -0.98385204
C        1.17791061       0.80124879      -0.37963453
O        0.88164554       1.89984473      -0.69118089
N        2.02283176       0.05809288       0.24068632
H       -2.45496456      -0.70308021       0.13000639
H       -1.40031961       0.23018042       1.23429450
H       -1.74811101       0.86137563      -0.35882166
H        1.02023209      -0.97344481       0.29968481
H        2.86815350       0.43138741       0.64421438
11
Frame=12 idx=000298 GeodesicLength=0.8898777316697746 rxn_smarts="[C:1]([C:2](=[O:3])[C:4](=[O:5])[N:6]([H:10])[H:11])([H:7])([H:8])[H:9]>>[C:1]([C:2](=[O:3])[H:10])([H:7])([H:8])[H:9].[C:4](=[O:5])=[N:6][H:11]"
C       -1.57464234      -0.06165419       0.19031533
C       -0.36262098      -0.77682241      -0.33232574
O       -0.43896491      -1.79443685      -0.97129298
C        1.17790315       0.81875420      -0.38297846
O        0.87872768       1.93087325      -0.64300383
N        2.01821349       0.06201825       0.22617536
H       -2.45068096      -0.70567531       0.15368784
H       -1.38507315       0.26481533       1.21537942
H       -1.75446958       0.84523870      -0.39105252
H        1.03157859      -1.00633998       0.28967583
H        2.86002901       0.42322902       0.64541974
11
Frame=13 idx=000298 GeodesicLength=0.9638680159605051 rxn_smarts="[C:1]([C:2](=[O:3])[C:4](=[O:5])[N:6]([H:10])[H:11])([H:7])([H:8])[H:9]>>[C:1]([C:2](=[O:3])[H:10])([H:7])([H:8])[H:9].[C:4](=[O:5])=[N:6][H:11]"
C       -1.57159057      -0.06026088       0.18322658
C       -0.36339645      -0.78764752      -0.33114238
O       -0.44923066      -1.81282880      -0.95716343
C        1.17751303       0.83769275      -0.38581832
O        0.87535988       1.96101831      -0.59315665
N        2.01264728       0.06658213       0.21152426
H       -2.44636309      -0.70678399       0.17573966
H       -1.37099843       0.29843485       1.19530979
H       -1.75974470       0.82879896      -0.42274277
H        1.04320424      -1.03918685       0.28060174
H        2.85259948       0.41418105       0.64362152
11
Frame=14 idx=000298 GeodesicLength=1.0378505311201731 rxn_smarts="[C:1]([C:2](=[O:3])[C:4](=[O:5])[N:6]([H:10])[H:11])([H:7])([H:8])[H:9]>>[C:1]([C:2](=[O:3])[H:10])([H:7])([H:8])[H:9].[C:4](=[O:5])=[N:6][H:11]"
C       -1.56860798      -0.05886076       0.17568789
C       -0.36386969      -0.79871271      -0.32875822
O       -0.45887965      -1.83147968      -0.94135159
C        1.17668135       0.85815158      -0.38781055
O        0.87163923       1.99029683      -0.54144937
N        2.00604428       0.07178553       0.19687276
H       -2.44219692      -0.70649631       0.19589986
H       -1.35832200       0.33099663       1.17415973
H       -1.76388452       0.81210281      -0.45404999
H        1.05506561      -1.07198194       0.27274623
H        2.84633028       0.40419801       0.63805325
11
Frame=15 idx=000298 GeodesicLength=1.1118234566169278 rxn_smarts="[C:1]([C:2](=[O:3])[C:4](=[O:5])[N:6]([H:10])[H:11])([H:7])([H:8])[H:9]>>[C:1]([C:2](=[O:3])[H:10])([H:7])([H:8])[H:9].[C:4](=[O:5])=[N:6][H:11]"
C       -1.56573852      -0.05747516       0.16767217
C       -0.36406337      -0.81000436      -0.32509335
O       -0.46789740      -1.85035786      -0.92379760
C        1.17537899       0.88016826      -0.38874153
O        0.86770605       2.01868724      -0.48786600
N        1.99834298       0.07760817       0.18225744
H       -2.43834256      -0.70488155       0.21397750
H       -1.34713288       0.36242610       1.15204973
H       -1.76678778       0.79521772      -0.48503904
H        1.06715857      -1.10474825       0.26623275
H        2.84137593       0.39335969       0.62834793
11
Frame=16 idx=000298 GeodesicLength=1.1857864690862132 rxn_smarts="[C:1]([C:2](=[O:3])[C:4](=[O:5])[N:6]([H:10])[H:11])([H:7])([H:8])[H:9]>>[C:1]([C:2](=[O:3])[H:10])([H:7])([H:8])[H:9].[C:4](=[O:5])=[N:6][H:11]"
C       -1.56300731      -0.05611980       0.15915134
C       -0.36400259      -0.82151746      -0.32006361
O       -0.47628911      -1.86944860      -0.90442364
C        1.17358880       0.90376222      -0.38842950
O        0.86369224       2.04616788      -0.43233315
N        1.98949852       0.08403176       0.16767137
H       -2.43494041      -0.70200843       0.22980852
H       -1.33747988       0.39268831       1.12908486
H       -1.76834028       0.77819477      -0.51579826
H        1.07949225      -1.13750432       0.26114580
H        2.83778777       0.38175369       0.61418628
