18
Frame=0 idx=008100 GeodesicLength=0.0 rxn_smarts="[C:1]([C:2]([N:3]([C:4]([H:13])([H:14])[H:15])[C:5](=[O:6])[C:7]([H:16])([H:17])[H:18])([H:11])[H:12])([H:8])([H:9])[H:10]>>[C:1]([C:2]([N:3]=[C:4]([H:13])[H:14])([H:11])[H:12])([H:8])([H:9])[H:10].[C:5](=[O:6])([C:7]([H:16])([H:17])[H:18])[H:15]"
C       -2.31458076       0.37588340      -0.07141035
C       -1.30209681      -0.75887776      -0.05082237
N       -0.03017440      -0.53376753       0.62322232
C        0.27875715       0.69851273       1.06502524
C        1.11677300       0.14840574      -0.63087969
O        0.57726975       0.34977985      -1.69536675
C        2.37862783      -0.62608676      -0.35274106
H       -3.23048938       0.02869520      -0.55178164
H       -1.95074644       1.23132256      -0.64413284
H       -2.58078642       0.71109941       0.93524420
H       -1.06699594      -1.02995497      -1.08748409
H       -1.74281790      -1.64114514       0.41892231
H       -0.41923953       1.53583572       1.00190713
H        1.01346925       0.77180866       1.86753666
H        1.23209623       1.20068496       0.08371068
H        2.23706694      -1.63755928      -0.73061916
H        2.60212123      -0.67128157       0.70999993
H        3.20174616      -0.15335529      -0.89033056
18
Frame=1 idx=008100 GeodesicLength=0.103238271279711 rxn_smarts="[C:1]([C:2]([N:3]([C:4]([H:13])([H:14])[H:15])[C:5](=[O:6])[C:7]([H:16])([H:17])[H:18])([H:11])[H:12])([H:8])([H:9])[H:10]>>[C:1]([C:2]([N:3]=[C:4]([H:13])[H:14])([H:11])[H:12])([H:8])([H:9])[H:10].[C:5](=[O:6])([C:7]([H:16])([H:17])[H:18])[H:15]"
C       -2.31495224       0.37933909      -0.08777067
C       -1.30606374      -0.75716361      -0.03536945
N       -0.02999073      -0.52563850       0.62677243
C        0.27581045       0.70120898       1.08520643
C        1.11939778       0.14672469      -0.64167223
O        0.57901659       0.33044585      -1.70929910
C        2.38376043      -0.62587667      -0.36893559
H       -3.22700644       0.02656133      -0.57147709
H       -1.94200230       1.22358335      -0.67093600
H       -2.59187901       0.73344182       0.90928808
H       -1.07209291      -1.05779461      -1.06392750
H       -1.74952790      -1.62295871       0.46194419
H       -0.43197614       1.53179631       1.05706128
H        1.01946377       0.76217384       1.88043076
H        1.22276380       1.21554768       0.08727606
H        2.25673952      -1.62721835      -0.77752379
H        2.59523842      -0.70349408       0.69465195
H        3.21330065      -0.13067840      -0.87571977
18
Frame=2 idx=008100 GeodesicLength=0.2063591455041076 rxn_smarts="[C:1]([C:2]([N:3]([C:4]([H:13])([H:14])[H:15])[C:5](=[O:6])[C:7]([H:16])([H:17])[H:18])([H:11])[H:12])([H:8])([H:9])[H:10]>>[C:1]([C:2]([N:3]=[C:4]([H:13])[H:14])([H:11])[H:12])([H:8])([H:9])[H:10].[C:5](=[O:6])([C:7]([H:16])([H:17])[H:18])[H:15]"
C       -2.31485125       0.38283212      -0.10421232
C       -1.31016076      -0.75507412      -0.01990906
N       -0.02983935      -0.51730140       0.63004398
C        0.27271361       0.70377105       1.10559118
C        1.12187704       0.14455906      -0.65316553
O        0.58075538       0.30990167      -1.72381754
C        2.38901299      -0.62546640      -0.38513615
H       -3.22324867       0.02440936      -0.59074246
H       -1.93269552       1.21540856      -0.69791598
H       -2.60197773       0.75622679       0.88268354
H       -1.07769783      -1.08536339      -1.03948922
H       -1.75649454      -1.60321391       0.50479946
H       -0.44520586       1.52572597       1.11383804
H        1.02558145       0.75256603       1.89289538
H        1.21229578       1.23058376       0.09030114
H        2.27781283      -1.61561471      -0.82430715
H        2.58785387      -0.73576316       0.67826438
H        3.22426856      -0.10818727      -0.85972171
18
Frame=3 idx=008100 GeodesicLength=0.30936364783128706 rxn_smarts="[C:1]([C:2]([N:3]([C:4]([H:13])([H:14])[H:15])[C:5](=[O:6])[C:7]([H:16])([H:17])[H:18])([H:11])[H:12])([H:8])([H:9])[H:10]>>[C:1]([C:2]([N:3]=[C:4]([H:13])[H:14])([H:11])[H:12])([H:8])([H:9])[H:10].[C:5](=[O:6])([C:7]([H:16])([H:17])[H:18])[H:15]"
C       -2.31428048       0.38636810      -0.12070710
C       -1.31437066      -0.75257980      -0.00446512
N       -0.02972199      -0.50870566       0.63302150
C        0.26945300       0.70623630       1.12615964
C        1.12421586       0.14188277      -0.66539357
O        0.58250768       0.28810012      -1.73892837
C        2.39437934      -0.62487892      -0.40133255
H       -3.21928561       0.02223420      -0.60944243
H       -1.92288516       1.20672784      -0.72513508
H       -2.61095714       0.77951442       0.85544734
H       -1.08381487      -1.11257341      -1.01418735
H       -1.76363808      -1.58189413       0.54740727
H       -0.45886700       1.51744249       1.17223569
H        1.03180581       0.74304217       1.90489303
H        1.20065189       1.24579190       0.09275924
H        2.30033276      -1.60271805      -0.87090804
H        2.57993763      -0.76812548       0.66081764
H        3.23453702      -0.08586486      -0.84224174
18
Frame=4 idx=008100 GeodesicLength=0.41224428214815145 rxn_smarts="[C:1]([C:2]([N:3]([C:4]([H:13])([H:14])[H:15])[C:5](=[O:6])[C:7]([H:16])([H:17])[H:18])([H:11])[H:12])([H:8])([H:9])[H:10]>>[C:1]([C:2]([N:3]=[C:4]([H:13])[H:14])([H:11])[H:12])([H:8])([H:9])[H:10].[C:5](=[O:6])([C:7]([H:16])([H:17])[H:18])[H:15]"
C       -2.31325609       0.38993995      -0.13722157
C       -1.31867141      -0.74964810       0.01093057
N       -0.02963950      -0.49978813       0.63568902
C        0.26600977       0.70865768       1.14689291
C        1.12642401       0.13868665      -0.67838376
O        0.58430195       0.26501545      -1.75462915
C        2.39984904      -0.62413722      -0.41750695
H       -3.21520081       0.02002720      -0.62742399
H       -1.91264953       1.19747308      -0.75264988
H       -2.61869483       0.80335069       0.82761530
H       -1.09043315      -1.13932411      -0.98805307
H       -1.77087099      -1.55900790       0.58964530
H       -0.47289320       1.50676277       1.23222558
H        1.03810587       0.73367115       1.91639585
H        1.18780753       1.26117912       0.09463993
H        2.32432295      -1.58849992      -0.91723655
H        2.57147814      -0.80057619       0.64229525
H        3.24401027      -0.06378216      -0.82322479
18
Frame=5 idx=008100 GeodesicLength=0.5150140848752387 rxn_smarts="[C:1]([C:2]([N:3]([C:4]([H:13])([H:14])[H:15])[C:5](=[O:6])[C:7]([H:16])([H:17])[H:18])([H:11])[H:12])([H:8])([H:9])[H:10]>>[C:1]([C:2]([N:3]=[C:4]([H:13])[H:14])([H:11])[H:12])([H:8])([H:9])[H:10].[C:5](=[O:6])([C:7]([H:16])([H:17])[H:18])[H:15]"
C       -2.31179857       0.39354777      -0.15372000
C       -1.32304142      -0.74625365       0.02624385
N       -0.02959071      -0.49048237       0.63802994
C        0.26235631       0.71108903       1.16777572
C        1.12851252       0.13495098      -0.69216127
O        0.58616806       0.24061613      -1.77091220
C        2.40540843      -0.62327245      -0.43363700
H       -3.21109551       0.01779644      -0.64451153
H       -1.90208316       1.18753602      -0.78053003
H       -2.62503736       0.82779438       0.79921988
H       -1.09754062      -1.16551435      -0.96111824
H       -1.77810816      -1.53457200       0.63140221
H       -0.48719058       1.49350548       1.29373143
H        1.04444689       0.72453281       1.92737325
H        1.17375379       1.27675382       0.09594054
H        2.34982549      -1.57289389      -0.96323354
H        2.56245448      -0.83314890       0.62265387
H        3.25256013      -0.04198525      -0.80254687
18
Frame=6 idx=008100 GeodesicLength=0.6176550025824173 rxn_smarts="[C:1]([C:2]([N:3]([C:4]([H:13])([H:14])[H:15])[C:5](=[O:6])[C:7]([H:16])([H:17])[H:18])([H:11])[H:12])([H:8])([H:9])[H:10]>>[C:1]([C:2]([N:3]=[C:4]([H:13])[H:14])([H:11])[H:12])([H:8])([H:9])[H:10].[C:5](=[O:6])([C:7]([H:16])([H:17])[H:18])[H:15]"
C       -2.30993733       0.39717282      -0.17016227
C       -1.32743984      -0.74236278       0.04144090
N       -0.02956824      -0.48069965       0.64002778
C        0.25846509       0.71360869       1.18878662
C        1.13049320       0.13069269      -0.70674709
O        0.58813791       0.21490830      -1.78776302
C        2.41103540      -0.62230858      -0.44970277
H       -3.20707705       0.01551713      -0.66053079
H       -1.89129416       1.17682715      -0.80882691
H       -2.62985260       0.85287039       0.77029934
H       -1.10509454      -1.19103691      -0.93341798
H       -1.78524170      -1.50862693       0.67253015
H       -0.50163888       1.47750138       1.35665209
H        1.05077535       0.71571709       1.93780601
H        1.15850019       1.29254134       0.09668072
H        2.37680846      -1.55586242      -1.00880709
H        2.55283929      -0.86585660       0.60186043
H        3.26008945      -0.02060311      -0.78012612
18
Frame=7 idx=008100 GeodesicLength=0.7201524869540639 rxn_smarts="[C:1]([C:2]([N:3]([C:4]([H:13])([H:14])[H:15])[C:5](=[O:6])[C:7]([H:16])([H:17])[H:18])([H:11])[H:12])([H:8])([H:9])[H:10]>>[C:1]([C:2]([N:3]=[C:4]([H:13])[H:14])([H:11])[H:12])([H:8])([H:9])[H:10].[C:5](=[O:6])([C:7]([H:16])([H:17])[H:18])[H:15]"
C       -2.30771029       0.40078790      -0.18650569
C       -1.33182477      -0.73795009       0.05648495
N       -0.02956200      -0.47034570       0.64166637
C        0.25431050       0.71628790       1.20991950
C        1.13238807       0.12594544      -0.72215561
O        0.59024836       0.18791176      -1.80516006
C        2.41671052      -0.62127061      -0.46568760
H       -3.20326847       0.01317441      -0.67529453
H       -1.88040765       1.16522599      -0.83758637
H       -2.63300274       0.87859987       0.74089646
H       -1.11303595      -1.21578102      -0.90499946
H       -1.79217301      -1.48122285       0.71288194
H       -0.51613232       1.45861254       1.42082824
H        1.05704587       0.70732440       1.94768495
H        1.14207866       1.30857376       0.09689750
H        2.40525177      -1.53732224      -1.05386389
H        2.54260232      -0.89872055       0.57985508
H        3.26648112       0.00016912      -0.75586176
18
Frame=8 idx=008100 GeodesicLength=0.8225085601422927 rxn_smarts="[C:1]([C:2]([N:3]([C:4]([H:13])([H:14])[H:15])[C:5](=[O:6])[C:7]([H:16])([H:17])[H:18])([H:11])[H:12])([H:8])([H:9])[H:10]>>[C:1]([C:2]([N:3]=[C:4]([H:13])[H:14])([H:11])[H:12])([H:8])([H:9])[H:10].[C:5](=[O:6])([C:7]([H:16])([H:17])[H:18])[H:15]"
C       -2.30517037       0.40436535      -0.20270307
C       -1.33614306      -0.73299065       0.07133480
N       -0.02955323      -0.45931670       0.64292962
C        0.24984865       0.71921573       1.23116556
C        1.13420230       0.12074346      -0.73839567
O        0.59252203       0.15965327      -1.82307479
C        2.42239775      -0.62019538      -0.48156378
H       -3.19979891       0.01076404      -0.68861459
H       -1.86957921       1.15262751      -0.86684402
H       -2.63435593       0.90496994       0.71106160
H       -1.12129271      -1.23962906      -0.87591060
H       -1.79878577      -1.45245540       0.75229015
H       -0.53049856       1.43671899       1.48603826
H        1.06318336       0.69945764       1.95700893
H        1.12455553       1.32490638       0.09666088
H        2.43511815      -1.51721902      -1.09829954
H        2.53170138      -0.93174632       0.55658719
H        3.27164861       0.02013022      -0.72967092
18
Frame=9 idx=008100 GeodesicLength=0.9247134483637717 rxn_smarts="[C:1]([C:2]([N:3]([C:4]([H:13])([H:14])[H:15])[C:5](=[O:6])[C:7]([H:16])([H:17])[H:18])([H:11])[H:12])([H:8])([H:9])[H:10]>>[C:1]([C:2]([N:3]=[C:4]([H:13])[H:14])([H:11])[H:12])([H:8])([H:9])[H:10].[C:5](=[O:6])([C:7]([H:16])([H:17])[H:18])[H:15]"
C       -2.30229033       0.40792142      -0.21871135
C       -1.34036531      -0.72751749       0.08598260
N       -0.02953473      -0.44753605       0.64382546
C        0.24507835       0.72238972       1.25257270
C        1.13601177       0.11507004      -0.75543030
O        0.59502781       0.13001347      -1.84141057
C        2.42808969      -0.61908425      -0.49724384
H       -3.19669880       0.00842041      -0.70017243
H       -1.85885630       1.13881520      -0.89668507
H       -2.63365863       0.93209717       0.68071126
H       -1.12975253      -1.26252392      -0.84620766
H       -1.80514580      -1.42250770       0.79062025
H       -0.54485841       1.41179942       1.55207948
H        1.06912346       0.69228692       1.96583102
H        1.10588504       1.34155147       0.09607332
H        2.46646855      -1.49512995      -1.14210376
H        2.52008346      -0.96507148       0.53197865
H        3.27539272       0.03900560      -0.70170976
18
Frame=10 idx=008100 GeodesicLength=1.0267862385957232 rxn_smarts="[C:1]([C:2]([N:3]([C:4]([H:13])([H:14])[H:15])[C:5](=[O:6])[C:7]([H:16])([H:17])[H:18])([H:11])[H:12])([H:8])([H:9])[H:10]>>[C:1]([C:2]([N:3]=[C:4]([H:13])[H:14])([H:11])[H:12])([H:8])([H:9])[H:10].[C:5](=[O:6])([C:7]([H:16])([H:17])[H:18])[H:15]"
C       -2.29918783       0.41138620      -0.23450598
C       -1.34442010      -0.72147387       0.10038452
N       -0.02948070      -0.43486531       0.64431559
C        0.23994284       0.72594299       1.27410646
C        1.13779123       0.10905765      -0.77331055
O        0.59777003       0.09919663      -1.86018082
C        2.43371287      -0.61800367      -0.51277228
H       -3.19415675       0.00603448      -0.70995213
H       -1.84845633       1.12374389      -0.92708271
H       -2.63097157       0.95980919       0.64996137
H       -1.13833814      -1.28434670      -0.81594210
H       -1.81099216      -1.39144267       0.82779286
H       -0.55875434       1.38378147       1.61864132
H        1.07480486       0.68584380       1.97414760
H        1.08629139       1.35862350       0.09521421
H        2.49911511      -1.47128840      -1.18506427
H        2.50768511      -0.99866463       0.50593605
H        3.27764445       0.05666544      -0.67168913
18
Frame=11 idx=008100 GeodesicLength=1.1287304184354543 rxn_smarts="[C:1]([C:2]([N:3]([C:4]([H:13])([H:14])[H:15])[C:5](=[O:6])[C:7]([H:16])([H:17])[H:18])([H:11])[H:12])([H:8])([H:9])[H:10]>>[C:1]([C:2]([N:3]=[C:4]([H:13])[H:14])([H:11])[H:12])([H:8])([H:9])[H:10].[C:5](=[O:6])([C:7]([H:16])([H:17])[H:18])[H:15]"
C       -2.29591334       0.41472497      -0.25006494
C       -1.34825691      -0.71484879       0.11451453
N       -0.02937990      -0.42119767       0.64438736
C        0.23441164       0.72991493       1.29581017
C        1.13956949       0.10277429      -0.79202625
O        0.60078957       0.06728165      -1.87932055
C        2.43921535      -0.61699861      -0.52812783
H       -3.19225286       0.00361108      -0.71784889
H       -1.83851252       1.10727873      -0.95803259
H       -2.62627942       0.98801534       0.61880012
H       -1.14692112      -1.30502264      -0.78516968
H       -1.81623228      -1.35938055       0.86373398
H       -0.57192833       1.35272421       1.68538363
H        1.08016146       0.68019128       1.98201845
H        1.06589880       1.37619030       0.09423053
H        2.53289921      -1.44562831      -1.22706851
H        2.49447129      -1.03255215       0.47838728
H        3.27825986       0.07292194      -0.63960681
18
Frame=12 idx=008100 GeodesicLength=1.2305260178278892 rxn_smarts="[C:1]([C:2]([N:3]([C:4]([H:13])([H:14])[H:15])[C:5](=[O:6])[C:7]([H:16])([H:17])[H:18])([H:11])[H:12])([H:8])([H:9])[H:10]>>[C:1]([C:2]([N:3]=[C:4]([H:13])[H:14])([H:11])[H:12])([H:8])([H:9])[H:10].[C:5](=[O:6])([C:7]([H:16])([H:17])[H:18])[H:15]"
C       -2.29251593       0.41788376      -0.26537154
C       -1.35180344      -0.70764212       0.12835105
N       -0.02920300      -0.40641883       0.64402850
C        0.22845804       0.73434894       1.31773502
C        1.14137244       0.09633427      -0.81156608
O        0.60412481       0.03440700      -1.89876072
C        2.44454529      -0.61610402      -0.54330142
H       -3.19102524       0.00113117      -0.72382440
H       -1.82915081       1.08935181      -0.98947310
H       -2.61963419       1.01656464       0.58722748
H       -1.15533642      -1.32448246      -0.75395786
H       -1.82076649      -1.32649138       0.89835652
H       -0.58414174       1.31873907       1.75194743
H        1.08513078       0.67539196       1.98952031
H        1.04486266       1.39435581       0.09329937
H        2.56754221      -1.41819398      -1.26793425
H        2.48040131      -1.06669680       0.44928459
H        3.27713973       0.08752116      -0.60556087
18
Frame=13 idx=008100 GeodesicLength=1.3321422136100114 rxn_smarts="[C:1]([C:2]([N:3]([C:4]([H:13])([H:14])[H:15])[C:5](=[O:6])[C:7]([H:16])([H:17])[H:18])([H:11])[H:12])([H:8])([H:9])[H:10]>>[C:1]([C:2]([N:3]=[C:4]([H:13])[H:14])([H:11])[H:12])([H:8])([H:9])[H:10].[C:5](=[O:6])([C:7]([H:16])([H:17])[H:18])[H:15]"
C       -2.28905279       0.42080856      -0.28040933
C       -1.35498765      -0.69986263       0.14186351
N       -0.02891847      -0.39042085       0.64323400
C        0.22202113       0.73924063       1.33998384
C        1.14321854       0.08985471      -0.83189524
O        0.60780823       0.00074783      -1.91841484
C        2.44962789      -0.61536468      -0.55828094
H       -3.19047758      -0.00141750      -0.72794661
H       -1.82049838       1.06993583      -1.02126518
H       -2.61115532       1.04520815       0.55529264
H       -1.16341491      -1.34265365      -0.72239263
H       -1.82450270      -1.29298539       0.93157504
H       -0.59507264       1.28208994       1.81779727
H        1.08962315       0.67145839       1.99678478
H        1.02338679       1.41322332       0.09267449
H        2.60269910      -1.38907886      -1.30743060
H        2.46548679      -1.10096038       0.41861555
H        3.27420884       0.10017660      -0.56978573
18
Frame=14 idx=008100 GeodesicLength=1.4335936634123494 rxn_smarts="[C:1]([C:2]([N:3]([C:4]([H:13])([H:14])[H:15])[C:5](=[O:6])[C:7]([H:16])([H:17])[H:18])([H:11])[H:12])([H:8])([H:9])[H:10]>>[C:1]([C:2]([N:3]=[C:4]([H:13])[H:14])([H:11])[H:12])([H:8])([H:9])[H:10].[C:5](=[O:6])([C:7]([H:16])([H:17])[H:18])[H:15]"
C       -2.28554556       0.42344209      -0.29520453
C       -1.35772596      -0.69150743       0.15505459
N       -0.02850092      -0.37306997       0.64200422
C        0.21513068       0.74460488       1.36260859
C        1.14512951       0.08346820      -0.85301428
O        0.61185296      -0.03355503      -1.93822807
C        2.45439212      -0.61482378      -0.57306878
H       -3.19056973      -0.00405332      -0.73021423
H       -1.81264297       1.04893964      -1.05336205
H       -2.60094622       1.07380349       0.52287337
H       -1.17095480      -1.35951902      -0.69047303
H       -1.82737306      -1.25897552       0.96336156
H       -0.60465780       1.24292772       1.88277271
H        1.09362218       0.66843360       2.00390181
H        1.00162671       1.43294551       0.09255352
H        2.63811349      -1.35832572      -1.34542797
H        2.44968764      -1.13531997       0.38627564
H        3.26936172       0.11058462      -0.53241308
18
Frame=15 idx=008100 GeodesicLength=1.5349359069417299 rxn_smarts="[C:1]([C:2]([N:3]([C:4]([H:13])([H:14])[H:15])[C:5](=[O:6])[C:7]([H:16])([H:17])[H:18])([H:11])[H:12])([H:8])([H:9])[H:10]>>[C:1]([C:2]([N:3]=[C:4]([H:13])[H:14])([H:11])[H:12])([H:8])([H:9])[H:10].[C:5](=[O:6])([C:7]([H:16])([H:17])[H:18])[H:15]"
C       -2.28201208       0.42572918      -0.30978280
C       -1.35994033      -0.68256578       0.16794802
N       -0.02791709      -0.35420913       0.64033545
C        0.20780905       0.75046951       1.38565446
C        1.14710630       0.07727715      -0.87494100
O        0.61625401      -0.06841110      -1.95816240
C        2.45875137      -0.61453368      -0.58765968
H       -3.19127191      -0.00679445      -0.73064389
H       -1.80566845       1.02623842      -1.08573358
H       -2.58908232       1.10224371       0.48983398
H       -1.17777473      -1.37507640      -0.65816424
H       -1.82932381      -1.22455420       0.99374669
H       -0.61280497       1.20135309       1.94673505
H        1.09713746       0.66638541       2.01092995
H        0.97973870       1.45370336       0.09309162
H        2.67368285      -1.32582352      -1.38187293
H        2.43287526      -1.16984628       0.35210075
H        3.26244068       0.11841470      -0.49341546
18
Frame=16 idx=008100 GeodesicLength=1.6361300301270887 rxn_smarts="[C:1]([C:2]([N:3]([C:4]([H:13])([H:14])[H:15])[C:5](=[O:6])[C:7]([H:16])([H:17])[H:18])([H:11])[H:12])([H:8])([H:9])[H:10]>>[C:1]([C:2]([N:3]=[C:4]([H:13])[H:14])([H:11])[H:12])([H:8])([H:9])[H:10].[C:5](=[O:6])([C:7]([H:16])([H:17])[H:18])[H:15]"
C       -2.27848521       0.42761666      -0.32416598
C       -1.36155397      -0.67304951       0.18051974
N       -0.02715087      -0.33370916       0.63823039
C        0.20001608       0.75678712       1.40924376
C        1.14915740       0.07141184      -0.89763920
O        0.62103065      -0.10355893      -1.97814534
C        2.46261868      -0.61455372      -0.60205567
H       -3.19246096      -0.00969370      -0.72950159
H       -1.79961773       1.00194507      -1.11815479
H       -2.57584739       1.13022563       0.45620623
H       -1.18366707      -1.38927956      -0.62554682
H       -1.83031390      -1.18992531       1.02266495
H       -0.61937724       1.15759813       2.00936316
H        1.10009866       0.66530083       2.01802430
H        0.95795611       1.47565746       0.09459163
H        2.70892287      -1.29195864      -1.41638652
H        2.41517486      -1.20417027       0.31623451
H        3.25349903       0.12335604      -0.45348275
