13
Frame=0 idx=011250 GeodesicLength=0.0 rxn_smarts="[C:1]([C@@:2]1([H:11])[O:3][C:4](=[O:5])[C:6]([H:12])=[C:7]1[H:13])([H:8])([H:9])[H:10]>>[C:1](/[C:2](=[C:7](/[C@@:6]1([H:12])[C:4](=[O:3])[O:5]1)[H:13])[H:11])([H:8])([H:9])[H:10]"
C       -2.07684561       0.14345725      -0.26440879
C       -0.71295700       0.16338410       0.28164929
O        0.96196440      -1.55783027       1.05094404
C        1.93176914      -1.00559624       0.48293921
O        3.06103987      -1.42105482       0.24774512
C        1.64858593       0.37764474      -0.08158360
C        0.36915366       0.76642840      -0.35012817
H       -2.34618019      -0.91195894      -0.39419936
H       -2.79216690       0.54118305       0.46019090
H       -2.17116334       0.65326078      -1.22140475
H       -0.54981224      -0.25796924       1.26369111
H        2.50388204       0.97479977      -0.38093342
H        0.17273025       1.53425141      -1.09450160
13
Frame=1 idx=011250 GeodesicLength=0.05759460029810639 rxn_smarts="[C:1]([C@@:2]1([H:11])[O:3][C:4](=[O:5])[C:6]([H:12])=[C:7]1[H:13])([H:8])([H:9])[H:10]>>[C:1](/[C:2](=[C:7](/[C@@:6]1([H:12])[C:4](=[O:3])[O:5]1)[H:13])[H:11])([H:8])([H:9])[H:10]"
C       -2.06930641       0.12984328      -0.26813478
C       -0.70192959       0.14099344       0.27471907
O        0.94606740      -1.55985099       1.04280406
C        1.92831632      -0.99178405       0.51116934
O        3.02965130      -1.42453445       0.18605945
C        1.65569604       0.37473010      -0.08674104
C        0.37371589       0.76451885      -0.35064042
H       -2.35964949      -0.92263340      -0.37032912
H       -2.77607595       0.56209944       0.44492936
H       -2.15744047       0.61614419      -1.23799346
H       -0.55437572      -0.22714046       1.28092638
H        2.51004913       0.98978797      -0.34901600
H        0.17528154       1.54782608      -1.07775283
13
Frame=2 idx=011250 GeodesicLength=0.11614033180043681 rxn_smarts="[C:1]([C@@:2]1([H:11])[O:3][C:4](=[O:5])[C:6]([H:12])=[C:7]1[H:13])([H:8])([H:9])[H:10]>>[C:1](/[C:2](=[C:7](/[C@@:6]1([H:12])[C:4](=[O:3])[O:5]1)[H:13])[H:11])([H:8])([H:9])[H:10]"
C       -2.06056900       0.11557627      -0.27172190
C       -0.69088632       0.12200274       0.27103000
O        0.93138015      -1.55840919       1.03884369
C        1.92179166      -0.98369588       0.52744736
O        2.99556699      -1.42669712       0.12749627
C        1.66241419       0.37173843      -0.09165153
C        0.37813407       0.76506837      -0.34870854
H       -2.36916034      -0.93362828      -0.34615719
H       -2.76071030       0.58076177       0.42694506
H       -2.14191575       0.57688670      -1.25441294
H       -0.55907944      -0.19467392       1.29741509
H        2.51547485       1.00233940      -0.31752113
H        0.17755924       1.56273071      -1.05900424
13
Frame=3 idx=011250 GeodesicLength=0.17529086787349624 rxn_smarts="[C:1]([C@@:2]1([H:11])[O:3][C:4](=[O:5])[C:6]([H:12])=[C:7]1[H:13])([H:8])([H:9])[H:10]>>[C:1](/[C:2](=[C:7](/[C@@:6]1([H:12])[C:4](=[O:3])[O:5]1)[H:13])[H:11])([H:8])([H:9])[H:10]"
C       -2.05100188       0.10106078      -0.27474443
C       -0.67993992       0.10670480       0.27042016
O        0.91643284      -1.55606509       1.03507590
C        1.91321062      -0.97910669       0.53604287
O        2.96055533      -1.42731769       0.07255059
C        1.66880981       0.36898055      -0.09647108
C        0.38241888       0.76756352      -0.34515025
H       -2.37554172      -0.94453559      -0.32110619
H       -2.74618616       0.59784000       0.40684640
H       -2.12498907       0.53581893      -1.27016209
H       -0.56386789      -0.16161262       1.31309193
H        2.52044355       1.01278858      -0.28649784
H        0.17965562       1.57788052      -1.03989597
13
Frame=4 idx=011250 GeodesicLength=0.23497479828097767 rxn_smarts="[C:1]([C@@:2]1([H:11])[O:3][C:4](=[O:5])[C:6]([H:12])=[C:7]1[H:13])([H:8])([H:9])[H:10]>>[C:1](/[C:2](=[C:7](/[C@@:6]1([H:12])[C:4](=[O:3])[O:5]1)[H:13])[H:11])([H:8])([H:9])[H:10]"
C       -2.04080306       0.08642395      -0.27749194
C       -0.66915541       0.09388160       0.27221210
O        0.90165115      -1.55288091       1.03224750
C        1.90370491      -0.97627425       0.54056724
O        2.92397446      -1.42687282       0.01879945
C        1.67497446       0.36725387      -0.09947177
C        0.38660290       0.77142660      -0.33988385
H       -2.37971058      -0.95505414      -0.29641962
H       -2.73234066       0.61316632       0.38497799
H       -2.10674279       0.49407281      -1.28499826
H       -0.56920154      -0.12878923       1.32798663
H        2.52529092       1.02092560      -0.25798031
H        0.18175524       1.59272059      -1.02054518
13
Frame=5 idx=011250 GeodesicLength=0.2951135524704728 rxn_smarts="[C:1]([C@@:2]1([H:11])[O:3][C:4](=[O:5])[C:6]([H:12])=[C:7]1[H:13])([H:8])([H:9])[H:10]>>[C:1](/[C:2](=[C:7](/[C@@:6]1([H:12])[C:4](=[O:3])[O:5]1)[H:13])[H:11])([H:8])([H:9])[H:10]"
C       -2.03018619       0.07185165      -0.27981598
C       -0.65855095       0.08315139       0.27594969
O        0.88681341      -1.54962631       1.02913589
C        1.89353660      -0.97473777       0.54205223
O        2.88668230      -1.42497821      -0.03311447
C        1.68089217       0.36619847      -0.10130195
C        0.39066143       0.77623078      -0.33347213
H       -2.38245811      -0.96491243      -0.27173601
H       -2.71894909       0.62731358       0.36169183
H       -2.08742023       0.45170873      -1.29877923
H       -0.57494115      -0.09653724       1.34206990
H        2.53009956       1.02726225      -0.23130608
H        0.18382024       1.60707511      -1.00137367
13
Frame=6 idx=011250 GeodesicLength=0.355730152415351 rxn_smarts="[C:1]([C@@:2]1([H:11])[O:3][C:4](=[O:5])[C:6]([H:12])=[C:7]1[H:13])([H:8])([H:9])[H:10]>>[C:1](/[C:2](=[C:7](/[C@@:6]1([H:12])[C:4](=[O:3])[O:5]1)[H:13])[H:11])([H:8])([H:9])[H:10]"
C       -2.01918623       0.05731227      -0.28175978
C       -0.64812996       0.07422902       0.28138434
O        0.87193699      -1.54637423       1.02568761
C        1.88287091      -0.97415691       0.54117554
O        2.84855800      -1.42178845      -0.08383694
C        1.68656392       0.36573356      -0.10209468
C        0.39459852       0.78188659      -0.32598236
H       -2.38418577      -0.97406732      -0.24687745
H       -2.70583774       0.64055914       0.33688201
H       -2.06692377       0.40848593      -1.31157334
H       -0.58111579      -0.06492262       1.35549926
H        2.53500087       1.03207901      -0.20613493
H        0.18585007       1.62102400      -0.98236929
13
Frame=7 idx=011250 GeodesicLength=0.4168824798866275 rxn_smarts="[C:1]([C@@:2]1([H:11])[O:3][C:4](=[O:5])[C:6]([H:12])=[C:7]1[H:13])([H:8])([H:9])[H:10]>>[C:1](/[C:2](=[C:7](/[C@@:6]1([H:12])[C:4](=[O:3])[O:5]1)[H:13])[H:11])([H:8])([H:9])[H:10]"
C       -2.00781522       0.04278729      -0.28334821
C       -0.63789513       0.06693851       0.28833884
O        0.85696759      -1.54320003       1.02181043
C        1.87174707      -0.97436567       0.53830755
O        2.80955788      -1.41734304      -0.13369055
C        1.69198329       0.36573713      -0.10201671
C        0.39842366       0.78832493      -0.31749781
H       -2.38512115      -0.98248191      -0.22173611
H       -2.69288522       0.65299719       0.31047709
H       -2.04517765       0.36420690      -1.32338810
H       -0.58770555      -0.03384664       1.36843082
H        2.54006997       1.03553507      -0.18223469
H        0.18785046       1.63471028      -0.96345255
13
Frame=8 idx=011250 GeodesicLength=0.4786771822738427 rxn_smarts="[C:1]([C@@:2]1([H:11])[O:3][C:4](=[O:5])[C:6]([H:12])=[C:7]1[H:13])([H:8])([H:9])[H:10]>>[C:1](/[C:2](=[C:7](/[C@@:6]1([H:12])[C:4](=[O:3])[O:5]1)[H:13])[H:11])([H:8])([H:9])[H:10]"
C       -1.99601543       0.02816633      -0.28465433
C       -0.62783898       0.06112668       0.29672627
O        0.84194867      -1.54000716       1.01767667
C        1.86019295      -0.97522477       0.53362725
O        2.76930551      -1.41179185      -0.18331250
C        1.69714251       0.36615759      -0.10120089
C        0.40213967       0.79560708      -0.30790834
H       -2.38549859      -0.99013755      -0.19606917
H       -2.67989932       0.66482602       0.28208853
H       -2.02188759       0.31836328      -1.33431674
H       -0.59477492      -0.00325191       1.38104050
H        2.54540161       1.03772863      -0.15943091
H        0.18978391       1.64843763      -0.94426633
13
Frame=9 idx=011250 GeodesicLength=0.5411345054358986 rxn_smarts="[C:1]([C@@:2]1([H:11])[O:3][C:4](=[O:5])[C:6]([H:12])=[C:7]1[H:13])([H:8])([H:9])[H:10]>>[C:1](/[C:2](=[C:7](/[C@@:6]1([H:12])[C:4](=[O:3])[O:5]1)[H:13])[H:11])([H:8])([H:9])[H:10]"
C       -1.98384779       0.01352626      -0.28557226
C       -0.61797256       0.05671152       0.30639858
O        0.82673382      -1.53705890       1.01276668
C        1.84815639      -0.97668230       0.52721527
O        2.72825380      -1.40487980      -0.23236236
C        1.70203007       0.36683766      -0.09991994
C        0.40574752       0.80359375      -0.29743328
H       -2.38558060      -0.99683976      -0.16975455
H       -2.66674064       0.67612759       0.25180275
H       -1.99711504       0.27095276      -1.34412022
H       -0.60223987       0.02685808       1.39337640
H        2.55091862       1.03882086      -0.13725785
H        0.19165627       1.66203227      -0.92513921
13
Frame=10 idx=011250 GeodesicLength=0.6045313729180678 rxn_smarts="[C:1]([C@@:2]1([H:11])[O:3][C:4](=[O:5])[C:6]([H:12])=[C:7]1[H:13])([H:8])([H:9])[H:10]>>[C:1](/[C:2](=[C:7](/[C@@:6]1([H:12])[C:4](=[O:3])[O:5]1)[H:13])[H:11])([H:8])([H:9])[H:10]"
C       -1.97108173      -0.00138934      -0.28634005
C       -0.60826690       0.05353247       0.31742156
O        0.81156138      -1.53390067       1.00792483
C        1.83567567      -0.97861324       0.51913321
O        2.68510762      -1.39693525      -0.28223316
C        1.70661535       0.36788553      -0.09800200
C        0.40924378       0.81255115      -0.28555886
H       -2.38547460      -1.00258550      -0.14256393
H       -2.65308912       0.68699710       0.21869588
H       -1.97016872       0.22103191      -1.35301287
H       -0.61033069       0.05659797       1.40567538
H        2.55682662       1.03868408      -0.11608431
H        0.19338134       1.67614378      -0.90505567
13
Frame=11 idx=011250 GeodesicLength=0.6686627344118079 rxn_smarts="[C:1]([C@@:2]1([H:11])[O:3][C:4](=[O:5])[C:6]([H:12])=[C:7]1[H:13])([H:8])([H:9])[H:10]>>[C:1](/[C:2](=[C:7](/[C@@:6]1([H:12])[C:4](=[O:3])[O:5]1)[H:13])[H:11])([H:8])([H:9])[H:10]"
C       -1.95798723      -0.01627380      -0.28668834
C       -0.59875668       0.05140739       0.32944597
O        0.79619630      -1.53105347       1.00222873
C        1.82274777      -0.98092336       0.50966124
O        2.64136524      -1.38743952      -0.33128444
C        1.71091539       0.36899395      -0.09593893
C        0.41262801       0.82195169      -0.27304763
H       -2.38543839      -1.00711993      -0.11507109
H       -2.63894074       0.69709349       0.18384204
H       -1.94180596       0.16983619      -1.36031509
H       -0.61882170       0.08589749       1.41772519
H        2.56287338       1.03751225      -0.09553988
H        0.19502461       1.69011763      -0.88501777
13
Frame=12 idx=011250 GeodesicLength=0.7334632255750341 rxn_smarts="[C:1]([C@@:2]1([H:11])[O:3][C:4](=[O:5])[C:6]([H:12])=[C:7]1[H:13])([H:8])([H:9])[H:10]>>[C:1](/[C:2](=[C:7](/[C@@:6]1([H:12])[C:4](=[O:3])[O:5]1)[H:13])[H:11])([H:8])([H:9])[H:10]"
C       -1.94463681      -0.03106654      -0.28662245
C       -0.58943630       0.05007673       0.34224862
O        0.78073275      -1.52846073       0.99585287
C        1.80946981      -0.98346660       0.49909696
O        2.59723893      -1.37640241      -0.37924592
C        1.71494303       0.37007216      -0.09383557
C        0.41589877       0.83156139      -0.26013525
H       -2.38557281      -1.01042481      -0.08778775
H       -2.62419487       0.70613878       0.14770288
H       -1.91234239       0.11800764      -1.36580079
H       -0.62770620       0.11477921       1.42940670
H        2.56901214       1.03533649      -0.07576300
H        0.19659394       1.70384870      -0.86511730
13
Frame=13 idx=011250 GeodesicLength=0.798870606623469 rxn_smarts="[C:1]([C@@:2]1([H:11])[O:3][C:4](=[O:5])[C:6]([H:12])=[C:7]1[H:13])([H:8])([H:9])[H:10]>>[C:1](/[C:2](=[C:7](/[C@@:6]1([H:12])[C:4](=[O:3])[O:5]1)[H:13])[H:11])([H:8])([H:9])[H:10]"
C       -1.93111112      -0.04569418      -0.28609394
C       -0.58031226       0.04942259       0.35568141
O        0.76510771      -1.52620590       0.98863666
C        1.79585418      -0.98616638       0.48761277
O        2.55317448      -1.36380116      -0.42574862
C        1.71870517       0.37103223      -0.09181574
C        0.41905839       0.84120641      -0.24705946
H       -2.38594331      -1.01250068      -0.06097046
H       -2.60882025       0.71399058       0.11066741
H       -1.88205615       0.06597616      -1.36930345
H       -0.63693195       0.14329022       1.44064961
H        2.57516187       1.03222481      -0.05671678
H        0.19811323       1.71722530      -0.84553942
13
Frame=14 idx=011250 GeodesicLength=0.8648769568648914 rxn_smarts="[C:1]([C@@:2]1([H:11])[O:3][C:4](=[O:5])[C:6]([H:12])=[C:7]1[H:13])([H:8])([H:9])[H:10]>>[C:1](/[C:2](=[C:7](/[C@@:6]1([H:12])[C:4](=[O:3])[O:5]1)[H:13])[H:11])([H:8])([H:9])[H:10]"
C       -1.91743309      -0.06015217      -0.28513638
C       -0.57137514       0.04927894       0.36963431
O        0.74938785      -1.52423388       0.98070306
C        1.78196254      -0.98893741       0.47535422
O        2.50922318      -1.34971732      -0.47080751
C        1.72220737       0.37185023      -0.08991264
C        0.42210258       0.85079622      -0.23388723
H       -2.38665256      -1.01334494      -0.03476075
H       -2.59270026       0.72062046       0.07285675
H       -1.85107436       0.01388204      -1.37079911
H       -0.64651368       0.17143870       1.45139437
H        2.58129733       1.02822417      -0.03847402
H        0.19956824       1.73029496      -0.82616506
13
Frame=15 idx=011250 GeodesicLength=0.9314251505889558 rxn_smarts="[C:1]([C@@:2]1([H:11])[O:3][C:4](=[O:5])[C:6]([H:12])=[C:7]1[H:13])([H:8])([H:9])[H:10]>>[C:1](/[C:2](=[C:7](/[C@@:6]1([H:12])[C:4](=[O:3])[O:5]1)[H:13])[H:11])([H:8])([H:9])[H:10]"
C       -1.90367595      -0.07438576      -0.28369739
C       -0.56262782       0.04961178       0.38400876
O        0.73345893      -1.52260911       0.97188080
C        1.76777808      -0.99173594       0.46244682
O        2.46580503      -1.33419871      -0.51413438
C        1.72546501       0.37247027      -0.08820233
C        0.42504511       0.86021941      -0.22082604
H       -2.38765390      -1.01306525      -0.00938415
H       -2.57588328       0.72588508       0.03470196
H       -1.81968368      -0.03785548      -1.37020332
H       -0.65639092       0.19932166       1.46158532
H        2.58735665       1.02340322      -0.02093326
H        0.20100674       1.74293881      -0.80724278
13
Frame=16 idx=011250 GeodesicLength=0.9984882557241239 rxn_smarts="[C:1]([C@@:2]1([H:11])[O:3][C:4](=[O:5])[C:6]([H:12])=[C:7]1[H:13])([H:8])([H:9])[H:10]>>[C:1](/[C:2](=[C:7](/[C@@:6]1([H:12])[C:4](=[O:3])[O:5]1)[H:13])[H:11])([H:8])([H:9])[H:10]"
C       -1.88987982      -0.08836818      -0.28174740
C       -0.55406680       0.05041577       0.39873770
O        0.71721593      -1.52133432       0.96207947
C        1.75327416      -0.99452634       0.44899334
O        2.42318917      -1.31735079      -0.55558723
C        1.72848787       0.37285609      -0.08672093
C        0.42790029       0.86941967      -0.20801217
H       -2.38883308      -1.01182742       0.01497357
H       -2.55843851       0.72965879      -0.00343182
H       -1.78809506      -0.08889793      -1.36750204
H       -0.66652369       0.22705824       1.47117814
H        2.59329810       1.01779865      -0.00402203
H        0.20247145       1.75509777      -0.78893860
