14
Frame=0 idx=001174 GeodesicLength=0.0 rxn_smarts="[C:1]([C:2]([O:3][C:4](=[O:5])[C:6]([H:12])([H:13])[H:14])([H:10])[H:11])([H:7])([H:8])[H:9]>>[C:1]([C:2]([O:3][C-:4]=[O+:5][C:6]([H:12])([H:13])[H:14])([H:10])[H:11])([H:7])([H:8])[H:9]"
C       -2.31436158      -0.55617176       0.34106255
C       -1.08267875       0.12963872      -0.19692269
O       -0.09389364       0.12383398       0.85892804
C        1.07508838       0.72240658       0.67017999
O        1.25880273       1.24897854      -0.48405570
C        2.56613925       0.06694536      -0.21860778
H       -2.09012551      -1.58272203       0.63385132
H       -2.70243669      -0.02883437       1.21305911
H       -3.09331475      -0.57894756      -0.42315322
H       -0.67723961      -0.38933215      -1.06819770
H       -1.28904643       1.15949307      -0.49243494
H        3.35967162       0.59802960       0.28428413
H        2.67966985       0.01837663      -1.30110910
H        2.40372514      -0.93169462       0.18311594
14
Frame=1 idx=001174 GeodesicLength=0.03748037629909974 rxn_smarts="[C:1]([C:2]([O:3][C:4](=[O:5])[C:6]([H:12])([H:13])[H:14])([H:10])[H:11])([H:7])([H:8])[H:9]>>[C:1]([C:2]([O:3][C-:4]=[O+:5][C:6]([H:12])([H:13])[H:14])([H:10])[H:11])([H:7])([H:8])[H:9]"
C       -2.32356721      -0.55267883       0.35149382
C       -1.09415565       0.12583173      -0.20072506
O       -0.09319929       0.11433703       0.84315932
C        1.07023226       0.71951975       0.64529928
O        1.25183981       1.22565790      -0.51630109
C        2.57905964       0.07293318      -0.21341201
H       -2.10227005      -1.58053355       0.64186745
H       -2.69834983      -0.02282449       1.22780339
H       -3.11136686      -0.57052119      -0.40370907
H       -0.69998291      -0.39581685      -1.07549522
H       -1.29897360       1.15622604      -0.49559237
H        3.35210123       0.59338933       0.33226176
H        2.75053576       0.05416650      -1.28912160
H        2.41809670      -0.93968654       0.15247140
14
Frame=2 idx=001174 GeodesicLength=0.07340621037031966 rxn_smarts="[C:1]([C:2]([O:3][C:4](=[O:5])[C:6]([H:12])([H:13])[H:14])([H:10])[H:11])([H:7])([H:8])[H:9]>>[C:1]([C:2]([O:3][C-:4]=[O+:5][C:6]([H:12])([H:13])[H:14])([H:10])[H:11])([H:7])([H:8])[H:9]"
C       -2.33217176      -0.54898734       0.36187370
C       -1.10502574       0.12181931      -0.20456817
O       -0.09242505       0.10527384       0.82757979
C        1.06552476       0.71670021       0.62051083
O        1.24528922       1.20166682      -0.54833768
C        2.59101144       0.07877067      -0.20863705
H       -2.11396728      -1.57793329       0.65062394
H       -2.69387796      -0.01610708       1.24185783
H       -3.12842788      -0.56232024      -0.38447951
H       -0.72190333      -0.40303698      -1.08224425
H       -1.30815290       1.15254439      -0.49958160
H        3.34240296       0.58636089       0.37924030
H        2.81859058       0.09232324      -1.27390025
H        2.43313294      -0.94707444       0.12006212
14
Frame=3 idx=001174 GeodesicLength=0.1077659294055155 rxn_smarts="[C:1]([C:2]([O:3][C:4](=[O:5])[C:6]([H:12])([H:13])[H:14])([H:10])[H:11])([H:7])([H:8])[H:9]>>[C:1]([C:2]([O:3][C-:4]=[O+:5][C:6]([H:12])([H:13])[H:14])([H:10])[H:11])([H:7])([H:8])[H:9]"
C       -2.34005887      -0.54515715       0.37213015
C       -1.11518991       0.11769255      -0.20840119
O       -0.09161071       0.09696054       0.81241275
C        1.06097891       0.71417317       0.59600773
O        1.23917459       1.17731351      -0.57992303
C        2.60186111       0.08436604      -0.20430565
H       -2.12496092      -1.57495102       0.66011260
H       -2.68912316      -0.00875377       1.25510619
H       -3.14428605      -0.55454643      -0.36566050
H       -0.74270887      -0.41090667      -1.08834124
H       -1.31659941       1.14851023      -0.50442030
H        3.33069635       0.57665571       0.42490390
H        2.88318546       0.13243758      -1.25559239
H        2.44864149      -0.95379428       0.08597097
14
Frame=4 idx=001174 GeodesicLength=0.1406245544352967 rxn_smarts="[C:1]([C:2]([O:3][C:4](=[O:5])[C:6]([H:12])([H:13])[H:14])([H:10])[H:11])([H:7])([H:8])[H:9]>>[C:1]([C:2]([O:3][C-:4]=[O+:5][C:6]([H:12])([H:13])[H:14])([H:10])[H:11])([H:7])([H:8])[H:9]"
C       -2.34716988      -0.54122764       0.38218132
C       -1.12461201       0.11353311      -0.21218071
O       -0.09074104       0.08956535       0.79778378
C        1.05663618       0.71206254       0.57191788
O        1.23348133       1.15280032      -0.61085120
C        2.61156188       0.08963943      -0.20041464
H       -2.13508422      -1.57160421       0.67021870
H       -2.68413393      -0.00087206       1.26746039
H       -3.15886330      -0.54729358      -0.34740252
H       -0.76228118      -0.41928486      -1.09373090
H       -1.32436770       1.14418266      -0.51003223
H        3.31718012       0.56421844       0.46889592
H        2.94374748       0.17399685      -1.23436941
H        2.46464629      -0.95971636       0.05052361
14
Frame=5 idx=001174 GeodesicLength=0.17197518636657352 rxn_smarts="[C:1]([C:2]([O:3][C:4](=[O:5])[C:6]([H:12])([H:13])[H:14])([H:10])[H:11])([H:7])([H:8])[H:9]>>[C:1]([C:2]([O:3][C-:4]=[O+:5][C:6]([H:12])([H:13])[H:14])([H:10])[H:11])([H:7])([H:8])[H:9]"
C       -2.35340508      -0.53729978       0.39196679
C       -1.13317861       0.10946812      -0.21584394
O       -0.08992318       0.08353704       0.78405615
C        1.05246706       0.71069402       0.54855190
O        1.22821863       1.12868546      -0.64082498
C        2.61997150       0.09444766      -0.19701043
H       -2.14402243      -1.56799671       0.68101857
H       -2.67919041       0.00747768       1.27883552
H       -3.17190594      -0.54088396      -0.32998445
H       -0.78016366      -0.42809315      -1.09832057
H       -1.33152591       1.13969781      -0.51648096
H        3.30199969       0.54876621       0.51094233
H        2.99984266       0.21642604      -1.21064839
H        2.48081567      -0.96492644       0.01374245
14
Frame=6 idx=001174 GeodesicLength=0.20181792032919216 rxn_smarts="[C:1]([C:2]([O:3][C:4](=[O:5])[C:6]([H:12])([H:13])[H:14])([H:10])[H:11])([H:7])([H:8])[H:9]>>[C:1]([C:2]([O:3][C-:4]=[O+:5][C:6]([H:12])([H:13])[H:14])([H:10])[H:11])([H:7])([H:8])[H:9]"
C       -2.35866476      -0.53336679       0.40133480
C       -1.14075424       0.10544079      -0.21926490
O       -0.08906868       0.07914270       0.77134834
C        1.04867365       0.71009197       0.52607051
O        1.22335459       1.10522287      -0.66928088
C        2.62688015       0.09874329      -0.19418071
H       -2.15170249      -1.56384192       0.69253546
H       -2.67426752       0.01637721       1.28873934
H       -3.18323835      -0.53561232      -0.31361605
H       -0.79620931      -0.43739187      -1.10168679
H       -1.33790821       1.13473511      -0.52371612
H        3.28542130       0.53002114       0.55056761
H        3.05081849       0.25954666      -1.18449052
H        2.49666538      -0.96910884      -0.02436009
14
Frame=7 idx=001174 GeodesicLength=0.23040476690836537 rxn_smarts="[C:1]([C:2]([O:3][C:4](=[O:5])[C:6]([H:12])([H:13])[H:14])([H:10])[H:11])([H:7])([H:8])[H:9]>>[C:1]([C:2]([O:3][C-:4]=[O+:5][C:6]([H:12])([H:13])[H:14])([H:10])[H:11])([H:7])([H:8])[H:9]"
C       -2.36305127      -0.52954241       0.41034598
C       -1.14753805       0.10169176      -0.22252220
O       -0.08823333       0.07629412       0.75963039
C        1.04507692       0.71043926       0.50440859
O        1.21884641       1.08252517      -0.69664333
C        2.63258252       0.10247124      -0.19175303
H       -2.15801180      -1.55957440       0.70438984
H       -2.66946793       0.02540335       1.29774639
H       -3.19312001      -0.53126021      -0.29820670
H       -0.81058916      -0.44673445      -1.10434603
H       -1.34389866       1.12983130      -0.53150055
H        3.26760086       0.50866885       0.58782297
H        3.09708860       0.30221308      -1.15640066
H        2.51271490      -0.97242665      -0.06297167
14
Frame=8 idx=001174 GeodesicLength=0.25837905946581835 rxn_smarts="[C:1]([C:2]([O:3][C:4](=[O:5])[C:6]([H:12])([H:13])[H:14])([H:10])[H:11])([H:7])([H:8])[H:9]>>[C:1]([C:2]([O:3][C-:4]=[O+:5][C:6]([H:12])([H:13])[H:14])([H:10])[H:11])([H:7])([H:8])[H:9]"
C       -2.36695384      -0.52559837       0.41919653
C       -1.15386674       0.09798896      -0.22575824
O       -0.08729242       0.07387302       0.74819335
C        1.04157661       0.71102551       0.48292743
O        1.21463281       1.05950368      -0.72356917
C        2.63769739       0.10590443      -0.18955370
H       -2.16376649      -1.55510061       0.71638355
H       -2.66447224       0.03469825       1.30632271
H       -3.20226294      -0.52698293      -0.28315033
H       -0.82424599      -0.45623659      -1.10670266
H       -1.34950007       1.12485813      -0.53961502
H        3.24848706       0.48552755       0.62315292
H        3.13974596       0.34511391      -1.12599571
H        2.53022089      -0.97457495      -0.10183167
14
Frame=9 idx=001174 GeodesicLength=0.28554654362165977 rxn_smarts="[C:1]([C:2]([O:3][C:4](=[O:5])[C:6]([H:12])([H:13])[H:14])([H:10])[H:11])([H:7])([H:8])[H:9]>>[C:1]([C:2]([O:3][C-:4]=[O+:5][C:6]([H:12])([H:13])[H:14])([H:10])[H:11])([H:7])([H:8])[H:9]"
C       -2.37018596      -0.52169498       0.42769797
C       -1.15957808       0.09451213      -0.22881880
O       -0.08628925       0.07259125       0.73742759
C        1.03830799       0.71224575       0.46200453
O        1.21073567       1.03688469      -0.74945364
C        2.64189789       0.10885842      -0.18765805
H       -2.16851294      -1.55041938       0.72842206
H       -2.65949309       0.04401583       1.31408436
H       -3.21033580      -0.52330836      -0.26881937
H       -0.83670039      -0.46565739      -1.10839920
H       -1.35474831       1.11984628      -0.54798206
H        3.22841317       0.46048698       0.65595053
H        3.17810307       0.38719990      -1.09378913
H        2.54838602      -0.97556113      -0.14066679
14
Frame=10 idx=001174 GeodesicLength=0.3122103023889869 rxn_smarts="[C:1]([C:2]([O:3][C:4](=[O:5])[C:6]([H:12])([H:13])[H:14])([H:10])[H:11])([H:7])([H:8])[H:9]>>[C:1]([C:2]([O:3][C-:4]=[O+:5][C:6]([H:12])([H:13])[H:14])([H:10])[H:11])([H:7])([H:8])[H:9]"
C       -2.37293895      -0.51773905       0.43597976
C       -1.16483591       0.09117297      -0.23179703
O       -0.08521087       0.07193444       0.72706804
C        1.03517086       0.71379277       0.44138923
O        1.20710998       1.01425932      -0.77465661
C        2.64549962       0.11144252      -0.18600018
H       -2.17260657      -1.54557950       0.74048633
H       -2.65445251       0.05345314       1.32136166
H       -3.21765903      -0.51984560      -0.25495198
H       -0.84833250      -0.47507184      -1.10972612
H       -1.35968665       1.11483607      -0.55656192
H        3.20733436       0.43390844       0.68653939
H        3.21277024       0.42878539      -1.05977031
H        2.56783794      -0.97534907      -0.17936025
14
Frame=11 idx=001174 GeodesicLength=0.33856662510543567 rxn_smarts="[C:1]([C:2]([O:3][C:4](=[O:5])[C:6]([H:12])([H:13])[H:14])([H:10])[H:11])([H:7])([H:8])[H:9]>>[C:1]([C:2]([O:3][C-:4]=[O+:5][C:6]([H:12])([H:13])[H:14])([H:10])[H:11])([H:7])([H:8])[H:9]"
C       -2.37529791      -0.51368450       0.44409154
C       -1.16971834       0.08791733      -0.23472498
O       -0.08403066       0.07171560       0.71698902
C        1.03216286       0.71553085       0.42095939
O        1.20373544       0.99146920      -0.79928244
C        2.64863399       0.11371108      -0.18454744
H       -2.17620903      -1.54055106       0.75259805
H       -2.64928889       0.06307375       1.32823404
H       -3.22439573      -0.51646956      -0.24142652
H       -0.85934426      -0.48453462      -1.11074791
H       -1.36433411       1.10978623      -0.56535175
H        3.18529214       0.40590633       0.71504296
H        3.24400984       0.46998614      -1.02389328
H        2.58878466      -0.97385677      -0.21794068
14
Frame=12 idx=001174 GeodesicLength=0.3647782218561923 rxn_smarts="[C:1]([C:2]([O:3][C:4](=[O:5])[C:6]([H:12])([H:13])[H:14])([H:10])[H:11])([H:7])([H:8])[H:9]>>[C:1]([C:2]([O:3][C-:4]=[O+:5][C:6]([H:12])([H:13])[H:14])([H:10])[H:11])([H:7])([H:8])[H:9]"
C       -2.37731938      -0.50948113       0.45207990
C       -1.17426948       0.08468437      -0.23762678
O       -0.08274215       0.07179483       0.70710374
C        1.02926438       0.71734348       0.40062536
O        1.20059456       0.96839606      -0.82339619
C        2.65138734       0.11571253      -0.18329049
H       -2.17944264      -1.53528224       0.76481257
H       -2.64396519       0.07296008       1.33475324
H       -3.23064314      -0.51307467      -0.22814456
H       -0.86984436      -0.49412997      -1.11148923
H       -1.36869149       1.10462682      -0.57438486
H        3.16227251       0.37648134       0.74154437
H        3.27201324       0.51092843      -0.98607687
H        2.61138581      -0.97095995      -0.25651020
14
Frame=13 idx=001174 GeodesicLength=0.3910422979586044 rxn_smarts="[C:1]([C:2]([O:3][C:4](=[O:5])[C:6]([H:12])([H:13])[H:14])([H:10])[H:11])([H:7])([H:8])[H:9]>>[C:1]([C:2]([O:3][C-:4]=[O+:5][C:6]([H:12])([H:13])[H:14])([H:10])[H:11])([H:7])([H:8])[H:9]"
C       -2.37913194      -0.50505396       0.46000871
C       -1.17859669       0.08140358      -0.24054686
O       -0.08132440       0.07182054       0.69721891
C        1.02645223       0.71897319       0.38021222
O        1.19769553       0.94471244      -0.84716180
C        2.65395689       0.11753974      -0.18220101
H       -2.18256910      -1.52975005       0.77709553
H       -2.63839826       0.08316814       1.34106048
H       -3.23662578      -0.50939265      -0.21492502
H       -0.88011484      -0.50389849      -1.11207339
H       -1.37276044       1.09933356      -0.58360904
H        3.13829486       0.34583938       0.76611915
H        3.29699481       0.55179319      -0.94621329
H        2.63612713      -0.96648861      -0.29498458
14
Frame=14 idx=001174 GeodesicLength=0.41756651172990117 rxn_smarts="[C:1]([C:2]([O:3][C:4](=[O:5])[C:6]([H:12])([H:13])[H:14])([H:10])[H:11])([H:7])([H:8])[H:9]>>[C:1]([C:2]([O:3][C-:4]=[O+:5][C:6]([H:12])([H:13])[H:14])([H:10])[H:11])([H:7])([H:8])[H:9]"
C       -2.38084448      -0.50030909       0.46794176
C       -1.18281022       0.07799038      -0.24354263
O       -0.07974971       0.07141936       0.68715920
C        1.02368723       0.72014200       0.35956822
O        1.19501580       0.92006871      -0.87073842
C        2.65653779       0.11928805      -0.18124347
H       -2.18581379      -1.52392160       0.78942749
H       -2.63247337       0.09378632       1.34730583
H       -3.24256183      -0.50511103      -0.20159794
H       -0.89043551      -0.51391481      -1.11263946
H       -1.37657196       1.09387126      -0.59301676
H        3.11339702       0.31412230       0.78884899
H        3.31906243       0.59279299      -0.90414756
H        2.66356060      -0.96022483      -0.33332524
14
Frame=15 idx=001174 GeodesicLength=0.44409348660544345 rxn_smarts="[C:1]([C:2]([O:3][C:4](=[O:5])[C:6]([H:12])([H:13])[H:14])([H:10])[H:11])([H:7])([H:8])[H:9]>>[C:1]([C:2]([O:3][C-:4]=[O+:5][C:6]([H:12])([H:13])[H:14])([H:10])[H:11])([H:7])([H:8])[H:9]"
C       -2.38219591      -0.49539848       0.47575329
C       -1.18659603       0.07453828      -0.24645756
O       -0.07813236       0.07165166       0.67752664
C        1.02108195       0.72148836       0.33920204
O        1.19253760       0.89557889      -0.89350596
C        2.65866720       0.12073676      -0.18062353
H       -2.18859424      -1.51766760       0.80229098
H       -2.62663146       0.10496624       1.35291471
H       -3.24784449      -0.50117142      -0.18868417
H       -0.89991817      -0.52432205      -1.11263372
H       -1.38005749       1.08809683      -0.60291112
H        3.08760055       0.28027980       0.80933670
H        3.33778085       0.63337050      -0.86011353
H        2.69230200      -0.95214777      -0.37209478
14
Frame=16 idx=001174 GeodesicLength=0.4708567366421293 rxn_smarts="[C:1]([C:2]([O:3][C:4](=[O:5])[C:6]([H:12])([H:13])[H:14])([H:10])[H:11])([H:7])([H:8])[H:9]>>[C:1]([C:2]([O:3][C-:4]=[O+:5][C:6]([H:12])([H:13])[H:14])([H:10])[H:11])([H:7])([H:8])[H:9]"
C       -2.38343703      -0.49020910       0.48349737
C       -1.19027337       0.07103221      -0.24939026
O       -0.07638059       0.07126848       0.66765947
C        1.01852931       0.72215541       0.31861229
O        1.19030029       0.87006357      -0.91593749
C        2.66076849       0.12211952      -0.18016269
H       -2.19159792      -1.51122510       0.81482385
H       -2.62030089       0.11625493       1.35850171
H       -3.25305976      -0.49643937      -0.17564271
H       -0.90958103      -0.53467062      -1.11264684
H       -1.38316765       1.08229807      -0.61265025
H        3.06111377       0.24615830       0.82749844
H        3.35333768       0.67325592      -0.81437854
H        2.72374869      -0.94206222      -0.40978435
