14
Frame=0 idx=004599 GeodesicLength=0.0 rxn_smarts="[C:1]([C@@:2]1([H:9])[C:3]([H:10])([H:11])[N:4]1[C:5]([H:12])([H:13])[H:14])([H:6])([H:7])[H:8]>>[C:1]([C:2]([N:4]=[C:3]([H:10])[H:11])([C:5]([H:12])([H:13])[H:14])[H:9])([H:6])([H:7])[H:8]"
C       -1.32252779       0.49436120      -0.52261286
C       -0.16490055       0.09142056       0.34480019
C       -0.14976649      -1.29246775       0.90189910
N        0.77747375      -1.24257508      -0.13841194
C        1.43336237       0.48928467      -0.42966027
H       -2.20430445       0.68914219       0.09173142
H       -1.10255205       1.40162069      -1.09017211
H       -1.55404325      -0.30338862      -1.22795861
H        0.09630410       0.79100943       1.13726304
H       -1.07540964      -1.83010106       0.68078432
H        0.18285996      -1.41578072       1.94184022
H        2.20351186       0.56968859       0.33082299
H        1.82213223       0.06693554      -1.34660195
H        1.05785992       1.49085032      -0.67372357
14
Frame=1 idx=004599 GeodesicLength=0.08626834498380268 rxn_smarts="[C:1]([C@@:2]1([H:9])[C:3]([H:10])([H:11])[N:4]1[C:5]([H:12])([H:13])[H:14])([H:6])([H:7])[H:8]>>[C:1]([C:2]([N:4]=[C:3]([H:10])[H:11])([C:5]([H:12])([H:13])[H:14])[H:9])([H:6])([H:7])[H:8]"
C       -1.33101925       0.49593492      -0.52984140
C       -0.17030882       0.09298756       0.33414979
C       -0.14248625      -1.30490095       0.90358970
N        0.75492186      -1.22581958      -0.15588372
C        1.44009268       0.49412310      -0.42360582
H       -2.20008535       0.72904154       0.08930708
H       -1.10228370       1.37957885      -1.13006449
H       -1.59455827      -0.31476513      -1.20885002
H        0.07678655       0.78610605       1.13717228
H       -1.07910127      -1.83355642       0.71023866
H        0.22272358      -1.44541307       1.92963729
H        2.19696575       0.56602051       0.35179957
H        1.84892115       0.08058664      -1.33661284
H        1.07943134       1.50007599      -0.67103608
14
Frame=2 idx=004599 GeodesicLength=0.17223795462831298 rxn_smarts="[C:1]([C@@:2]1([H:9])[C:3]([H:10])([H:11])[N:4]1[C:5]([H:12])([H:13])[H:14])([H:6])([H:7])[H:8]>>[C:1]([C:2]([N:4]=[C:3]([H:10])[H:11])([C:5]([H:12])([H:13])[H:14])[H:9])([H:6])([H:7])[H:8]"
C       -1.33976316       0.49780343      -0.53708688
C       -0.17610136       0.09514257       0.32380593
C       -0.13461901      -1.31737069       0.90482698
N        0.73260775      -1.20863334      -0.17218702
C        1.44636740       0.49879688      -0.41746393
H       -2.19523047       0.76967068       0.08525164
H       -1.10270654       1.35615698      -1.16976672
H       -1.63480929      -0.32489342      -1.18840068
H        0.05709428       0.78116870       1.13739484
H       -1.08151257      -1.83662096       0.73976009
H        0.26268365      -1.47599564       1.91554818
H        2.18981609       0.56270798       0.37238786
H        1.87505423       0.09301260      -1.32563959
H        1.10111899       1.50905425      -0.66843072
14
Frame=3 idx=004599 GeodesicLength=0.25792696497145645 rxn_smarts="[C:1]([C@@:2]1([H:9])[C:3]([H:10])([H:11])[N:4]1[C:5]([H:12])([H:13])[H:14])([H:6])([H:7])[H:8]>>[C:1]([C:2]([N:4]=[C:3]([H:10])[H:11])([C:5]([H:12])([H:13])[H:14])[H:9])([H:6])([H:7])[H:8]"
C       -1.34874895       0.49996234      -0.54434681
C       -0.18226930       0.09788751       0.31377792
C       -0.12618315      -1.32987402       0.90561229
N        0.71054141      -1.19104964      -0.18730181
C        1.45218959       0.50332262      -0.41124185
H       -2.18972219       0.81097242       0.07946669
H       -1.10389421       1.33130648      -1.20919320
H       -1.67470135      -0.33369252      -1.16662521
H        0.03719685       0.77618073       1.13795606
H       -1.08265418      -1.83926911       0.76942844
H        0.30269568      -1.50756031       1.89950767
H        2.18206526       0.55980306       0.39260895
H        1.90054099       0.10423746      -1.31372012
H        1.12294355       1.51777299      -0.66592903
14
Frame=4 idx=004599 GeodesicLength=0.3433677121156299 rxn_smarts="[C:1]([C@@:2]1([H:9])[C:3]([H:10])([H:11])[N:4]1[C:5]([H:12])([H:13])[H:14])([H:6])([H:7])[H:8]>>[C:1]([C:2]([N:4]=[C:3]([H:10])[H:11])([C:5]([H:12])([H:13])[H:14])[H:9])([H:6])([H:7])[H:8]"
C       -1.35796469       0.50240256      -0.55162543
C       -0.18880030       0.10123250       0.30407375
C       -0.11719432      -1.34240530       0.90594621
N        0.68872434      -1.17309907      -0.20121798
C        1.45756932       0.50772102      -0.40493885
H       -2.18353846       0.85291948       0.07184274
H       -1.10591196       1.30496883      -1.24827215
H       -1.71419489      -0.34111317      -1.14352173
H        0.01705739       0.77113208       1.13887788
H       -1.08251423      -1.84146920       0.79935194
H        0.34271745      -1.54016632       1.88139575
H        2.17371415       0.55736153       0.41249977
H        1.92540413       0.11429093      -1.30086717
H        1.14493207       1.52622412      -0.66354473
14
Frame=5 idx=004599 GeodesicLength=0.4285462496019271 rxn_smarts="[C:1]([C@@:2]1([H:9])[C:3]([H:10])([H:11])[N:4]1[C:5]([H:12])([H:13])[H:14])([H:6])([H:7])[H:8]>>[C:1]([C:2]([N:4]=[C:3]([H:10])[H:11])([C:5]([H:12])([H:13])[H:14])[H:9])([H:6])([H:7])[H:8]"
C       -1.36738270       0.50512343      -0.55894193
C       -0.19567204       0.10515218       0.29466608
C       -0.10768202      -1.35498661       0.90581374
N        0.66713427      -1.15481909      -0.21401982
C        1.46253601       0.51201324      -0.39853802
H       -2.17663573       0.89541258       0.06231081
H       -1.10871062       1.27711855      -1.28695277
H       -1.75341097      -0.34722639      -1.11901553
H       -0.00337018       0.76597519       1.14015404
H       -1.08111528      -1.84319372       0.82956775
H        0.38271377      -1.57362352       1.86113680
H        2.16479696       0.55532942       0.43209838
H        1.94966624       0.12331355      -1.28708337
H        1.16713228       1.53441119      -0.66119616
14
Frame=6 idx=004599 GeodesicLength=0.5135196973088512 rxn_smarts="[C:1]([C@@:2]1([H:9])[C:3]([H:10])([H:11])[N:4]1[C:5]([H:12])([H:13])[H:14])([H:6])([H:7])[H:8]>>[C:1]([C:2]([N:4]=[C:3]([H:10])[H:11])([C:5]([H:12])([H:13])[H:14])[H:9])([H:6])([H:7])[H:8]"
C       -1.37701232       0.50810758      -0.56629079
C       -0.20288130       0.10968274       0.28557694
C       -0.09765483      -1.36759808       0.90521265
N        0.64578583      -1.13622414      -0.22563442
C        1.46708606       0.51622099      -0.39204590
H       -2.16899579       0.93844479       0.05076858
H       -1.11244100       1.24767740      -1.32513536
H       -1.79218282      -0.35188635      -1.09318170
H       -0.02412781       0.76072250       1.14180858
H       -1.07839476      -1.84439340       0.86021883
H        0.42262359      -1.60814022       1.83858728
H        2.15528387       0.55382460       0.45143515
H        1.97335568       0.13125332      -1.27236075
H        1.18955560       1.54230828      -0.65895909
14
Frame=7 idx=004599 GeodesicLength=0.5983124979750055 rxn_smarts="[C:1]([C@@:2]1([H:9])[C:3]([H:10])([H:11])[N:4]1[C:5]([H:12])([H:13])[H:14])([H:6])([H:7])[H:8]>>[C:1]([C:2]([N:4]=[C:3]([H:10])[H:11])([C:5]([H:12])([H:13])[H:14])[H:9])([H:6])([H:7])[H:8]"
C       -1.38684573       0.51135094      -0.57367489
C       -0.21041231       0.11483613       0.27680238
C       -0.08712788      -1.38023519       0.90412834
N        0.62467054      -1.11733277      -0.23606754
C        1.47123882       0.52036388      -0.38545534
H       -2.16059287       0.98195623       0.03713404
H       -1.11715592       1.21660709      -1.36273920
H       -1.83050171      -0.35507301      -1.06602731
H       -0.04526284       0.75536065       1.14384127
H       -1.07428544      -1.84502105       0.89141731
H        0.46236408      -1.64374114       1.81359732
H        2.14517320       0.55288715       0.47055199
H        1.99650114       0.13813600      -1.25667272
H        1.21223692       1.54990509      -0.65683566
14
Frame=8 idx=004599 GeodesicLength=0.6829087139173279 rxn_smarts="[C:1]([C@@:2]1([H:9])[C:3]([H:10])([H:11])[N:4]1[C:5]([H:12])([H:13])[H:14])([H:6])([H:7])[H:8]>>[C:1]([C:2]([N:4]=[C:3]([H:10])[H:11])([C:5]([H:12])([H:13])[H:14])[H:9])([H:6])([H:7])[H:8]"
C       -1.39687346       0.51483966      -0.58109404
C       -0.21825682       0.12061646       0.26834351
C       -0.07612156      -1.39288581       0.90256860
N        0.60379142      -1.09817194      -0.24529732
C        1.47500165       0.52444687      -0.37877245
H       -2.15142492       1.02569455       0.02126912
H       -1.12297883       1.18391560      -1.39956854
H       -1.86820025      -0.35659113      -1.03762660
H       -0.06681925       0.74987252       1.14624136
H       -1.06878208      -1.84500665       0.92327146
H        0.50188031      -1.68040569       1.78608358
H        2.13445898       0.55252969       0.48946338
H        2.01910928       0.14396379      -1.24004499
H        1.23521553       1.55718208      -0.65483709
14
Frame=9 idx=004599 GeodesicLength=0.7673029591284308 rxn_smarts="[C:1]([C@@:2]1([H:9])[C:3]([H:10])([H:11])[N:4]1[C:5]([H:12])([H:13])[H:14])([H:6])([H:7])[H:8]>>[C:1]([C:2]([N:4]=[C:3]([H:10])[H:11])([C:5]([H:12])([H:13])[H:14])[H:9])([H:6])([H:7])[H:8]"
C       -1.40706993       0.51856374      -0.58860515
C       -0.22639010       0.12702085       0.26014561
C       -0.06466693      -1.40556008       0.90050637
N        0.58310663      -1.07875962      -0.25343379
C        1.47842425       0.52848540      -0.37196617
H       -2.14145779       1.06951484       0.00315816
H       -1.12979604       1.14962594      -1.43558792
H       -1.90551814      -0.35659443      -1.00785283
H       -0.08886533       0.74422769       1.14895692
H       -1.06180982      -1.84428242       0.95583769
H        0.54108379      -1.71790234       1.75587667
H        2.12318239       0.55266144       0.50823081
H        2.04120911       0.14886203      -1.22242701
H        1.25856791       1.56413697      -0.65283938
14
Frame=10 idx=004599 GeodesicLength=0.851566735604862 rxn_smarts="[C:1]([C@@:2]1([H:9])[C:3]([H:10])([H:11])[N:4]1[C:5]([H:12])([H:13])[H:14])([H:6])([H:7])[H:8]>>[C:1]([C:2]([N:4]=[C:3]([H:10])[H:11])([C:5]([H:12])([H:13])[H:14])[H:9])([H:6])([H:7])[H:8]"
C       -1.41745994       0.52250597      -0.59617183
C       -0.23480502       0.13410727       0.25224506
C       -0.05276069      -1.41821920       0.89793376
N        0.56263749      -1.05908625      -0.26036764
C        1.48150589       0.53251406      -0.36502851
H       -2.13069077       1.11341125      -0.01732275
H       -1.13781674       1.11363695      -1.47067484
H       -1.94224172      -0.35491855      -0.97685387
H       -0.11144435       0.73846186       1.15200672
H       -1.05316625      -1.84277249       0.98933019
H        0.57980522      -1.75655695       1.72271605
H        2.11129143       0.55344629       0.52688502
H        2.06283371       0.15273574      -1.20375077
H        1.28231174       1.57073403      -0.65094658
14
Frame=11 idx=004599 GeodesicLength=0.9357042621926801 rxn_smarts="[C:1]([C@@:2]1([H:9])[C:3]([H:10])([H:11])[N:4]1[C:5]([H:12])([H:13])[H:14])([H:6])([H:7])[H:8]>>[C:1]([C:2]([N:4]=[C:3]([H:10])[H:11])([C:5]([H:12])([H:13])[H:14])[H:9])([H:6])([H:7])[H:8]"
C       -1.42804052       0.52664929      -0.60380491
C       -0.24348801       0.14189438       0.24462208
C       -0.04042557      -1.43085157       0.89483481
N        0.54236906      -1.03916222      -0.26610468
C        1.48427040       0.53653544      -0.35795180
H       -2.11915704       1.15716057      -0.04022822
H       -1.14709678       1.07599625      -1.50467508
H       -1.97829044      -0.35150894      -0.94471319
H       -0.13461270       0.73256334       1.15534296
H       -1.04271849      -1.84037692       1.02389879
H        0.61790638      -1.79631503       1.68643158
H        2.09878425       0.55487288       0.54546080
H        2.08399119       0.15559164      -1.18398968
H        1.30650826       1.57695088      -0.64912347
14
Frame=12 idx=004599 GeodesicLength=1.0197283414694047 rxn_smarts="[C:1]([C@@:2]1([H:9])[C:3]([H:10])([H:11])[N:4]1[C:5]([H:12])([H:13])[H:14])([H:6])([H:7])[H:8]>>[C:1]([C:2]([N:4]=[C:3]([H:10])[H:11])([C:5]([H:12])([H:13])[H:14])[H:9])([H:6])([H:7])[H:8]"
C       -1.43880927       0.53097257      -0.61151744
C       -0.25241862       0.15042010       0.23726369
C       -0.02767203      -1.44342508       0.89119924
N        0.52229396      -1.01898599      -0.27063713
C        1.48675046       0.54056284      -0.35071674
H       -2.10690151       1.20053983      -0.06562908
H       -1.15768962       1.03672979      -1.53744438
H       -2.01363579      -0.34633212      -0.91149508
H       -0.15841958       0.72655348       1.15892484
H       -1.03024923      -1.83697858       1.05971657
H        0.65516211      -1.83718941       1.64676531
H        2.08566234       0.55695324       0.56399703
H        2.10469514       0.15742298      -1.16308362
H        1.33123161       1.58275636      -0.64734320
14
Frame=13 idx=004599 GeodesicLength=1.103620054640905 rxn_smarts="[C:1]([C@@:2]1([H:9])[C:3]([H:10])([H:11])[N:4]1[C:5]([H:12])([H:13])[H:14])([H:6])([H:7])[H:8]>>[C:1]([C:2]([N:4]=[C:3]([H:10])[H:11])([C:5]([H:12])([H:13])[H:14])[H:9])([H:6])([H:7])[H:8]"
C       -1.44974280       0.53542530      -0.61937130
C       -0.26158024       0.15968469       0.23011124
C       -0.01453631      -1.45594016       0.88701161
N        0.50237828      -0.99857441      -0.27401976
C        1.48898703       0.54458329      -0.34330609
H       -2.09396234       1.24318355      -0.09352818
H       -1.16954848       0.99596565      -1.56883325
H       -2.04830750      -0.33936944      -0.87720952
H       -0.18291851       0.72041744       1.16265840
H       -1.01563843      -1.83246265       1.09686189
H        0.69141267      -1.87891794       1.60361872
H        2.07196464       0.55956605       0.58252055
H        2.12493657       0.15830071      -1.14104652
H        1.35655543       1.58813790      -0.64546778
14
Frame=14 idx=004599 GeodesicLength=1.1874471246873495 rxn_smarts="[C:1]([C@@:2]1([H:9])[C:3]([H:10])([H:11])[N:4]1[C:5]([H:12])([H:13])[H:14])([H:6])([H:7])[H:8]>>[C:1]([C:2]([N:4]=[C:3]([H:10])[H:11])([C:5]([H:12])([H:13])[H:14])[H:9])([H:6])([H:7])[H:8]"
C       -1.46087006       0.53999437      -0.62732999
C       -0.27095687       0.16977045       0.22319176
C       -0.00102094      -1.46834467       0.88224533
N        0.48263213      -0.97789502      -0.27616917
C        1.49100226       0.54863008      -0.33568433
H       -2.08044531       1.28502236      -0.12400905
H       -1.18281699       0.95362748      -1.59871690
H       -2.08216019      -0.33058670      -0.84206429
H       -0.20815430       0.71422188       1.16653268
H       -0.99844520      -1.82666438       1.13563829
H        0.72629143      -1.92180019       1.55657410
H        2.05765733       0.56284208       0.60108592
H        2.14474212       0.15813837      -1.11775526
H        1.38254458       1.59304388      -0.64353910
14
Frame=15 idx=004599 GeodesicLength=1.2712083617006298 rxn_smarts="[C:1]([C@@:2]1([H:9])[C:3]([H:10])([H:11])[N:4]1[C:5]([H:12])([H:13])[H:14])([H:6])([H:7])[H:8]>>[C:1]([C:2]([N:4]=[C:3]([H:10])[H:11])([C:5]([H:12])([H:13])[H:14])[H:9])([H:6])([H:7])[H:8]"
C       -1.47219557       0.54463688      -0.63541746
C       -0.28053822       0.18070595       0.21647068
C        0.01284699      -1.48062208       0.87686671
N        0.46303354      -0.95694449      -0.27708789
C        1.49282503       0.55269172      -0.32782996
H       -2.06646737       1.32574667      -0.15704601
H       -1.19748842       0.90983676      -1.62693546
H       -2.11511061      -0.31997558      -0.80621485
H       -0.23416699       0.70798094       1.17046571
H       -0.97838299      -1.81943577       1.17620603
H        0.75952534      -1.96571776       1.50545136
H        2.04274389       0.56673165       0.61972174
H        2.16410027       0.15692953      -1.09317691
H        1.40927511       1.59743559      -0.64147367
14
Frame=16 idx=004599 GeodesicLength=1.354930100236323 rxn_smarts="[C:1]([C@@:2]1([H:9])[C:3]([H:10])([H:11])[N:4]1[C:5]([H:12])([H:13])[H:14])([H:6])([H:7])[H:8]>>[C:1]([C:2]([N:4]=[C:3]([H:10])[H:11])([C:5]([H:12])([H:13])[H:14])[H:9])([H:6])([H:7])[H:8]"
C       -1.48372414       0.54929534      -0.64366612
C       -0.29030578       0.19254105       0.20992387
C        0.02704234      -1.49273782       0.87085193
N        0.44356425      -0.93570708      -0.27676810
C        1.49450218       0.55676981      -0.31970195
H       -2.05218834       1.36505548      -0.19264237
H       -1.21355302       0.86466589      -1.65334435
H       -2.14712435      -0.30755768      -0.76982692
H       -0.26099862       0.70174476       1.17438354
H       -0.95499393      -1.81054545       1.21883241
H        0.79068069      -2.01066859       1.44990273
H        2.02725484       0.57120590       0.63849386
H        2.18302628       0.15466159      -1.06725976
H        1.43681760       1.60127681      -0.63917879
