12
Frame=0 idx=000167 GeodesicLength=0.0 rxn_smarts="[C:1]([O:2][C:3](=[O:4])[C:5]([O:6][H:12])([H:10])[H:11])([H:7])([H:8])[H:9]>>[C:1]([O:2][C:3](=[O:4])[C:5](=[O:6])[H:11])([H:7])([H:8])[H:9].[H:10][H:12]"
C        2.09360541      -0.21868132       0.21130596
O        0.71974815      -0.23994920       0.61227929
C       -0.16331034       0.00042576      -0.34084456
O        0.07962224       0.18821916      -1.50008785
C       -1.57059451       0.02202212       0.27719430
O       -1.90639573       1.05745596       1.02195989
H        2.27806769      -0.97656709      -0.54943901
H        2.35246324       0.76234505      -0.18535078
H        2.66467154      -0.42999478       1.11053010
H       -2.23491209       0.05810877      -0.93008206
H       -1.91008486      -0.98758184       0.57492921
H       -2.40288078       0.76419740      -0.30239449
12
Frame=1 idx=000167 GeodesicLength=0.10625196625089714 rxn_smarts="[C:1]([O:2][C:3](=[O:4])[C:5]([O:6][H:12])([H:10])[H:11])([H:7])([H:8])[H:9]>>[C:1]([O:2][C:3](=[O:4])[C:5](=[O:6])[H:11])([H:7])([H:8])[H:9].[H:10][H:12]"
C        2.09752664      -0.23444717       0.20787052
O        0.72420392      -0.25434752       0.61015011
C       -0.15887662       0.02881945      -0.33162903
O        0.08847397       0.27099107      -1.47979487
C       -1.56521555       0.03137529       0.28680981
O       -1.93268201       1.09693383       0.96884388
H        2.27167137      -0.96444788      -0.58204762
H        2.36761151       0.75797312      -0.15121932
H        2.66739330      -0.48737460       1.09707591
H       -2.24297652      -0.01304710      -0.92924322
H       -1.87506878      -0.96753390       0.64478327
H       -2.44206123       0.73510542      -0.34159944
12
Frame=2 idx=000167 GeodesicLength=0.2125925387418299 rxn_smarts="[C:1]([O:2][C:3](=[O:4])[C:5]([O:6][H:12])([H:10])[H:11])([H:7])([H:8])[H:9]>>[C:1]([O:2][C:3](=[O:4])[C:5](=[O:6])[H:11])([H:7])([H:8])[H:9].[H:10][H:12]"
C        2.10106978      -0.25050960       0.20330536
O        0.72872353      -0.26633158       0.60854585
C       -0.15409288       0.06024000      -0.31981269
O        0.09714545       0.35356139      -1.45513879
C       -1.56002084       0.04145048       0.29716070
O       -1.96388531       1.13138071       0.91413789
H        2.26304991      -0.95246631      -0.61417114
H        2.38395340       0.75089398      -0.11917033
H        2.66971732      -0.54474941       1.08051913
H       -2.24500180      -0.08347733      -0.92629365
H       -1.84099874      -0.94288514       0.71291701
H       -2.47965981       0.70289281      -0.38199933
12
Frame=3 idx=000167 GeodesicLength=0.31903033551306514 rxn_smarts="[C:1]([O:2][C:3](=[O:4])[C:5]([O:6][H:12])([H:10])[H:11])([H:7])([H:8])[H:9]>>[C:1]([O:2][C:3](=[O:4])[C:5](=[O:6])[H:11])([H:7])([H:8])[H:9].[H:10][H:12]"
C        2.10405276      -0.26698788       0.19743130
O        0.73328208      -0.27594911       0.60770633
C       -0.14892286       0.09543298      -0.30472027
O        0.10578383       0.43644374      -1.42587313
C       -1.55499576       0.05254659       0.30856410
O       -2.00025378       1.16077490       0.85758453
H        2.25173908      -0.94056183      -0.64623965
H        2.40161194       0.74105380      -0.08921325
H        2.67136874      -0.60262918       1.06054891
H       -2.24054365      -0.15368210      -0.92120071
H       -1.80804966      -0.91353400       0.77981149
H       -2.51507271       0.66709207      -0.42439965
12
Frame=4 idx=000167 GeodesicLength=0.4254660246491036 rxn_smarts="[C:1]([O:2][C:3](=[O:4])[C:5]([O:6][H:12])([H:10])[H:11])([H:7])([H:8])[H:9]>>[C:1]([O:2][C:3](=[O:4])[C:5](=[O:6])[H:11])([H:7])([H:8])[H:9].[H:10][H:12]"
C        2.10624238      -0.28383076       0.19019763
O        0.73768497      -0.28419768       0.60746166
C       -0.14340479       0.13412635      -0.28601600
O        0.11441080       0.51932052      -1.39206538
C       -1.55016135       0.06488953       0.32110451
O       -2.04104614       1.18500190       0.79903743
H        2.23787648      -0.92817850      -0.67861147
H        2.41995986       0.72876655      -0.06103092
H        2.67202817      -0.66097886       1.03704993
H       -2.22948580      -0.22343020      -0.91384364
H       -1.77661958      -0.87921135       0.84598239
H       -2.54748498       0.62772251      -0.46926614
12
Frame=5 idx=000167 GeodesicLength=0.5318194314259908 rxn_smarts="[C:1]([O:2][C:3](=[O:4])[C:5]([O:6][H:12])([H:10])[H:11])([H:7])([H:8])[H:9]>>[C:1]([O:2][C:3](=[O:4])[C:5](=[O:6])[H:11])([H:7])([H:8])[H:9].[H:10][H:12]"
C        2.10733375      -0.30112589       0.18144821
O        0.74177120      -0.29115965       0.60787633
C       -0.13751222       0.17670293      -0.26305698
O        0.12311309       0.60267315      -1.35341052
C       -1.54554093       0.07870307       0.33492029
O       -2.08601147       1.20367257       0.73817972
H        2.22092566      -0.91521483      -0.71151382
H        2.43886828       0.71389042      -0.03477594
H        2.67129262      -0.71998598       1.00973616
H       -2.21132291      -0.29279988      -0.90406498
H       -1.74686717      -0.83963638       0.91188060
H       -2.57604990       0.58428046      -0.51721906
12
Frame=6 idx=000167 GeodesicLength=0.6380064112757289 rxn_smarts="[C:1]([O:2][C:3](=[O:4])[C:5]([O:6][H:12])([H:10])[H:11])([H:7])([H:8])[H:9]>>[C:1]([O:2][C:3](=[O:4])[C:5](=[O:6])[H:11])([H:7])([H:8])[H:9].[H:10][H:12]"
C        2.10703946      -0.31867541       0.17107612
O        0.74519533      -0.29810966       0.60848821
C       -0.13134137       0.22232023      -0.23562007
O        0.13185194       0.68593351      -1.30994933
C       -1.54119365       0.09413405       0.35016353
O       -2.13379175       1.21672446       0.67459813
H        2.20130521      -0.90067221      -0.74537042
H        2.45746169       0.69693923      -0.00979016
H        2.66876406      -0.77962328       0.97831352
H       -2.18614716      -0.36153539      -0.89132829
H       -1.71961181      -0.79430397       0.97807861
H       -2.59953193       0.53686844      -0.56865986
12
Frame=7 idx=000167 GeodesicLength=0.7440973201393755 rxn_smarts="[C:1]([O:2][C:3](=[O:4])[C:5]([O:6][H:12])([H:10])[H:11])([H:7])([H:8])[H:9]>>[C:1]([O:2][C:3](=[O:4])[C:5](=[O:6])[H:11])([H:7])([H:8])[H:9].[H:10][H:12]"
C        2.10521959      -0.33595718       0.15897733
O        0.74723481      -0.30838302       0.60757400
C       -0.12516917       0.26834568      -0.20436333
O        0.14050733       0.76743631      -1.26216354
C       -1.53716043       0.11152699       0.36722881
O       -2.18170274       1.22509798       0.60722845
H        2.18124686      -0.88168987      -0.78116604
H        2.47405756       0.67927190       0.01657074
H        2.66395478      -0.84007262       0.94216564
H       -2.15523389      -0.42968230      -0.87399091
H       -1.69645335      -0.74192195       1.04572166
H       -2.61650135       0.48602808      -0.62378280
12
Frame=8 idx=000167 GeodesicLength=0.8500114202664956 rxn_smarts="[C:1]([O:2][C:3](=[O:4])[C:5]([O:6][H:12])([H:10])[H:11])([H:7])([H:8])[H:9]>>[C:1]([O:2][C:3](=[O:4])[C:5](=[O:6])[H:11])([H:7])([H:8])[H:9].[H:10][H:12]"
C        2.10052202      -0.35453384       0.14450924
O        0.74883820      -0.31172182       0.61023048
C       -0.11825299       0.32203051      -0.16504832
O        0.14970835       0.85454922      -1.20598440
C       -1.53359023       0.13040207       0.38552336
O       -2.23442860       1.22380589       0.53667789
H        2.15159868      -0.86535726      -0.81673526
H        2.49285195       0.65609488       0.03605234
H        2.65586749      -0.90148318       0.90095646
H       -2.11314216      -0.49729682      -0.85479099
H       -1.67446445      -0.68428111       1.11297204
H       -2.62550826       0.42779147      -0.68436285
12
Frame=9 idx=000167 GeodesicLength=0.9558376012709607 rxn_smarts="[C:1]([O:2][C:3](=[O:4])[C:5]([O:6][H:12])([H:10])[H:11])([H:7])([H:8])[H:9]>>[C:1]([O:2][C:3](=[O:4])[C:5](=[O:6])[H:11])([H:7])([H:8])[H:9].[H:10][H:12]"
C        2.09421995      -0.37142963       0.12856801
O        0.74757160      -0.32369593       0.60789186
C       -0.11192582       0.37005383      -0.12452986
O        0.15840633       0.93522844      -1.14767923
C       -1.53051334       0.15100149       0.40560779
O       -2.28058855       1.21883246       0.46229734
H        2.12626042      -0.84000165      -0.85477838
H        2.50645320       0.63484407       0.06109668
H        2.64475930      -0.96241193       0.85485723
H       -2.07019700      -0.56284283      -0.82833418
H       -1.65859718      -0.61811578       1.18237689
H       -2.62584890       0.36853747      -0.74737414
12
Frame=10 idx=000167 GeodesicLength=1.0615099154353023 rxn_smarts="[C:1]([O:2][C:3](=[O:4])[C:5]([O:6][H:12])([H:10])[H:11])([H:7])([H:8])[H:9]>>[C:1]([O:2][C:3](=[O:4])[C:5](=[O:6])[H:11])([H:7])([H:8])[H:9].[H:10][H:12]"
C        2.08431315      -0.38876410       0.11053482
O        0.74576729      -0.32799060       0.61018142
C       -0.10523128       0.42219443      -0.07666677
O        0.16737195       1.01936842      -1.08106450
C       -1.52798916       0.17165545       0.42636620
O       -2.32646891       1.20287187       0.38661462
H        2.09047968      -0.81796672      -0.89112792
H        2.52086552       0.60893414       0.07702772
H        2.62989105      -1.02144203       0.80475249
H       -2.01846217      -0.62490067      -0.80085705
H       -1.64525132      -0.54848619       1.24945906
H       -2.61528578       0.30452600      -0.81522009
12
Frame=11 idx=000167 GeodesicLength=1.167166259918577 rxn_smarts="[C:1]([O:2][C:3](=[O:4])[C:5]([O:6][H:12])([H:10])[H:11])([H:7])([H:8])[H:9]>>[C:1]([O:2][C:3](=[O:4])[C:5](=[O:6])[H:11])([H:7])([H:8])[H:9].[H:10][H:12]"
C        2.07322132      -0.40365508       0.09172840
O        0.74094283      -0.33985327       0.60706978
C       -0.09937809       0.46565773      -0.03027115
O        0.17568410       1.09501468      -1.01432742
C       -1.52600531       0.19273671       0.44831605
O       -2.36197139       1.18319256       0.31011744
H        2.06043008      -0.78764984      -0.92809099
H        2.53000459       0.58548737       0.09799066
H        2.61244529      -1.07747065       0.75134082
H       -1.97155876      -0.68315712      -0.76664062
H       -1.63730796      -0.47227901       1.31638536
H       -2.59650669       0.24197592      -0.88361831
12
Frame=12 idx=000167 GeodesicLength=1.2728747735623716 rxn_smarts="[C:1]([O:2][C:3](=[O:4])[C:5]([O:6][H:12])([H:10])[H:11])([H:7])([H:8])[H:9]>>[C:1]([O:2][C:3](=[O:4])[C:5](=[O:6])[H:11])([H:7])([H:8])[H:9].[H:10][H:12]"
C        2.06016723      -0.41729011       0.07213086
O        0.73489487      -0.35028076       0.60450337
C       -0.09381593       0.50580401       0.01773359
O        0.18359433       1.16695142      -0.94472416
C       -1.52453092       0.21320724       0.47081850
O       -2.39071393       1.15640865       0.23513355
H        2.02795060      -0.75655354      -0.96298497
H        2.53733742       0.56123658       0.11537669
H        2.59264309      -1.12941984       0.69598469
H       -1.92563797      -0.73635660      -0.73055073
H       -1.63275643      -0.39336670       1.38016992
H       -2.56913238       0.17965964      -0.95359129
12
Frame=13 idx=000167 GeodesicLength=1.378700659186116 rxn_smarts="[C:1]([O:2][C:3](=[O:4])[C:5]([O:6][H:12])([H:10])[H:11])([H:7])([H:8])[H:9]>>[C:1]([O:2][C:3](=[O:4])[C:5](=[O:6])[H:11])([H:7])([H:8])[H:9].[H:10][H:12]"
C        2.04606549      -0.42914699       0.05222040
O        0.72722223      -0.36226498       0.60020182
C       -0.08873800       0.54023224       0.06485292
O        0.19095007       1.23289130      -0.87465497
C       -1.52351126       0.23324554       0.49409191
O       -2.41076274       1.12484256       0.16243783
H        1.99711625      -0.72253700      -0.99618055
H        2.54195685       0.53766934       0.13242026
H        2.57122723      -1.17715005       0.63923832
H       -1.88490681      -0.78494531      -0.69188783
H       -1.63166561      -0.31151758       1.44089169
H       -2.53495369       0.11868092      -1.02363179
12
Frame=14 idx=000167 GeodesicLength=1.4848006050480709 rxn_smarts="[C:1]([O:2][C:3](=[O:4])[C:5]([O:6][H:12])([H:10])[H:11])([H:7])([H:8])[H:9]>>[C:1]([O:2][C:3](=[O:4])[C:5](=[O:6])[H:11])([H:7])([H:8])[H:9].[H:10][H:12]"
C        2.03014624      -0.43978904       0.03177564
O        0.71897837      -0.37197074       0.59766381
C       -0.08386835       0.57174755       0.11314192
O        0.19777882       1.29514065      -0.80242229
C       -1.52282027       0.25262985       0.51808243
O       -2.42344761       1.08737706       0.09255316
H        1.96318780      -0.68902519      -1.02701608
H        2.54517074       0.51364886       0.14492058
H        2.54790696      -1.22062986       0.58147075
H       -1.84635389      -0.82884478      -0.65338630
H       -1.63366033      -0.22838061       1.49762152
H       -2.49301849       0.05809624      -1.09440515
12
Frame=15 idx=000167 GeodesicLength=1.5912344203736088 rxn_smarts="[C:1]([O:2][C:3](=[O:4])[C:5]([O:6][H:12])([H:10])[H:11])([H:7])([H:8])[H:9]>>[C:1]([O:2][C:3](=[O:4])[C:5](=[O:6])[H:11])([H:7])([H:8])[H:9].[H:10][H:12]"
C        2.01337948      -0.44877386       0.01118320
O        0.70949590      -0.38272917       0.59386283
C       -0.07925631       0.59861443       0.16052271
O        0.20399765       1.35155254      -0.73046197
C       -1.52246351       0.27188154       0.54292957
O       -2.42747380       1.04635155       0.02591657
H        1.93061382      -0.65320630      -1.05606619
H        2.54628369       0.49030001       0.15695891
H        2.52321696      -1.26023235       0.52263836
H       -1.81336271      -0.86891668      -0.61410219
H       -1.63868772      -0.14293731       1.55074300
H       -2.44574345      -0.00190441      -1.16412480
12
Frame=16 idx=000167 GeodesicLength=1.6980209169757863 rxn_smarts="[C:1]([O:2][C:3](=[O:4])[C:5]([O:6][H:12])([H:10])[H:11])([H:7])([H:8])[H:9]>>[C:1]([O:2][C:3](=[O:4])[C:5](=[O:6])[H:11])([H:7])([H:8])[H:9].[H:10][H:12]"
C        1.99512726      -0.45661595      -0.00953574
O        0.69979974      -0.39147797       0.59204734
C       -0.07466012       0.62302280       0.20865690
O        0.20949452       1.40353831      -0.65803136
C       -1.52230166       0.29077778       0.56843115
O       -2.42405547       1.00120127      -0.03633915
H        1.89528550      -0.61868416      -1.08259239
H        2.54611641       0.46709531       0.16445077
H        2.49712359      -1.29554935       0.46397198
H       -1.78240660      -0.90464458      -0.57731505
H       -1.64640192      -0.05748275       1.59926996
H       -2.39312125      -0.06118071      -1.23301440
