12
Frame=0 idx=002808 GeodesicLength=0.0 rxn_smarts="[C:1]([C:2](=[O:3])[C@@:4]1([H:10])[C:5]([H:11])([H:12])[O:6]1)([H:7])([H:8])[H:9]>>[C:1]([C:2](=[O+:3][O-:6])[C:4](=[C:5]([H:11])[H:12])[H:10])([H:7])([H:8])[H:9]"
C       -1.40183849      -0.82984651      -0.69991071
C       -0.65076998      -0.19056856       0.38397849
O       -1.14015279       0.20056475       1.45094246
C        0.83256539       0.13346668       0.51919547
C        1.58689415       0.96917250      -0.27544539
O        0.29308220       0.81144527       1.88997404
H       -0.93883190      -1.79397955      -0.92205546
H       -2.45786768      -0.95008513      -0.46978030
H       -1.26528091      -0.21030943      -1.59104190
H        1.34089397      -0.78433476       0.82997175
H        1.16702173       1.87899186      -0.68317576
H        2.63428431       0.76548289      -0.43265269
12
Frame=1 idx=002808 GeodesicLength=0.06922281180575744 rxn_smarts="[C:1]([C:2](=[O:3])[C@@:4]1([H:10])[C:5]([H:11])([H:12])[O:6]1)([H:7])([H:8])[H:9]>>[C:1]([C:2](=[O+:3][O-:6])[C:4](=[C:5]([H:11])[H:12])[H:10])([H:7])([H:8])[H:9]"
C       -1.39889125      -0.81539331      -0.70514234
C       -0.64311573      -0.21986352       0.40113222
O       -1.13967915       0.17393595       1.46353935
C        0.83520860       0.11244333       0.52371804
C        1.58311580       0.95310053      -0.27132862
O        0.29438111       0.86010894       1.87098979
H       -0.91804727      -1.75444328      -0.98815673
H       -2.44683690      -0.97207143      -0.46023498
H       -1.30092449      -0.15017064      -1.56769514
H        1.35556368      -0.77709707       0.88800271
H        1.14107496       1.81740715      -0.74883383
H        2.63815064       0.77204334      -0.40599046
12
Frame=2 idx=002808 GeodesicLength=0.13860589111933613 rxn_smarts="[C:1]([C:2](=[O:3])[C@@:4]1([H:10])[C:5]([H:11])([H:12])[O:6]1)([H:7])([H:8])[H:9]>>[C:1]([C:2](=[O+:3][O-:6])[C:4](=[C:5]([H:11])[H:12])[H:10])([H:7])([H:8])[H:9]"
C       -1.39577076      -0.80069164      -0.70968548
C       -0.63535093      -0.24915648       0.41724979
O       -1.13894329       0.14696510       1.47535442
C        0.83803855       0.09131050       0.52821921
C        1.57844695       0.93779133      -0.26756653
O        0.29412983       0.90620427       1.84926429
H       -0.89853595      -1.71122872      -1.05122219
H       -2.43476904      -0.99410393      -0.45296292
H       -1.33576814      -0.09288089      -1.54098856
H        1.36951174      -0.76695212       0.94450654
H        1.11896015       1.75282399      -0.81092526
H        2.64005090       0.77991860      -0.38124332
12
Frame=3 idx=002808 GeodesicLength=0.2082147997990379 rxn_smarts="[C:1]([C:2](=[O:3])[C@@:4]1([H:10])[C:5]([H:11])([H:12])[O:6]1)([H:7])([H:8])[H:9]>>[C:1]([C:2](=[O+:3][O-:6])[C:4](=[C:5]([H:11])[H:12])[H:10])([H:7])([H:8])[H:9]"
C       -1.39252622      -0.78573519      -0.71355072
C       -0.62750194      -0.27830856       0.43230415
O       -1.13789288       0.11935592       1.48656576
C        0.84108812       0.07010073       0.53264160
C        1.57287662       0.92318792      -0.26432452
O        0.29253745       0.94959344       1.82513956
H       -0.88055636      -1.66495518      -1.11064350
H       -2.42196368      -1.01541749      -0.44803789
H       -1.36929094      -0.03875871      -1.51151765
H        1.38263731      -0.75412373       0.99912349
H        1.10045244       1.68572951      -0.86956160
H        2.64014009       0.78933134      -0.35813869
12
Frame=4 idx=002808 GeodesicLength=0.2780195635147579 rxn_smarts="[C:1]([C:2](=[O:3])[C@@:4]1([H:10])[C:5]([H:11])([H:12])[O:6]1)([H:7])([H:8])[H:9]>>[C:1]([C:2](=[O+:3][O-:6])[C:4](=[C:5]([H:11])[H:12])[H:10])([H:7])([H:8])[H:9]"
C       -1.38919108      -0.77057475      -0.71672518
C       -0.61957073      -0.30722394       0.44629197
O       -1.13641000       0.09098631       1.49728898
C        0.84433041       0.04885117       0.53689443
C        1.56625922       0.90911344      -0.26183393
O        0.28985829       0.99019353       1.79893451
H       -0.86433714      -1.61634735      -1.16594174
H       -2.40867408      -1.03535972      -0.44541882
H       -1.40082558       0.01197789      -1.47978933
H        1.39470066      -0.73889739       1.05142796
H        1.08552893       1.61671972      -0.92475324
H        2.63833109       0.80056109      -0.33637560
12
Frame=5 idx=002808 GeodesicLength=0.3483684615354762 rxn_smarts="[C:1]([C:2](=[O:3])[C@@:4]1([H:10])[C:5]([H:11])([H:12])[O:6]1)([H:7])([H:8])[H:9]>>[C:1]([C:2](=[O+:3][O-:6])[C:4](=[C:5]([H:11])[H:12])[H:10])([H:7])([H:8])[H:9]"
C       -1.38561761      -0.75498408      -0.71930960
C       -0.61149234      -0.33590805       0.45927492
O       -1.13458507       0.06159212       1.50762936
C        0.84780380       0.02770812       0.54133622
C        1.55895625       0.89548540      -0.25974738
O        0.28564100       1.02871371       1.77062767
H       -0.84894957      -1.56457970      -1.21825362
H       -2.39450354      -1.05485273      -0.44474143
H       -1.43165107       0.06035535      -1.44558285
H        1.40577487      -0.72098461       1.10213308
H        1.07378800       1.54501513      -0.97695959
H        2.63483528       0.81243936      -0.31640677
12
Frame=6 idx=002808 GeodesicLength=0.4193968205579905 rxn_smarts="[C:1]([C:2](=[O:3])[C@@:4]1([H:10])[C:5]([H:11])([H:12])[O:6]1)([H:7])([H:8])[H:9]>>[C:1]([C:2](=[O+:3][O-:6])[C:4](=[C:5]([H:11])[H:12])[H:10])([H:7])([H:8])[H:9]"
C       -1.38209306      -0.73896682      -0.72119424
C       -0.60332130      -0.36454308       0.47134584
O       -1.13232974       0.03117172       1.51768229
C        0.85148573       0.00652267       0.54580654
C        1.55090318       0.88165093      -0.25870069
O        0.28005425       1.06527387       1.74001409
H       -0.83434984      -1.50930326      -1.26777710
H       -2.37959581      -1.07422399      -0.44581215
H       -1.46197876       0.10672057      -1.40853642
H        1.41560615      -0.70066266       1.15110340
H        1.06579965       1.47035089      -1.02698022
H        2.62981954       0.82600916      -0.29695134
12
Frame=7 idx=002808 GeodesicLength=0.49095838408700465 rxn_smarts="[C:1]([C:2](=[O:3])[C@@:4]1([H:10])[C:5]([H:11])([H:12])[O:6]1)([H:7])([H:8])[H:9]>>[C:1]([C:2](=[O+:3][O-:6])[C:4](=[C:5]([H:11])[H:12])[H:10])([H:7])([H:8])[H:9]"
C       -1.37830973      -0.72269300      -0.72247318
C       -0.59500268      -0.39290954       0.48244001
O       -1.12974485      -0.00010362       1.52730229
C        0.85541452      -0.01448861       0.55035116
C        1.54196010       0.86830978      -0.25824712
O        0.27341957       1.09933432       1.70802290
H       -0.82111268      -1.45250664      -1.31312698
H       -2.36442196      -1.09158281      -0.44894144
H       -1.49001672       0.15005933      -1.37016099
H        1.42433410      -0.67822984       1.19767029
H        1.06058448       1.39419586      -1.07336971
H        2.62289585       0.84061477      -0.27946722
12
Frame=8 idx=002808 GeodesicLength=0.5630874778484533 rxn_smarts="[C:1]([C:2](=[O:3])[C@@:4]1([H:10])[C:5]([H:11])([H:12])[O:6]1)([H:7])([H:8])[H:9]>>[C:1]([C:2](=[O+:3][O-:6])[C:4](=[C:5]([H:11])[H:12])[H:10])([H:7])([H:8])[H:9]"
C       -1.37435445      -0.70622443      -0.72311288
C       -0.58659055      -0.42101564       0.49261724
O       -1.12685779      -0.03218775       1.53653700
C        0.85955574      -0.03533740       0.55488780
C        1.53206147       0.85525269      -0.25860400
O        0.26593206       1.13093555       1.67485967
H       -0.80908982      -1.39463872      -1.35422892
H       -2.34926046      -1.10677726      -0.45386549
H       -1.51548773       0.19057138      -1.33075725
H        1.43182097      -0.65405368       1.24163657
H        1.05823146       1.31689894      -1.11634293
H        2.61403909       0.85657631      -0.26362682
12
Frame=9 idx=002808 GeodesicLength=0.6358056994851451 rxn_smarts="[C:1]([C:2](=[O:3])[C@@:4]1([H:10])[C:5]([H:11])([H:12])[O:6]1)([H:7])([H:8])[H:9]>>[C:1]([C:2](=[O+:3][O-:6])[C:4](=[C:5]([H:11])[H:12])[H:10])([H:7])([H:8])[H:9]"
C       -1.37009043      -0.68961657      -0.72318606
C       -0.57804869      -0.44880203       0.50187439
O       -1.12373405      -0.06507651       1.54532541
C        0.86392139      -0.05589528       0.55948282
C        1.52121680       0.84267769      -0.25958391
O        0.25771193       1.16011457       1.64096220
H       -0.79826051      -1.33661137      -1.39096226
H       -2.33434109      -1.11926337      -0.46040632
H       -1.53792214       0.22826732      -1.29104780
H        1.43816174      -0.62829194       1.28291622
H        1.05815325       1.23908375      -1.15542665
H        2.60323179       0.87341376      -0.24994803
12
Frame=10 idx=002808 GeodesicLength=0.7092612169328378 rxn_smarts="[C:1]([C:2](=[O:3])[C@@:4]1([H:10])[C:5]([H:11])([H:12])[O:6]1)([H:7])([H:8])[H:9]>>[C:1]([C:2](=[O+:3][O-:6])[C:4](=[C:5]([H:11])[H:12])[H:10])([H:7])([H:8])[H:9]"
C       -1.36567919      -0.67284393      -0.72263360
C       -0.56942346      -0.47634790       0.51027507
O       -1.12033967      -0.09882559       1.55375050
C        0.86846942      -0.07622664       0.56405679
C        1.50942263       0.83018650      -0.26145787
O        0.24882330       1.18712591       1.60621828
H       -0.78830896      -1.27816099      -1.42372837
H       -2.31971266      -1.12950891      -0.46819137
H       -1.55769101       0.26371297      -1.25078959
H        1.44315450      -0.60122145       1.32157511
H        1.06084927       1.16046969      -1.19131896
H        2.59043582       0.89164035      -0.23775600
12
Frame=11 idx=002808 GeodesicLength=0.7832958234043319 rxn_smarts="[C:1]([C:2](=[O:3])[C@@:4]1([H:10])[C:5]([H:11])([H:12])[O:6]1)([H:7])([H:8])[H:9]>>[C:1]([C:2](=[O+:3][O-:6])[C:4](=[C:5]([H:11])[H:12])[H:10])([H:7])([H:8])[H:9]"
C       -1.36074904      -0.65610705      -0.72161117
C       -0.56066645      -0.50342672       0.51778510
O       -1.11686902      -0.13315792       1.56157044
C        0.87318563      -0.09608652       0.56876794
C        1.49674147       0.81815871      -0.26380606
O        0.23945770       1.21203056       1.57128856
H       -0.77914085      -1.22079612      -1.45230417
H       -2.30552141      -1.13678906      -0.47710071
H       -1.57402217       0.29659650      -1.21113038
H        1.44696399      -0.57298494       1.35750761
H        1.06480345       1.08292449      -1.22255324
H        2.57581668       0.90963807      -0.22841393
12
Frame=12 idx=002808 GeodesicLength=0.8581500485511216 rxn_smarts="[C:1]([C:2](=[O:3])[C@@:4]1([H:10])[C:5]([H:11])([H:12])[O:6]1)([H:7])([H:8])[H:9]>>[C:1]([C:2](=[O+:3][O-:6])[C:4](=[C:5]([H:11])[H:12])[H:10])([H:7])([H:8])[H:9]"
C       -1.35561243      -0.63930742      -0.72000778
C       -0.55185571      -0.53015960       0.52448481
O       -1.11323338      -0.16821211       1.56894402
C        0.87802652      -0.11561428       0.57346652
C        1.48318711       0.80608865      -0.26699614
O        0.22969379       1.23511290       1.53585061
H       -0.77044244      -1.16367631      -1.47724677
H       -2.29173707      -1.14192250      -0.48674472
H       -1.58772351       0.32763181      -1.17140533
H        1.44932224      -0.54390383       1.39083993
H        1.07109206       1.00543938      -1.25050319
H        2.55928284       0.92852330      -0.22068195
12
Frame=13 idx=002808 GeodesicLength=0.9336463832305364 rxn_smarts="[C:1]([C:2](=[O:3])[C@@:4]1([H:10])[C:5]([H:11])([H:12])[O:6]1)([H:7])([H:8])[H:9]>>[C:1]([C:2](=[O+:3][O-:6])[C:4](=[C:5]([H:11])[H:12])[H:10])([H:7])([H:8])[H:9]"
C       -1.35005570      -0.62264110      -0.71797959
C       -0.54300628      -0.55632761       0.53039145
O       -1.10966464      -0.20367385       1.57571822
C        0.88298703      -0.13463343       0.57830386
C        1.46896768       0.79413911      -0.27072405
O        0.21975884       1.25655637       1.50038472
H       -0.76202466      -1.10775259      -1.49864416
H       -2.27840384      -1.14477094      -0.49699605
H       -1.59860201       0.35662196      -1.13240865
H        1.45035644      -0.51415657       1.42164802
H        1.07841494       0.92971347      -1.27424326
H        2.54127219       0.94692518      -0.21545051
12
Frame=14 idx=002808 GeodesicLength=1.0097626088140073 rxn_smarts="[C:1]([C:2](=[O:3])[C@@:4]1([H:10])[C:5]([H:11])([H:12])[O:6]1)([H:7])([H:8])[H:9]>>[C:1]([C:2](=[O+:3][O-:6])[C:4](=[C:5]([H:11])[H:12])[H:10])([H:7])([H:8])[H:9]"
C       -1.34411569      -0.60616918      -0.71554741
C       -0.53416632      -0.58184210       0.53554865
O       -1.10622348      -0.23942113       1.58187250
C        0.88801741      -0.15311733       0.58325459
C        1.45419447       0.78220113      -0.27495127
O        0.20984674       1.27659987       1.46495480
H       -0.75365584      -1.05305532      -1.51676809
H       -2.26545037      -1.14570131      -0.50762233
H       -1.60699880       0.38374185      -1.09416667
H        1.44995494      -0.48402287       1.45001027
H        1.08661086       0.85615661      -1.29406174
H        2.52198608       0.96462977      -0.21252329
12
Frame=15 idx=002808 GeodesicLength=1.086432021900914 rxn_smarts="[C:1]([C:2](=[O:3])[C@@:4]1([H:10])[C:5]([H:11])([H:12])[O:6]1)([H:7])([H:8])[H:9]>>[C:1]([C:2](=[O+:3][O-:6])[C:4](=[C:5]([H:11])[H:12])[H:10])([H:7])([H:8])[H:9]"
C       -1.33778718      -0.58996339      -0.71276291
C       -0.52537752      -0.60658325       0.54000972
O       -1.10301157      -0.27528001       1.58736772
C        0.89307512      -0.17100942       0.58834815
C        1.43904920       0.77021969      -0.27955597
O        0.20015330       1.29551192       1.42965093
H       -0.74512673      -0.99962599      -1.53190098
H       -2.25273702      -1.14511152      -0.51848741
H       -1.61330366       0.40906188      -1.05676818
H        1.44808031      -0.45371812       1.47605871
H        1.09520168       0.78537254      -1.31009326
H        2.50178407       0.98112567      -0.21186653
12
Frame=16 idx=002808 GeodesicLength=1.1635834099333449 rxn_smarts="[C:1]([C:2](=[O:3])[C@@:4]1([H:10])[C:5]([H:11])([H:12])[O:6]1)([H:7])([H:8])[H:9]>>[C:1]([C:2](=[O+:3][O-:6])[C:4](=[C:5]([H:11])[H:12])[H:10])([H:7])([H:8])[H:9]"
C       -1.33109223      -0.57408158      -0.70966958
C       -0.51667501      -0.63046229       0.54383626
O       -1.10010881      -0.31113094       1.59219158
C        0.89812278      -0.18826453       0.59360524
C        1.42371888       0.75815562      -0.28442058
O        0.19085123       1.31355595       1.39450739
H       -0.73628174      -0.94742070      -1.54431113
H       -2.24012922      -1.14339406      -0.52949536
H       -1.61794055       0.43264395      -1.02023286
H        1.44470692      -0.42342644       1.49994746
H        1.10378340       0.71780528      -1.32261470
H        2.48104435       0.99601973      -0.21334372
