10
Frame=0 idx=000439 GeodesicLength=0.0 rxn_smarts="[O:1]([c:2]1[c:3]([H:8])[n:4]([H:9])[n:5][c:6]1[H:10])[H:7]>>[O:1]([C@@:2](/[C:3](=[N:4]/[H:9])[H:8])([C:6]#[N:5])[H:10])[H:7]"
O        1.85719466       0.08149674       0.12665387
C        0.53123216       0.25761134       0.14014191
C       -0.37760431      -0.83911749       0.35252453
N       -1.63041720      -0.70591280       0.15687336
N       -0.90157837       2.34161668      -0.20168569
C       -0.02325063       1.52060401      -0.31760655
H        2.09200404      -0.80543142      -0.16407140
H        0.08486527      -1.74584905       0.76223131
H       -2.13715419      -1.53141409       0.46581813
H        0.50470858       1.42639608      -1.32087948
10
Frame=1 idx=000439 GeodesicLength=0.09692248161545844 rxn_smarts="[O:1]([c:2]1[c:3]([H:8])[n:4]([H:9])[n:5][c:6]1[H:10])[H:7]>>[O:1]([C@@:2](/[C:3](=[N:4]/[H:9])[H:8])([C:6]#[N:5])[H:10])[H:7]"
O        1.87463434       0.08277545       0.08222110
C        0.54683669       0.24862955       0.09523518
C       -0.36887839      -0.83800940       0.32463344
N       -1.62505976      -0.66888047       0.16868644
N       -0.95296863       2.28471566      -0.17268854
C       -0.01871845       1.52673442      -0.29517704
H        2.12747773      -0.82684145      -0.10025182
H        0.07696704      -1.73500325       0.77064342
H       -2.14810791      -1.49322184       0.45092078
H        0.48781732       1.41910133      -1.32422296
10
Frame=2 idx=000439 GeodesicLength=0.19374193236900666 rxn_smarts="[O:1]([c:2]1[c:3]([H:8])[n:4]([H:9])[n:5][c:6]1[H:10])[H:7]>>[O:1]([C@@:2](/[C:3](=[N:4]/[H:9])[H:8])([C:6]#[N:5])[H:10])[H:7]"
O        1.88924306       0.08120470       0.03316484
C        0.55965978       0.23833869       0.04653158
C       -0.36128772      -0.83924149       0.29421169
N       -1.61852685      -0.63900670       0.16861273
N       -0.99483101       2.22875671      -0.13758573
C       -0.01572547       1.52949560      -0.27415414
H        2.16096361      -0.83826430      -0.02831003
H        0.06912309      -1.72284509       0.77891293
H       -2.15990635      -1.45225836       0.44680406
H        0.47128786       1.41382024      -1.32818793
10
Frame=3 idx=000439 GeodesicLength=0.2902920944775026 rxn_smarts="[O:1]([c:2]1[c:3]([H:8])[n:4]([H:9])[n:5][c:6]1[H:10])[H:7]>>[O:1]([C@@:2](/[C:3](=[N:4]/[H:9])[H:8])([C:6]#[N:5])[H:10])[H:7]"
O        1.90110336       0.07473590      -0.02218988
C        0.57013858       0.22712894      -0.00382982
C       -0.35494187      -0.84147445       0.26498989
N       -1.61176544      -0.61364621       0.16157890
N       -1.02710041       2.17448161      -0.09703245
C       -0.01268616       1.52899343      -0.25405710
H        2.19140594      -0.83737462       0.05010217
H        0.06113437      -1.70941594       0.78772313
H       -2.17153194      -1.41157514       0.44602053
H        0.45424356       1.40814647      -1.33330539
10
Frame=4 idx=000439 GeodesicLength=0.38642771685538596 rxn_smarts="[O:1]([c:2]1[c:3]([H:8])[n:4]([H:9])[n:5][c:6]1[H:10])[H:7]>>[O:1]([C@@:2](/[C:3](=[N:4]/[H:9])[H:8])([C:6]#[N:5])[H:10])[H:7]"
O        1.91039922       0.06209527      -0.08177747
C        0.57852390       0.21555773      -0.05255919
C       -0.35009013      -0.84420297       0.23821894
N       -1.60566885      -0.59009236       0.15413896
N       -1.05022966       2.12262455      -0.05350829
C       -0.00851368       1.52554207      -0.23528717
H        2.21860340      -0.82054750       0.13293084
H        0.05323513      -1.69772993       0.79262724
H       -2.18323083      -1.37227229       0.44515371
H        0.43697149       1.39902542      -1.33993757
10
Frame=5 idx=000439 GeodesicLength=0.48243281498959273 rxn_smarts="[O:1]([c:2]1[c:3]([H:8])[n:4]([H:9])[n:5][c:6]1[H:10])[H:7]>>[O:1]([C@@:2](/[C:3](=[N:4]/[H:9])[H:8])([C:6]#[N:5])[H:10])[H:7]"
O        1.91703279       0.04325017      -0.13986840
C        0.58482615       0.20359543      -0.09814708
C       -0.34693753      -0.84720010       0.21457482
N       -1.60040407      -0.56696202       0.14995377
N       -1.06541050       2.07306943      -0.00996321
C       -0.00274594       1.51943090      -0.21803307
H        2.24193493      -0.78644992       0.21387270
H        0.04546173      -1.68972344       0.79205769
H       -2.19519185      -1.33470181       0.44306009
H        0.42143429       1.38569136      -1.34750731
10
Frame=6 idx=000439 GeodesicLength=0.5788131259496299 rxn_smarts="[O:1]([c:2]1[c:3]([H:8])[n:4]([H:9])[n:5][c:6]1[H:10])[H:7]>>[O:1]([C@@:2](/[C:3](=[N:4]/[H:9])[H:8])([C:6]#[N:5])[H:10])[H:7]"
O        1.92161480       0.01952974      -0.19228700
C        0.58933413       0.19088697      -0.14101728
C       -0.34523965      -0.85078931       0.19415898
N       -1.59588966      -0.54513897       0.14637017
N       -1.07445462       2.02509143       0.03350063
C        0.00443405       1.51097555      -0.20156297
H        2.26218080      -0.73861766       0.28481454
H        0.03701599      -1.68253856       0.79271960
H       -2.20791632      -1.29911702       0.43827273
H        0.40892048       1.36971783      -1.35496940
10
Frame=7 idx=000439 GeodesicLength=0.6762658482098093 rxn_smarts="[O:1]([c:2]1[c:3]([H:8])[n:4]([H:9])[n:5][c:6]1[H:10])[H:7]>>[O:1]([C@@:2](/[C:3](=[N:4]/[H:9])[H:8])([C:6]#[N:5])[H:10])[H:7]"
O        1.92412302      -0.00837375      -0.23932470
C        0.59230206       0.17759002      -0.18032612
C       -0.34467130      -0.85470194       0.17754811
N       -1.59188896      -0.52496689       0.14099236
N       -1.07854676       1.97799434       0.07758350
C        0.01273562       1.50043098      -0.18505772
H        2.28115239      -0.68012776       0.34291602
H        0.02731419      -1.67386645       0.79847108
H       -2.22150433      -1.26524406       0.42884464
H        0.39898406       1.35126551      -1.36164717
10
Frame=8 idx=000439 GeodesicLength=0.7743876130605034 rxn_smarts="[O:1]([c:2]1[c:3]([H:8])[n:4]([H:9])[n:5][c:6]1[H:10])[H:7]>>[O:1]([C@@:2](/[C:3](=[N:4]/[H:9])[H:8])([C:6]#[N:5])[H:10])[H:7]"
O        1.92558427      -0.03783235      -0.27836362
C        0.59426380       0.16444153      -0.21553988
C       -0.34491799      -0.85886425       0.16347956
N       -1.58840785      -0.50602918       0.13490704
N       -1.07945908       1.93204403       0.12058082
C        0.02138859       1.48854012      -0.16901616
H        2.29859880      -0.61501736       0.38870722
H        0.01683992      -1.66554717       0.80553618
H       -2.23565161      -1.23236454       0.41762773
H        0.39176115       1.33062917      -1.36791889
10
Frame=9 idx=000439 GeodesicLength=0.8727895993621337 rxn_smarts="[O:1]([c:2]1[c:3]([H:8])[n:4]([H:9])[n:5][c:6]1[H:10])[H:7]>>[O:1]([C@@:2](/[C:3](=[N:4]/[H:9])[H:8])([C:6]#[N:5])[H:10])[H:7]"
O        1.92685309      -0.06588711      -0.30779527
C        0.59578278       0.15236210      -0.24631462
C       -0.34539595      -0.86297004       0.15051907
N       -1.58498152      -0.48844252       0.12751050
N       -1.07927869       1.88703153       0.16069150
C        0.02935266       1.47601707      -0.15359289
H        2.31349593      -0.54874781       0.42308498
H        0.00599223      -1.65835476       0.81122978
H       -2.24913186      -1.19941409       0.40835034
H        0.38731132       1.30840564      -1.37368341
10
Frame=10 idx=000439 GeodesicLength=0.9716899721147836 rxn_smarts="[O:1]([c:2]1[c:3]([H:8])[n:4]([H:9])[n:5][c:6]1[H:10])[H:7]>>[O:1]([C@@:2](/[C:3](=[N:4]/[H:9])[H:8])([C:6]#[N:5])[H:10])[H:7]"
O        1.92776354      -0.09405993      -0.33120987
C        0.59698595       0.14089080      -0.27335457
C       -0.34623943      -0.86703296       0.13925695
N       -1.58184094      -0.47187023       0.11896191
N       -1.07751288       1.84291307       0.20009283
C        0.03701798       1.46293659      -0.13841719
H        2.32766924      -0.48015372       0.44821611
H       -0.00562999      -1.65124586       0.81787079
H       -2.26266171      -1.16702750       0.39784556
H        0.38444824       1.28464974      -1.37926251
10
Frame=11 idx=000439 GeodesicLength=1.071084026424926 rxn_smarts="[O:1]([c:2]1[c:3]([H:8])[n:4]([H:9])[n:5][c:6]1[H:10])[H:7]>>[O:1]([C@@:2](/[C:3](=[N:4]/[H:9])[H:8])([C:6]#[N:5])[H:10])[H:7]"
O        1.92825049      -0.12221322      -0.34961196
C        0.59797481       0.13012840      -0.29638334
C       -0.34737868      -0.87073148       0.13057571
N       -1.57895634      -0.45588248       0.11015597
N       -1.07436930       1.79973079       0.23945222
C        0.04427925       1.44968137      -0.12341818
H        2.34240685      -0.41042201       0.46378367
H       -0.01809991      -1.64342964       0.82694650
H       -2.27655911      -1.13589339       0.38323093
H        0.38245195       1.25903166      -1.38473152
10
Frame=12 idx=000439 GeodesicLength=1.1709388978976532 rxn_smarts="[O:1]([c:2]1[c:3]([H:8])[n:4]([H:9])[n:5][c:6]1[H:10])[H:7]>>[O:1]([C@@:2](/[C:3](=[N:4]/[H:9])[H:8])([C:6]#[N:5])[H:10])[H:7]"
O        1.92786203      -0.15128160      -0.36415483
C        0.59867642       0.11975027      -0.31530879
C       -0.34889615      -0.87417878       0.12491325
N       -1.57629709      -0.44047625       0.10048102
N       -1.06991383       1.75718171       0.27939004
C        0.05114306       1.43621374      -0.10800829
H        2.35913320      -0.33881469       0.46929908
H       -0.03184176      -1.63404186       0.83999234
H       -2.29104820      -1.10601016       0.36288480
H        0.38118232       1.23165761      -1.38948863
10
Frame=13 idx=000439 GeodesicLength=1.2711883880499584 rxn_smarts="[O:1]([c:2]1[c:3]([H:8])[n:4]([H:9])[n:5][c:6]1[H:10])[H:7]>>[O:1]([C@@:2](/[C:3](=[N:4]/[H:9])[H:8])([C:6]#[N:5])[H:10])[H:7]"
O        1.92735876      -0.17994877      -0.37347242
C        0.59939863       0.10990415      -0.33084853
C       -0.35075575      -0.87754235       0.12064352
N       -1.57392128      -0.42561455       0.09022342
N       -1.06493492       1.71511174       0.31891582
C        0.05729450       1.42268667      -0.09262749
H        2.37678920      -0.26636002       0.46677112
H       -0.04661867      -1.62480221       0.85360376
H       -2.30571023      -1.07633929       0.34080398
H        0.38109976       1.20290463      -1.39401319
10
Frame=14 idx=000439 GeodesicLength=1.3715049568493207 rxn_smarts="[O:1]([c:2]1[c:3]([H:8])[n:4]([H:9])[n:5][c:6]1[H:10])[H:7]>>[O:1]([C@@:2](/[C:3](=[N:4]/[H:9])[H:8])([C:6]#[N:5])[H:10])[H:7]"
O        1.92720012      -0.20695559      -0.37683178
C        0.60026561       0.10065343      -0.34407387
C       -0.35275876      -0.88084029       0.11667701
N       -1.57152176      -0.41111786       0.07996233
N       -1.05938972       1.67349696       0.35785819
C        0.06259010       1.40924070      -0.07795681
H        2.39344168      -0.19431285       0.45840446
H       -0.06198713      -1.61674109       0.86561072
H       -2.31980634      -1.04637625       0.31933581
H        0.38196621       1.17295285      -1.39898607
10
Frame=15 idx=000439 GeodesicLength=1.472187429928965 rxn_smarts="[O:1]([c:2]1[c:3]([H:8])[n:4]([H:9])[n:5][c:6]1[H:10])[H:7]>>[O:1]([C@@:2](/[C:3](=[N:4]/[H:9])[H:8])([C:6]#[N:5])[H:10])[H:7]"
O        1.92670170      -0.23421326      -0.37560316
C        0.60118859       0.09170066      -0.35385888
C       -0.35516204      -0.88422814       0.11427872
N       -1.56935615      -0.39716213       0.06864192
N       -1.05380156       1.63189583       0.39672155
C        0.06709072       1.39570046      -0.06242366
H        2.41214297      -0.12113985       0.44073263
H       -0.07890677      -1.60784648       0.87977086
H       -2.33414858      -1.01671011       0.29463600
H        0.38425111       1.14200303      -1.40289599
10
Frame=16 idx=000439 GeodesicLength=1.5728220370419863 rxn_smarts="[O:1]([c:2]1[c:3]([H:8])[n:4]([H:9])[n:5][c:6]1[H:10])[H:7]>>[O:1]([C@@:2](/[C:3](=[N:4]/[H:9])[H:8])([C:6]#[N:5])[H:10])[H:7]"
O        1.92659418      -0.25970847      -0.36836307
C        0.60234675       0.08323750      -0.36158539
C       -0.35772910      -0.88762224       0.11200252
N       -1.56710766      -0.38348132       0.05733427
N       -1.04802100       1.59050311       0.43482632
C        0.07071859       1.38229428      -0.04724278
H        2.42980370      -0.04854730       0.41696491
H       -0.09658085      -1.60016451       0.89232924
H       -2.34783990      -0.98662726       0.27068075
H        0.38781530       1.11011621      -1.40694676
