9
Frame=0 idx=000738 GeodesicLength=0.0 rxn_smarts="[O:1]=[C:2]([C:3]([C:4]#[C:5][H:9])([H:7])[H:8])[H:6]>>[O:1]=[C:2]([C:3]([C:5](=[C:4])[H:9])([H:7])[H:8])[H:6]"
O       -1.80214148       0.91615460       0.52171567
C       -0.89492459       0.63400375      -0.20691577
C       -0.16671636      -0.69793403      -0.15853093
C        1.53844889      -0.96466651      -0.05312576
C        1.40034981       0.15927309       0.47245174
H       -0.55517192       1.32626119      -1.00308805
H       -0.26707590      -1.11309600      -1.16246780
H       -0.62133864      -1.34751448       0.58193016
H        1.36857023       1.08751836       1.00803074
9
Frame=1 idx=000738 GeodesicLength=0.05078650437756754 rxn_smarts="[O:1]=[C:2]([C:3]([C:4]#[C:5][H:9])([H:7])[H:8])[H:6]>>[O:1]=[C:2]([C:3]([C:5](=[C:4])[H:9])([H:7])[H:8])[H:6]"
O       -1.83253834       0.90558459       0.49327184
C       -0.90264579       0.63522998      -0.21074159
C       -0.16835341      -0.69318472      -0.15385643
C        1.54778134      -0.94609768      -0.08307190
C        1.40449512       0.15197874       0.49015569
H       -0.55597199       1.32873024      -1.00288121
H       -0.28252714      -1.12265936      -1.15077405
H       -0.62088302      -1.33951058       0.59133737
H        1.41064323       1.07992877       1.02656028
9
Frame=2 idx=000738 GeodesicLength=0.10140277138441645 rxn_smarts="[O:1]=[C:2]([C:3]([C:4]#[C:5][H:9])([H:7])[H:8])[H:6]>>[O:1]=[C:2]([C:3]([C:5](=[C:4])[H:9])([H:7])[H:8])[H:6]"
O       -1.86345044       0.89414581       0.46358260
C       -0.91102971       0.63638661      -0.21449486
C       -0.17020201      -0.68818149      -0.14896385
C        1.55636079      -0.92570159      -0.11232954
C        1.40860918       0.14436584       0.50783746
H       -0.55740118       1.33142286      -1.00225663
H       -0.29714539      -1.13198816      -1.13854586
H       -0.62091061      -1.33125994       0.60075676
H        1.45516938       1.07081006       1.04441392
9
Frame=3 idx=000738 GeodesicLength=0.15170552483163685 rxn_smarts="[O:1]=[C:2]([C:3]([C:4]#[C:5][H:9])([H:7])[H:8])[H:6]>>[O:1]=[C:2]([C:3]([C:5](=[C:4])[H:9])([H:7])[H:8])[H:6]"
O       -1.89446718       0.88207652       0.43285541
C       -0.92018012       0.63742423      -0.21844011
C       -0.17222825      -0.68286938      -0.14386229
C        1.56421776      -0.90341952      -0.14089809
C        1.41282648       0.13685051       0.52485777
H       -0.55965620       1.33423545      -1.00155999
H       -0.31091658      -1.14124504      -1.12571939
H       -0.62126698      -1.32254139       0.61039835
H        1.50167108       1.05948862       1.06236833
9
Frame=4 idx=000738 GeodesicLength=0.20158555945796924 rxn_smarts="[O:1]=[C:2]([C:3]([C:4]#[C:5][H:9])([H:7])[H:8])[H:6]>>[O:1]=[C:2]([C:3]([C:5](=[C:4])[H:9])([H:7])[H:8])[H:6]"
O       -1.92524839       0.86957797       0.40133561
C       -0.93017746       0.63829035      -0.22283290
C       -0.17439359      -0.67719281      -0.13856758
C        1.57137233      -0.87927028      -0.16880412
C        1.41727954       0.12982410       0.54066416
H       -0.56290795       1.33707504      -1.00111820
H       -0.32382673      -1.15057048      -1.11222775
H       -0.62180095      -1.31314850       0.62043809
H        1.54970320       1.04541462       1.08111271
9
Frame=5 idx=000738 GeodesicLength=0.2509357943736577 rxn_smarts="[O:1]=[C:2]([C:3]([C:4]#[C:5][H:9])([H:7])[H:8])[H:6]>>[O:1]=[C:2]([C:3]([C:5](=[C:4])[H:9])([H:7])[H:8])[H:6]"
O       -1.95545674       0.85686255       0.36935648
C       -0.94108297       0.63891742      -0.22795834
C       -0.17665493      -0.67110443      -0.13311097
C        1.57784911      -0.85327735      -0.19615006
C        1.42207322       0.12364886       0.55481866
H       -0.56729937       1.33984201      -1.00128021
H       -0.33586920      -1.16011899      -1.09799479
H       -0.62235630      -1.30288282       0.63102891
H        1.59879717       1.02811275       1.10129032
9
Frame=6 idx=000738 GeodesicLength=0.2996980624936986 rxn_smarts="[O:1]=[C:2]([C:3]([C:4]#[C:5][H:9])([H:7])[H:8])[H:6]>>[O:1]=[C:2]([C:3]([C:5](=[C:4])[H:9])([H:7])[H:8])[H:6]"
O       -1.98497239       0.84394052       0.33732789
C       -0.95298758       0.63919006      -0.23391558
C       -0.17903596      -0.66461782      -0.12755239
C        1.58360227      -0.82570174      -0.22240784
C        1.42701329       0.11837846       0.56765043
H       -0.57286466       1.34259053      -1.00195506
H       -0.34675327      -1.16971987      -1.08321579
H       -0.62313937      -1.29192240       0.64185276
H        1.64913767       1.00786227       1.12221557
9
Frame=7 idx=000738 GeodesicLength=0.34791148905884567 rxn_smarts="[O:1]=[C:2]([C:3]([C:4]#[C:5][H:9])([H:7])[H:8])[H:6]>>[O:1]=[C:2]([C:3]([C:5](=[C:4])[H:9])([H:7])[H:8])[H:6]"
O       -2.01391923       0.83080422       0.30501900
C       -0.96580731       0.63917955      -0.24085299
C       -0.18144530      -0.65758601      -0.12180618
C        1.58871121      -0.79629615      -0.24831613
C        1.43241604       0.11433043       0.57864678
H       -0.57968324       1.34522413      -1.00352414
H       -0.35674746      -1.17961222      -1.06752218
H       -0.62374738      -1.27978998       0.65343240
H        1.70022268       0.98374602       1.14492345
9
Frame=8 idx=000738 GeodesicLength=0.3955620303239498 rxn_smarts="[O:1]=[C:2]([C:3]([C:4]#[C:5][H:9])([H:7])[H:8])[H:6]>>[O:1]=[C:2]([C:3]([C:5](=[C:4])[H:9])([H:7])[H:8])[H:6]"
O       -2.04233145       0.81735017       0.27275236
C       -0.97963861       0.63875791      -0.24879413
C       -0.18393802      -0.65003234      -0.11592484
C        1.59312359      -0.76534441      -0.27309280
C        1.43794436       0.11143169       0.58851861
H       -0.58771012       1.34789171      -1.00567525
H       -0.36546377      -1.18950028      -1.05119273
H       -0.62453284      -1.26679992       0.66528963
H        1.75254686       0.95624548       1.16811916
9
Frame=9 idx=000738 GeodesicLength=0.4426926983051193 rxn_smarts="[O:1]=[C:2]([C:3]([C:4]#[C:5][H:9])([H:7])[H:8])[H:6]>>[O:1]=[C:2]([C:3]([C:5](=[C:4])[H:9])([H:7])[H:8])[H:6]"
O       -2.07040513       0.80345189       0.24031078
C       -0.99443626       0.63795750      -0.25778754
C       -0.18645937      -0.64182847      -0.10983151
C        1.59688301      -0.73268644      -0.29705174
C        1.44374482       0.10988881       0.59714243
H       -0.59698960       1.35058532      -1.00853615
H       -0.37297677      -1.19943320      -1.03400147
H       -0.62530107      -1.25267070       0.67769225
H        1.80594037       0.92473528       1.19206296
9
Frame=10 idx=000738 GeodesicLength=0.48931913003049504 rxn_smarts="[O:1]=[C:2]([C:3]([C:4]#[C:5][H:9])([H:7])[H:8])[H:6]>>[O:1]=[C:2]([C:3]([C:5](=[C:4])[H:9])([H:7])[H:8])[H:6]"
O       -2.09841295       0.78886231       0.20731618
C       -1.01014152       0.63684160      -0.26778426
C       -0.18893858      -0.63280430      -0.10341363
C        1.60001514      -0.69818140      -0.32047016
C        1.45002016       0.10991336       0.60436861
H       -0.60757100       1.35331922      -1.01215338
H       -0.37933273      -1.20937771      -1.01567775
H       -0.62584056      -1.23707115       0.69092909
H        1.86020204       0.88849808       1.21688531
9
Frame=11 idx=000738 GeodesicLength=0.5353486563511826 rxn_smarts="[O:1]=[C:2]([C:3]([C:4]#[C:5][H:9])([H:7])[H:8])[H:6]>>[O:1]=[C:2]([C:3]([C:5](=[C:4])[H:9])([H:7])[H:8])[H:6]"
O       -2.12624622       0.77362177       0.17399951
C       -1.02679337       0.63533040      -0.27905986
C       -0.19128022      -0.62280794      -0.09668146
C        1.60258391      -0.66171406      -0.34362532
C        1.45692716       0.11208005       0.60972424
H       -0.61962975       1.35602921      -1.01689428
H       -0.38449308      -1.21950137      -0.99595961
H       -0.62586938      -1.21959829       0.70527962
H        1.91480094       0.84656023       1.24321714
9
Frame=12 idx=000738 GeodesicLength=0.5810475125214998 rxn_smarts="[O:1]=[C:2]([C:3]([C:4]#[C:5][H:9])([H:7])[H:8])[H:6]>>[O:1]=[C:2]([C:3]([C:5](=[C:4])[H:9])([H:7])[H:8])[H:6]"
O       -2.15434543       0.75712476       0.13989865
C       -1.04442448       0.63328628      -0.29118841
C       -0.19375345      -0.61200986      -0.08955719
C        1.60445971      -0.62383037      -0.36426712
C        1.46350741       0.11515589       0.61604914
H       -0.63248714       1.35942832      -1.02100448
H       -0.38769308      -1.22884972      -0.97562855
H       -0.62664489      -1.20142543       0.71944944
H        1.97138135       0.80112013       1.26624853
9
Frame=13 idx=000738 GeodesicLength=0.6257781540291335 rxn_smarts="[O:1]=[C:2]([C:3]([C:4]#[C:5][H:9])([H:7])[H:8])[H:6]>>[O:1]=[C:2]([C:3]([C:5](=[C:4])[H:9])([H:7])[H:8])[H:6]"
O       -2.18196931       0.73995639       0.10580448
C       -1.06292147       0.63076259      -0.30499835
C       -0.19571725      -0.59972897      -0.08199972
C        1.60593083      -0.58322421      -0.38566283
C        1.47128108       0.12163017       0.61936129
H       -0.64746937       1.36233665      -1.02732184
H       -0.38961180      -1.23851763      -0.95300678
H       -0.62588397      -1.18016793       0.73558276
H        2.02636126       0.74695293       1.29224097
9
Frame=14 idx=000738 GeodesicLength=0.6701395965530306 rxn_smarts="[O:1]=[C:2]([C:3]([C:4]#[C:5][H:9])([H:7])[H:8])[H:6]>>[O:1]=[C:2]([C:3]([C:5](=[C:4])[H:9])([H:7])[H:8])[H:6]"
O       -2.20968582       0.72146643       0.07105488
C       -1.08224460       0.62767958      -0.31999655
C       -0.19748285      -0.58613493      -0.07386029
C        1.60688871      -0.54026256      -0.40579248
C        1.47943664       0.13030501       0.62251253
H       -0.66378967       1.36539686      -1.03429193
H       -0.38956091      -1.24766164      -0.92881638
H       -0.62497121      -1.15693431       0.75257963
H        2.08140972       0.68614556       1.31661058
9
Frame=15 idx=000738 GeodesicLength=0.7139544291974247 rxn_smarts="[O:1]=[C:2]([C:3]([C:4]#[C:5][H:9])([H:7])[H:8])[H:6]>>[O:1]=[C:2]([C:3]([C:5](=[C:4])[H:9])([H:7])[H:8])[H:6]"
O       -2.23700162       0.70180508       0.03597350
C       -1.10201962       0.62388894      -0.33609662
C       -0.19902934      -0.57142563      -0.06516366
C        1.60739990      -0.49541573      -0.42401627
C        1.48798105       0.13986527       0.62666759
H       -0.68073394       1.36896714      -1.04099000
H       -0.38732208      -1.25602487      -0.90330648
H       -0.62429331      -1.13218758       0.76994683
H        2.13501897       0.62052737       1.33698511
9
Frame=16 idx=000738 GeodesicLength=0.7572720972876898 rxn_smarts="[O:1]=[C:2]([C:3]([C:4]#[C:5][H:9])([H:7])[H:8])[H:6]>>[O:1]=[C:2]([C:3]([C:5](=[C:4])[H:9])([H:7])[H:8])[H:6]"
O       -2.26402269       0.68053794       0.00018792
C       -1.12216873       0.61942699      -0.35331211
C       -0.20010058      -0.55517555      -0.05575941
C        1.60758017      -0.44825448      -0.44131493
C        1.49759224       0.15126915       0.63052843
H       -0.69874212       1.37284234      -1.04794997
H       -0.38298239      -1.26371730      -0.87570984
H       -0.62306965      -1.10489845       0.78850962
H        2.18591375       0.54796934       1.35482028
