12
Frame=0 idx=007450 GeodesicLength=0.0 rxn_smarts="[O:1]([C:2]([c:3]1[n:4][o:5][c:6]([H:11])[c:7]1[H:12])([H:9])[H:10])[H:8]>>[O:1]([C:2]([C:3]([N:4]=[O:5])=[C:7]=[C:6]([H:11])[H:12])([H:9])[H:10])[H:8]"
O       -2.40365549       0.75949514      -0.34792882
C       -1.61769369      -0.26798685       0.18982831
C       -0.14483464      -0.01417634       0.10464278
N        0.30377761       0.95572403      -0.63079170
O        1.64863839       0.97806553      -0.56147383
C        2.01284037      -0.09446889       0.25632198
C        0.88940942      -0.75662462       0.82068209
H       -1.93110207       1.16104419      -1.08179332
H       -1.88842386      -0.38759370       1.24107638
H       -1.81900031      -1.23194178      -0.29889717
H        3.01832280      -0.01420266       0.64967065
H        1.93172150      -1.08733408      -0.34133735
12
Frame=1 idx=007450 GeodesicLength=0.10947635616997778 rxn_smarts="[O:1]([C:2]([c:3]1[n:4][o:5][c:6]([H:11])[c:7]1[H:12])([H:9])[H:10])[H:8]>>[O:1]([C:2]([C:3]([N:4]=[O:5])=[C:7]=[C:6]([H:11])[H:12])([H:9])[H:10])[H:8]"
O       -2.40688677       0.76782236      -0.32408249
C       -1.61582521      -0.27025412       0.18569599
C       -0.14442557      -0.00830004       0.10153663
N        0.30021229       0.95282067      -0.65614276
O        1.64182569       0.97348307      -0.59887599
C        2.02162057      -0.09623078       0.25957052
C        0.89100244      -0.73607825       0.81846030
H       -1.94359660       1.17983112      -1.05807276
H       -1.88414776      -0.41581466       1.23428113
H       -1.81587392      -1.22231449      -0.32608290
H        3.01939593       0.00066396       0.66768317
H        1.93669891      -1.12562885      -0.30397083
12
Frame=2 idx=007450 GeodesicLength=0.2189697899250842 rxn_smarts="[O:1]([C:2]([c:3]1[n:4][o:5][c:6]([H:11])[c:7]1[H:12])([H:9])[H:10])[H:8]>>[O:1]([C:2]([C:3]([N:4]=[O:5])=[C:7]=[C:6]([H:11])[H:12])([H:9])[H:10])[H:8]"
O       -2.40975642       0.77570614      -0.29995038
C       -1.61389193      -0.27257726       0.18131548
C       -0.14392613      -0.00288624       0.09746162
N        0.29632489       0.95000455      -0.68137694
O        1.63461387       0.96875612      -0.63637630
C        2.03056325      -0.09820554       0.26251373
C        0.89277492      -0.71592602       0.81500481
H       -1.95558784       1.19875773      -1.03338881
H       -1.87919414      -0.44388365       1.22677139
H       -1.81339126      -1.21212919      -0.35309490
H        3.02000326       0.01607135       0.68542903
H        1.94146753      -1.16368800      -0.26430873
12
Frame=3 idx=007450 GeodesicLength=0.3283882251395838 rxn_smarts="[O:1]([C:2]([c:3]1[n:4][o:5][c:6]([H:11])[c:7]1[H:12])([H:9])[H:10])[H:8]>>[O:1]([C:2]([C:3]([N:4]=[O:5])=[C:7]=[C:6]([H:11])[H:12])([H:9])[H:10])[H:8]"
O       -2.41214123       0.78309178      -0.27561436
C       -1.61181739      -0.27494027       0.17669898
C       -0.14331050       0.00204538       0.09241892
N        0.29208263       0.94747314      -0.70631016
O        1.62691487       0.96406211      -0.67385693
C        2.03963016      -0.10048095       0.26508600
C        0.89474480      -0.69624708       0.81022157
H       -1.96698468       1.21760734      -1.00789064
H       -1.87347006      -0.47170819       1.21857221
H       -1.81151325      -1.20137355      -0.37983365
H        3.02003543       0.03186071       0.70283324
H        1.94582922      -1.20139040      -0.22232518
12
Frame=4 idx=007450 GeodesicLength=0.4378034362017977 rxn_smarts="[O:1]([C:2]([c:3]1[n:4][o:5][c:6]([H:11])[c:7]1[H:12])([H:9])[H:10])[H:8]>>[O:1]([C:2]([C:3]([N:4]=[O:5])=[C:7]=[C:6]([H:11])[H:12])([H:9])[H:10])[H:8]"
O       -2.41409735       0.78993256      -0.25128202
C       -1.60966768      -0.27730569       0.17192380
C       -0.14257548       0.00646865       0.08641128
N        0.28751182       0.94550142      -0.73072809
O        1.61878935       0.95990619      -0.71090618
C        2.04892087      -0.10315225       0.26724693
C        0.89695075      -0.67731961       0.80386654
H       -1.97782154       1.23601860      -0.98197281
H       -1.86707468      -0.49894202       1.20983981
H       -1.81035475      -1.19020624      -0.40599075
H        3.01962033       0.04772455       0.71981561
H        1.94979836      -1.23862617      -0.17822413
12
Frame=5 idx=007450 GeodesicLength=0.5472059953997803 rxn_smarts="[O:1]([C:2]([c:3]1[n:4][o:5][c:6]([H:11])[c:7]1[H:12])([H:9])[H:10])[H:8]>>[O:1]([C:2]([C:3]([N:4]=[O:5])=[C:7]=[C:6]([H:11])[H:12])([H:9])[H:10])[H:8]"
O       -2.41561752       0.79620436      -0.22708111
C       -1.60744488      -0.27964922       0.16705530
C       -0.14170478       0.01040174       0.07947537
N        0.28263123       0.94428210      -0.75452760
O        1.61025709       0.95671787      -0.74726594
C        2.05849184      -0.10632650       0.26892856
C        0.89942303      -0.65932421       0.79578128
H       -1.98811961       1.25373158      -0.95594498
H       -1.86005500      -0.52538848       1.20071457
H       -1.80992445      -1.17874109      -0.43136659
H        3.01877908       0.06342346       0.73635383
H        1.95328398      -1.27533161      -0.13212270
12
Frame=6 idx=007450 GeodesicLength=0.6564639734208038 rxn_smarts="[O:1]([C:2]([c:3]1[n:4][o:5][c:6]([H:11])[c:7]1[H:12])([H:9])[H:10])[H:8]>>[O:1]([C:2]([C:3]([N:4]=[O:5])=[C:7]=[C:6]([H:11])[H:12])([H:9])[H:10])[H:8]"
O       -2.41656501       0.80189024      -0.20307204
C       -1.60502034      -0.28192027       0.16212449
C       -0.14066235       0.01381348       0.07157013
N        0.27736642       0.94383479      -0.77773696
O        1.60114780       0.95487494      -0.78269823
C        2.06824508      -0.11008724       0.27012988
C        0.90220161      -0.64243601       0.78577274
H       -1.99790303       1.27052212      -0.93001876
H       -1.85218281      -0.55088231       1.19127442
H       -1.81015207      -1.16693561      -0.45581733
H        3.01735735       0.07865230       0.75243759
H        1.95616734      -1.31132642      -0.08396592
12
Frame=7 idx=007450 GeodesicLength=0.7656951905028521 rxn_smarts="[O:1]([C:2]([c:3]1[n:4][o:5][c:6]([H:11])[c:7]1[H:12])([H:9])[H:10])[H:8]>>[O:1]([C:2]([C:3]([N:4]=[O:5])=[C:7]=[C:6]([H:11])[H:12])([H:9])[H:10])[H:8]"
O       -2.41708542       0.80698024      -0.17935004
C       -1.60249178      -0.28414046       0.15718750
C       -0.13944960       0.01684799       0.06283576
N        0.27179972       0.94435458      -0.80032719
O        1.59165935       0.95488371      -0.81704100
C        2.07837569      -0.11455365       0.27073106
C        0.90531810      -0.62668054       0.77384022
H       -2.00729353       1.28624327      -0.90446789
H       -1.84372559      -0.57537271       1.18165486
H       -1.81102475      -1.15502208      -0.47925660
H        3.01561891       0.09317548       0.76794050
H        1.95829890      -1.34671584      -0.03374718
12
Frame=8 idx=007450 GeodesicLength=0.8748860352907651 rxn_smarts="[O:1]([C:2]([c:3]1[n:4][o:5][c:6]([H:11])[c:7]1[H:12])([H:9])[H:10])[H:8]>>[O:1]([C:2]([C:3]([N:4]=[O:5])=[C:7]=[C:6]([H:11])[H:12])([H:9])[H:10])[H:8]"
O       -2.41707461       0.81144783      -0.15585888
C       -1.59971129      -0.28632229       0.15220401
C       -0.13803309       0.01961807       0.05333861
N        0.26584358       0.94591068      -0.82232452
O        1.58163278       0.95684369      -0.85045372
C        2.08883650      -0.11987442       0.27062833
C        0.90881310      -0.61195893       0.76002744
H       -2.01631965       1.30092873      -0.87924632
H       -1.83452139      -0.59905692       1.17179025
H       -1.81229580      -1.14292405      -0.50183260
H        3.01348132       0.10685865       0.78273506
H        1.95934855      -1.38147105       0.01899234
12
Frame=9 idx=007450 GeodesicLength=0.9840721983472005 rxn_smarts="[O:1]([C:2]([c:3]1[n:4][o:5][c:6]([H:11])[c:7]1[H:12])([H:9])[H:10])[H:8]>>[O:1]([C:2]([C:3]([N:4]=[O:5])=[C:7]=[C:6]([H:11])[H:12])([H:9])[H:10])[H:8]"
O       -2.41660270       0.81532104      -0.13261208
C       -1.59672286      -0.28846751       0.14722557
C       -0.13639809       0.02212248       0.04303079
N        0.25956007       0.94849316      -0.84390015
O        1.57119162       0.96130171      -0.88271497
C        2.09967934      -0.12609994       0.26979759
C        0.91271668      -0.59847666       0.74410866
H       -2.02510713       1.31448442      -0.85452779
H       -1.82462571      -0.62181435       1.16183531
H       -1.81404867      -1.13079847      -0.52343825
H        3.01103018       0.11940981       0.79675175
H        1.95932728      -1.41547569       0.07444358
12
Frame=10 idx=007450 GeodesicLength=1.0934966887635624 rxn_smarts="[O:1]([C:2]([c:3]1[n:4][o:5][c:6]([H:11])[c:7]1[H:12])([H:9])[H:10])[H:8]>>[O:1]([C:2]([C:3]([N:4]=[O:5])=[C:7]=[C:6]([H:11])[H:12])([H:9])[H:10])[H:8]"
O       -2.41563084       0.81868484      -0.10959605
C       -1.59345152      -0.29055800       0.14225300
C       -0.13453090       0.02438902       0.03188712
N        0.25277665       0.95208952      -0.86518964
O        1.56013847       0.96854225      -0.91378033
C        2.11100591      -0.13344828       0.26815182
C        0.91714224      -0.58637581       0.72594895
H       -2.03378282       1.32694726      -0.83042268
H       -1.81387584      -0.64366696       1.15184722
H       -1.81622880      -1.11865587      -0.54408328
H        3.00830698       0.13076429       0.81011876
H        1.95813047      -1.44871228       0.13286510
12
Frame=11 idx=007450 GeodesicLength=1.2018446061074208 rxn_smarts="[O:1]([C:2]([c:3]1[n:4][o:5][c:6]([H:11])[c:7]1[H:12])([H:9])[H:10])[H:8]>>[O:1]([C:2]([C:3]([N:4]=[O:5])=[C:7]=[C:6]([H:11])[H:12])([H:9])[H:10])[H:8]"
O       -2.41389788       0.82154031      -0.08649854
C       -1.58990488      -0.29263985       0.13724253
C       -0.13237521       0.02613016       0.01960966
N        0.24573669       0.95619210      -0.88641655
O        1.54874172       0.97873799      -0.94335525
C        2.12272027      -0.14191887       0.26551552
C        0.92198494      -0.57590015       0.70502053
H       -2.04208242       1.33830140      -0.80655354
H       -1.80229200      -0.66472774       1.14165935
H       -1.81912934      -1.10634852      -0.56378271
H        3.00497092       0.14098772       0.82249187
H        1.95552720      -1.48035456       0.19506714
12
Frame=12 idx=007450 GeodesicLength=1.310446249122726 rxn_smarts="[O:1]([C:2]([c:3]1[n:4][o:5][c:6]([H:11])[c:7]1[H:12])([H:9])[H:10])[H:8]>>[O:1]([C:2]([C:3]([N:4]=[O:5])=[C:7]=[C:6]([H:11])[H:12])([H:9])[H:10])[H:8]"
O       -2.41155790       0.82413854      -0.06305529
C       -1.58615531      -0.29476815       0.13214462
C       -0.12994152       0.02731044       0.00602133
N        0.23827073       0.96087623      -0.90802277
O        1.53692157       0.99200426      -0.97194369
C        2.13508279      -0.15166327       0.26195091
C        0.92743098      -0.56729238       0.68115854
H       -2.05026826       1.34900303      -0.78269145
H       -1.78983823      -0.68527106       1.13134781
H       -1.82292051      -1.09398868      -0.58285402
H        3.00119892       0.15024084       0.83428784
H        1.95177672      -1.51058979       0.26165617
12
Frame=13 idx=007450 GeodesicLength=1.4195285649326552 rxn_smarts="[O:1]([C:2]([c:3]1[n:4][o:5][c:6]([H:11])[c:7]1[H:12])([H:9])[H:10])[H:8]>>[O:1]([C:2]([C:3]([N:4]=[O:5])=[C:7]=[C:6]([H:11])[H:12])([H:9])[H:10])[H:8]"
O       -2.40833715       0.82627139      -0.03920259
C       -1.58184974      -0.29703427       0.12677696
C       -0.12717535       0.02826836      -0.00863773
N        0.23009651       0.96623685      -0.93001440
O        1.52417138       1.00829990      -0.99970583
C        2.14805587      -0.16318176       0.25711300
C        0.93362805      -0.56018273       0.65458216
H       -2.05823314       1.35923490      -0.75846159
H       -1.77605638      -0.70590493       1.12048410
H       -1.82700029      -1.08133980      -0.60170255
H        2.99699682       0.15825033       0.84489733
H        1.94570342      -1.53891824       0.33387116
12
Frame=14 idx=007450 GeodesicLength=1.5277559160658223 rxn_smarts="[O:1]([C:2]([c:3]1[n:4][o:5][c:6]([H:11])[c:7]1[H:12])([H:9])[H:10])[H:8]>>[O:1]([C:2]([C:3]([N:4]=[O:5])=[C:7]=[C:6]([H:11])[H:12])([H:9])[H:10])[H:8]"
O       -2.40340073       0.82825902      -0.01425944
C       -1.57704332      -0.29940327       0.12135833
C       -0.12398529       0.02792338      -0.02535272
N        0.22178366       0.97154293      -0.95281854
O        1.51100279       1.02773935      -1.02637920
C        2.16114550      -0.17598923       0.25124789
C        0.94019668      -0.55665247       0.62306509
H       -2.06508401       1.36889570      -0.73351657
H       -1.76098968      -0.72623567       1.10943528
H       -1.83238021      -1.06818748      -0.61975434
H        2.99063910       0.16570394       0.85514765
H        1.93811549      -1.56359622       0.41182659
12
Frame=15 idx=007450 GeodesicLength=1.636162760577616 rxn_smarts="[O:1]([C:2]([c:3]1[n:4][o:5][c:6]([H:11])[c:7]1[H:12])([H:9])[H:10])[H:8]>>[O:1]([C:2]([C:3]([N:4]=[O:5])=[C:7]=[C:6]([H:11])[H:12])([H:9])[H:10])[H:8]"
O       -2.39724364       0.83021100       0.01155520
C       -1.57186046      -0.30188897       0.11585320
C       -0.12036278       0.02668502      -0.04384011
N        0.21298116       0.97682424      -0.97670782
O        1.49721315       1.05085781      -1.05161263
C        2.17518663      -0.19065894       0.24424687
C        0.94776293      -0.55695657       0.58627375
H       -2.07148296       1.37818216      -0.70804946
H       -1.74456969      -0.74628535       1.09819709
H       -1.83909501      -1.05488721      -0.63705565
H        2.98306158       0.17225985       0.86525551
H        1.92840909      -1.58434305       0.49588404
12
Frame=16 idx=007450 GeodesicLength=1.7443690916268133 rxn_smarts="[O:1]([C:2]([c:3]1[n:4][o:5][c:6]([H:11])[c:7]1[H:12])([H:9])[H:10])[H:8]>>[O:1]([C:2]([C:3]([N:4]=[O:5])=[C:7]=[C:6]([H:11])[H:12])([H:9])[H:10])[H:8]"
O       -2.38825979       0.83272181       0.03915373
C       -1.56594493      -0.30445533       0.11052122
C       -0.11611876       0.02321944      -0.06549783
N        0.20375397       0.98002371      -1.00367978
O        1.48251023       1.07876305      -1.07419351
C        2.18985514      -0.20686505       0.23645419
C        0.95637946      -0.56329709       0.54145317
H       -2.07614673       1.38724652      -0.68151379
H       -1.72580097      -0.76566757       1.08723386
H       -1.84827973      -1.04115551      -0.65277506
H        2.97168817       0.17888351       0.87722448
H        1.91636396      -1.59941749       0.58561933
