15
Frame=0 idx=010489 GeodesicLength=0.0 rxn_smarts="[C:1]([c:2]1[c:3]([H:11])[n:4]([H:12])[c:5]([N:6]([H:13])[H:14])[c:7]1[H:15])([H:8])([H:9])[H:10]>>[C:1](=[C:2]1[C+:3]([H:11])[N:4]([H:12])[C:5]([N:6]([H:13])[H:14])=[C-:7]1)([H:8])[H:9].[H:10][H:15]"
C       -2.23811455      -0.16162299      -0.26409219
C       -0.90680038       0.18958818      -0.09673238
C       -0.29088323       1.38657916      -0.48484606
N        1.03661886       1.18283485      -0.42609052
C        1.29495445      -0.10213028       0.07972617
N        2.62953997      -0.40638848       0.39525190
C        0.11530669      -0.71657695       0.33390865
H       -3.01062678       0.60145747      -0.31086344
H       -2.51559640      -1.13537088      -0.63654387
H       -1.90663315      -1.55079154       1.15645263
H       -0.70629692       2.26453104      -0.95884377
H        1.73030815       1.91253907      -0.47210675
H        2.65364906      -1.16497521       1.06116851
H        3.16265482      -0.68132043      -0.41918047
H       -1.04808055      -1.61835306       1.04279164
15
Frame=1 idx=010489 GeodesicLength=0.08264024008365514 rxn_smarts="[C:1]([c:2]1[c:3]([H:11])[n:4]([H:12])[c:5]([N:6]([H:13])[H:14])[c:7]1[H:15])([H:8])([H:9])[H:10]>>[C:1](=[C:2]1[C+:3]([H:11])[N:4]([H:12])[C:5]([N:6]([H:13])[H:14])=[C-:7]1)([H:8])[H:9].[H:10][H:15]"
C       -2.24197043      -0.16732965      -0.25822587
C       -0.90393557       0.17910861      -0.12552712
C       -0.29094912       1.38827633      -0.48090087
N        1.03592230       1.18698401      -0.41976008
C        1.29607986      -0.10061697       0.07913378
N        2.63335145      -0.40578556       0.38436880
C        0.11785764      -0.72512220       0.31643489
H       -3.00769481       0.59898765      -0.34695205
H       -2.52652837      -1.14142579      -0.62681181
H       -1.91586179      -1.54063796       1.16156303
H       -0.70926928       2.28201070      -0.92137658
H        1.73058339       1.91544512      -0.46867955
H        2.66392216      -1.14017316       1.07662519
H        3.15042524      -0.71282758      -0.42882611
H       -1.03193267      -1.61689355       1.05893436
15
Frame=2 idx=010489 GeodesicLength=0.16545499444708517 rxn_smarts="[C:1]([c:2]1[c:3]([H:11])[n:4]([H:12])[c:5]([N:6]([H:13])[H:14])[c:7]1[H:15])([H:8])([H:9])[H:10]>>[C:1](=[C:2]1[C+:3]([H:11])[N:4]([H:12])[C:5]([N:6]([H:13])[H:14])=[C-:7]1)([H:8])[H:9].[H:10][H:15]"
C       -2.24481189      -0.17384847      -0.25569465
C       -0.90060278       0.16739705      -0.15841255
C       -0.29127803       1.38959470      -0.47616661
N        1.03502520       1.19125217      -0.41205071
C        1.29702700      -0.09983391       0.07764391
N        2.63698850      -0.40632011       0.37188328
C        0.12019989      -0.73317798       0.29993770
H       -3.00401516       0.59277579      -0.38855895
H       -2.53635812      -1.14991486      -0.61604213
H       -1.92629514      -1.52415819       1.17059781
H       -0.71280502       2.29978273      -0.87791204
H        1.73040430       1.91882165      -0.46208766
H        2.67484888      -1.11688902       1.08822790
H        3.13768903      -0.74392255      -0.43933843
H       -1.01601667      -1.61155900       1.07797311
15
Frame=3 idx=010489 GeodesicLength=0.24837838119712213 rxn_smarts="[C:1]([c:2]1[c:3]([H:11])[n:4]([H:12])[c:5]([N:6]([H:13])[H:14])[c:7]1[H:15])([H:8])([H:9])[H:10]>>[C:1](=[C:2]1[C+:3]([H:11])[N:4]([H:12])[C:5]([N:6]([H:13])[H:14])=[C-:7]1)([H:8])[H:9].[H:10][H:15]"
C       -2.24656657      -0.18062574      -0.25583087
C       -0.89697093       0.15558356      -0.19264784
C       -0.29192338       1.39053271      -0.47075146
N        1.03386608       1.19540137      -0.40356173
C        1.29776284      -0.09968094       0.07538309
N        2.64041918      -0.40773095       0.35797491
C        0.12221441      -0.74049072       0.28498677
H       -2.99963759       0.58303528      -0.43441726
H       -2.54429930      -1.15980109      -0.60520120
H       -1.93814887      -1.50262093       1.18213465
H       -0.71699005       2.31679873      -0.82944871
H        1.72981192       1.92229014      -0.45372617
H        2.68645217      -1.09454148       1.09668191
H        3.12434069      -0.77487987      -0.45048816
H       -1.00033062      -1.60327009       1.09891209
15
Frame=4 idx=010489 GeodesicLength=0.33137184826731353 rxn_smarts="[C:1]([c:2]1[c:3]([H:11])[n:4]([H:12])[c:5]([N:6]([H:13])[H:14])[c:7]1[H:15])([H:8])([H:9])[H:10]>>[C:1](=[C:2]1[C+:3]([H:11])[N:4]([H:12])[C:5]([N:6]([H:13])[H:14])=[C-:7]1)([H:8])[H:9].[H:10][H:15]"
C       -2.24740079      -0.18711580      -0.25763556
C       -0.89333153       0.14490643      -0.22502706
C       -0.29278537       1.39120844      -0.46515273
N        1.03248991       1.19914036      -0.39540651
C        1.29826126      -0.09990296       0.07265617
N        2.64360890      -0.40963678       0.34303151
C        0.12381964      -0.74674420       0.27223933
H       -2.99462840       0.57032984      -0.48271233
H       -2.54976862      -1.16990388      -0.59548924
H       -1.95168566      -1.47833409       1.19416941
H       -0.72175145       2.33256517      -0.77669228
H        1.72905025       1.92527397      -0.44608722
H        2.69874461      -1.07204154       1.10311953
H        3.11019670      -0.80623024      -0.46160525
H       -0.98481945      -1.59351473       1.12059223
15
Frame=5 idx=010489 GeodesicLength=0.4143145321737686 rxn_smarts="[C:1]([c:2]1[c:3]([H:11])[n:4]([H:12])[c:5]([N:6]([H:13])[H:14])[c:7]1[H:15])([H:8])([H:9])[H:10]>>[C:1](=[C:2]1[C+:3]([H:11])[N:4]([H:12])[C:5]([N:6]([H:13])[H:14])=[C-:7]1)([H:8])[H:9].[H:10][H:15]"
C       -2.24768415      -0.19292886      -0.26020848
C       -0.88989196       0.13582678      -0.25435438
C       -0.29375527       1.39176094      -0.45996147
N        1.03100506       1.20245369      -0.38801136
C        1.29855674      -0.10034379       0.06953253
N        2.64651064      -0.41172760       0.32763725
C        0.12504681      -0.75207000       0.26126225
H       -2.98912420       0.55560036      -0.53107971
H       -2.55319539      -1.17941551      -0.58719988
H       -1.96683984      -1.45288940       1.20559411
H       -0.72672006       2.34639525      -0.72154359
H        1.72828591       1.92767981      -0.43995522
H        2.71149705      -1.04890532       1.10826758
H        3.09554990      -0.83779683      -0.47180318
H       -0.96924123      -1.58363954       1.14182354
15
Frame=6 idx=010489 GeodesicLength=0.4972576899016736 rxn_smarts="[C:1]([c:2]1[c:3]([H:11])[n:4]([H:12])[c:5]([N:6]([H:13])[H:14])[c:7]1[H:15])([H:8])([H:9])[H:10]>>[C:1](=[C:2]1[C+:3]([H:11])[N:4]([H:12])[C:5]([N:6]([H:13])[H:14])=[C-:7]1)([H:8])[H:9].[H:10][H:15]"
C       -2.24760990      -0.19812357      -0.26344423
C       -0.88664287       0.12820445      -0.28076798
C       -0.29472819       1.39225266      -0.45554664
N        1.02947372       1.20545708      -0.38129622
C        1.29868631      -0.10084780       0.06624472
N        2.64916727      -0.41393144       0.31186877
C        0.12594671      -0.75652613       0.25195749
H       -2.98308807       0.53923739      -0.57893113
H       -2.55495744      -1.18835056      -0.58029090
H       -1.98378584      -1.42655402       1.21620464
H       -0.73168825       2.35807047      -0.66446917
H        1.72756242       1.92963820      -0.43521537
H        2.72479865      -1.02506602       1.11215464
H        3.08037523      -0.86950422      -0.48100072
H       -0.95350973      -1.57395649       1.16253210
15
Frame=7 idx=010489 GeodesicLength=0.5801018365071521 rxn_smarts="[C:1]([c:2]1[c:3]([H:11])[n:4]([H:12])[c:5]([N:6]([H:13])[H:14])[c:7]1[H:15])([H:8])([H:9])[H:10]>>[C:1](=[C:2]1[C+:3]([H:11])[N:4]([H:12])[C:5]([N:6]([H:13])[H:14])=[C-:7]1)([H:8])[H:9].[H:10][H:15]"
C       -2.24736623      -0.20266187      -0.26708366
C       -0.88360062       0.12186339      -0.30465822
C       -0.29571032       1.39286104      -0.45159549
N        1.02791230       1.20823514      -0.37515340
C        1.29868600      -0.10138690       0.06275558
N        2.65157675      -0.41613760       0.29598441
C        0.12658588      -0.76035896       0.24373838
H       -2.97661179       0.52181093      -0.62533668
H       -2.55557623      -1.19657992      -0.57452316
H       -2.00246257      -1.39952109       1.22590797
H       -0.73638827       2.36721812      -0.60671834
H        1.72689397       1.93123624      -0.43170245
H        2.73850494      -1.00050139       1.11494531
H        3.06494995      -0.90106653      -0.48884403
H       -0.93739376      -1.56501061       1.18228378
15
Frame=8 idx=010489 GeodesicLength=0.6627570962417678 rxn_smarts="[C:1]([c:2]1[c:3]([H:11])[n:4]([H:12])[c:5]([N:6]([H:13])[H:14])[c:7]1[H:15])([H:8])([H:9])[H:10]>>[C:1](=[C:2]1[C+:3]([H:11])[N:4]([H:12])[C:5]([N:6]([H:13])[H:14])=[C-:7]1)([H:8])[H:9].[H:10][H:15]"
C       -2.24704195      -0.20660070      -0.27103177
C       -0.88073787       0.11663538      -0.32635260
C       -0.29671505       1.39373332      -0.44754223
N        1.02631228       1.21089977      -0.36928233
C        1.29857772      -0.10192632       0.05915098
N        2.65376919      -0.41833977       0.27999862
C        0.12701515      -0.76372226       0.23633279
H       -2.96971155       0.50361145      -0.67010186
H       -2.55537007      -1.20415448      -0.56966561
H       -2.02290332      -1.37169510       1.23480224
H       -0.74069735       2.37371722      -0.54950704
H        1.72624983       1.93261930      -0.42893998
H        2.75264124      -0.97534102       1.11653402
H        3.04933063      -0.93232933      -0.49537293
H       -0.92071889      -1.55710746       1.20097771
15
Frame=9 idx=010489 GeodesicLength=0.7453442923867197 rxn_smarts="[C:1]([c:2]1[c:3]([H:11])[n:4]([H:12])[c:5]([N:6]([H:13])[H:14])[c:7]1[H:15])([H:8])([H:9])[H:10]>>[C:1](=[C:2]1[C+:3]([H:11])[N:4]([H:12])[C:5]([N:6]([H:13])[H:14])=[C-:7]1)([H:8])[H:9].[H:10][H:15]"
C       -2.24675751      -0.20986461      -0.27491952
C       -0.87808932       0.11242734      -0.34604612
C       -0.29777322       1.39494909      -0.44263284
N        1.02465134       1.21342952      -0.36369880
C        1.29837791      -0.10253395       0.05522875
N        2.65572432      -0.42043451       0.26417563
C        0.12729242      -0.76689230       0.22910636
H       -2.96252583       0.48513853      -0.71238576
H       -2.55470922      -1.21082113      -0.56545585
H       -2.04506434      -1.34327138       1.24270941
H       -0.74444236       2.37769697      -0.49432687
H        1.72559568       1.93376230      -0.42691242
H        2.76695636      -0.94941710       1.11723497
H        3.03386671      -0.96311735      -0.50017331
H       -0.90310294      -1.55105140       1.21809638
15
Frame=10 idx=010489 GeodesicLength=0.8276970523042916 rxn_smarts="[C:1]([c:2]1[c:3]([H:11])[n:4]([H:12])[c:5]([N:6]([H:13])[H:14])[c:7]1[H:15])([H:8])([H:9])[H:10]>>[C:1](=[C:2]1[C+:3]([H:11])[N:4]([H:12])[C:5]([N:6]([H:13])[H:14])=[C-:7]1)([H:8])[H:9].[H:10][H:15]"
C       -2.24650630      -0.21266159      -0.27902582
C       -0.87560448       0.10901538      -0.36418143
C       -0.29890332       1.39641813      -0.43706071
N        1.02295242       1.21589996      -0.35808277
C        1.29812000      -0.10320836       0.05112183
N        2.65752053      -0.42254655       0.24826977
C        0.12745986      -0.76991664       0.22213272
H       -2.95498024       0.46618965      -0.75320499
H       -2.55365143      -1.21706205      -0.56153675
H       -2.06911050      -1.31340939       1.25029587
H       -0.74778901       2.37956672      -0.44087834
H        1.72487365       1.93487608      -0.42474419
H        2.78164830      -0.92305775       1.11665156
H        3.01845470      -0.99342685      -0.50367840
H       -0.88448416      -1.54667673       1.23392164
15
Frame=11 idx=010489 GeodesicLength=0.909903026246333 rxn_smarts="[C:1]([c:2]1[c:3]([H:11])[n:4]([H:12])[c:5]([N:6]([H:13])[H:14])[c:7]1[H:15])([H:8])([H:9])[H:10]>>[C:1](=[C:2]1[C+:3]([H:11])[N:4]([H:12])[C:5]([N:6]([H:13])[H:14])=[C-:7]1)([H:8])[H:9].[H:10][H:15]"
C       -2.24630086      -0.21507076      -0.28337475
C       -0.87325488       0.10625731      -0.38096032
C       -0.30011485       1.39806668      -0.43068322
N        1.02120622       1.21834092      -0.35220160
C        1.29782215      -0.10396528       0.04686671
N        2.65918887      -0.42470336       0.23220453
C        0.12755477      -0.77289324       0.21529343
H       -2.94703420       0.44669969      -0.79286680
H       -2.55228390      -1.22301234      -0.55756755
H       -2.09524640      -1.28150659       1.25780351
H       -0.75080244       2.37959162      -0.38959325
H        1.72402714       1.93606586      -0.42187958
H        2.79676354      -0.89641762       1.11463070
H        3.00313837      -1.02315462      -0.50606713
H       -0.86466352      -1.54429826       1.24839532
15
Frame=12 idx=010489 GeodesicLength=0.9920857011115005 rxn_smarts="[C:1]([c:2]1[c:3]([H:11])[n:4]([H:12])[c:5]([N:6]([H:13])[H:14])[c:7]1[H:15])([H:8])([H:9])[H:10]>>[C:1](=[C:2]1[C+:3]([H:11])[N:4]([H:12])[C:5]([N:6]([H:13])[H:14])=[C-:7]1)([H:8])[H:9].[H:10][H:15]"
C       -2.24614002      -0.21718460      -0.28808746
C       -0.87099961       0.10400999      -0.39661031
C       -0.30140810       1.39979636      -0.42356437
N        1.01940520       1.22075466      -0.34592549
C        1.29750374      -0.10481590       0.04249653
N        2.66076328      -0.42691761       0.21590120
C        0.12761410      -0.77589205       0.20851299
H       -2.93859404       0.42647106      -0.83190093
H       -2.55067772      -1.22887641      -0.55318612
H       -2.12375403      -1.24672820       1.26553386
H       -0.75361102       2.37802151      -0.34016030
H        1.72302037       1.93738679      -0.41800325
H        2.81236026      -0.86959331       1.11105096
H        2.98794794      -1.05224888      -0.50748932
H       -0.84343035      -1.54418342       1.26143201
15
Frame=13 idx=010489 GeodesicLength=1.074393069710631 rxn_smarts="[C:1]([c:2]1[c:3]([H:11])[n:4]([H:12])[c:5]([N:6]([H:13])[H:14])[c:7]1[H:15])([H:8])([H:9])[H:10]>>[C:1](=[C:2]1[C+:3]([H:11])[N:4]([H:12])[C:5]([N:6]([H:13])[H:14])=[C-:7]1)([H:8])[H:9].[H:10][H:15]"
C       -2.24604972      -0.21902665      -0.29318648
C       -0.86883722       0.10216652      -0.41130961
C       -0.30280112       1.40152267      -0.41566384
N        1.01753201       1.22309597      -0.33929655
C        1.29717864      -0.10579776       0.03790981
N        2.66225612      -0.42913081       0.19941756
C        0.12767494      -0.77903097       0.20154354
H       -2.92960733       0.40536306      -0.87057579
H       -2.54895692      -1.23471152      -0.54797570
H       -2.15487903      -1.20820962       1.27363043
H       -0.75626129       2.37504882      -0.29215836
H        1.72182818       1.93879990      -0.41318447
H        2.82835478      -0.84247952       1.10601536
H        2.97304588      -1.08065147      -0.50783730
H       -0.82047791      -1.54695861       1.27267139
15
Frame=14 idx=010489 GeodesicLength=1.1568534712465854 rxn_smarts="[C:1]([c:2]1[c:3]([H:11])[n:4]([H:12])[c:5]([N:6]([H:13])[H:14])[c:7]1[H:15])([H:8])([H:9])[H:10]>>[C:1](=[C:2]1[C+:3]([H:11])[N:4]([H:12])[C:5]([N:6]([H:13])[H:14])=[C-:7]1)([H:8])[H:9].[H:10][H:15]"
C       -2.24599640      -0.22068644      -0.29883547
C       -0.86670149       0.10060170      -0.42516970
C       -0.30431659       1.40316997      -0.40692624
N        1.01555690       1.22543782      -0.33188730
C        1.29686667      -0.10687353       0.03332610
N        2.66371990      -0.43137412       0.18256076
C        0.12777653      -0.78233528       0.19448644
H       -2.91987052       0.38290270      -0.90962568
H       -2.54714019      -1.24073147      -0.54138965
H       -2.18898126      -1.16460769       1.28239081
H       -0.75895630       2.37077762      -0.24576502
H        1.72038838       1.94044630      -0.40674289
H        2.84495542      -0.81536845       1.09918797
H        2.95835093      -1.10822701      -0.50754441
H       -0.79565196      -1.55313212       1.28193427
15
Frame=15 idx=010489 GeodesicLength=1.2395142760704019 rxn_smarts="[C:1]([c:2]1[c:3]([H:11])[n:4]([H:12])[c:5]([N:6]([H:13])[H:14])[c:7]1[H:15])([H:8])([H:9])[H:10]>>[C:1](=[C:2]1[C+:3]([H:11])[N:4]([H:12])[C:5]([N:6]([H:13])[H:14])=[C-:7]1)([H:8])[H:9].[H:10][H:15]"
C       -2.24598730      -0.22217925      -0.30507341
C       -0.86457365       0.09921328      -0.43831967
C       -0.30598858       1.40465171      -0.39730964
N        1.01344743       1.22776178      -0.32358860
C        1.29658366      -0.10805523       0.02874698
N        2.66517834      -0.43358397       0.16533313
C        0.12795984      -0.78589576       0.18719369
H       -2.90923936       0.35869354      -0.94942464
H       -2.54535322      -1.24698323      -0.53279061
H       -2.22634749      -1.11457308       1.29188059
H       -0.76181111       2.36529827      -0.20070843
H        1.71865338       1.94232686      -0.39854682
H        2.86216287      -0.78822019       1.09058014
H        2.94397736      -1.13488352      -0.50663712
H       -0.76866216      -1.56357120       1.28866440
15
Frame=16 idx=010489 GeodesicLength=1.3223758247342672 rxn_smarts="[C:1]([c:2]1[c:3]([H:11])[n:4]([H:12])[c:5]([N:6]([H:13])[H:14])[c:7]1[H:15])([H:8])([H:9])[H:10]>>[C:1](=[C:2]1[C+:3]([H:11])[N:4]([H:12])[C:5]([N:6]([H:13])[H:14])=[C-:7]1)([H:8])[H:9].[H:10][H:15]"
C       -2.24601753      -0.22352729      -0.31194279
C       -0.86242243       0.09789540      -0.45086196
C       -0.30786057       1.40587643      -0.38676453
N        1.01115940       1.23006125      -0.31420884
C        1.29634379      -0.10933815       0.02424892
N        2.66665961      -0.43569836       0.14770120
C        0.12826774      -0.78978235       0.17959552
H       -2.89751103       0.33216194      -0.99039531
H       -2.54372819      -1.25349465      -0.52140307
H       -2.26728287      -1.05648527       1.30204720
H       -0.76498207       2.35864921      -0.15678055
H        1.71655739       1.94446218      -0.38835275
H        2.88003315      -0.76103194       1.08013910
H        2.92999674      -1.16051602      -0.50522018
H       -0.73921313      -1.57923238       1.29219805
