10
Frame=0 idx=005916 GeodesicLength=0.0 rxn_smarts="[O:1]=[C:2]1[C:3]([H:7])([H:8])[O:4][C:5]([H:9])([H:10])[O:6]1>>[C:5](=[O:6])([H:9])[H:10].[O:1]=[C:2]([C:3](=[O:4])[H:7])[H:8]"
O        2.17540253      -0.84342549      -0.32355275
C        1.08599834      -0.38073885      -0.02108699
C        0.50290332       0.97723483      -0.24248300
O       -0.75628479       1.03731577      -0.25114010
C       -1.22173527      -0.42169684      -0.05463834
O       -0.18057528      -1.17187025      -0.40540324
H        1.05957673       1.90899029      -0.18807622
H        0.89653916      -0.14201947       1.14972729
H       -2.10051452      -0.54683791      -0.68404485
H       -1.46131023      -0.41695208       1.02069821
10
Frame=1 idx=005916 GeodesicLength=0.102735132073171 rxn_smarts="[O:1]=[C:2]1[C:3]([H:7])([H:8])[O:4][C:5]([H:9])([H:10])[O:6]1>>[C:5](=[O:6])([H:9])[H:10].[O:1]=[C:2]([C:3](=[O:4])[H:7])[H:8]"
O        2.18218050      -0.83600768      -0.32794641
C        1.09314858      -0.38268568      -0.01812482
C        0.50800382       0.97889968      -0.20923444
O       -0.75231463       1.04901687      -0.20682251
C       -1.23546371      -0.43150905      -0.05940896
O       -0.19062308      -1.17361326      -0.41018868
H        1.08014559       1.90238878      -0.24037179
H        0.91124528      -0.11747734       1.16184399
H       -2.10694142      -0.54753333      -0.70194865
H       -1.48938093      -0.44147900       1.01220226
10
Frame=2 idx=005916 GeodesicLength=0.20545889851052518 rxn_smarts="[O:1]=[C:2]1[C:3]([H:7])([H:8])[O:4][C:5]([H:9])([H:10])[O:6]1>>[C:5](=[O:6])([H:9])[H:10].[O:1]=[C:2]([C:3](=[O:4])[H:7])[H:8]"
O        2.18915438      -0.82816043      -0.33224670
C        1.10078187      -0.38419867      -0.01425035
C        0.51415342       0.98095121      -0.17475505
O       -0.74733711       1.06020457      -0.16036854
C       -1.24893352      -0.44045144      -0.06472928
O       -0.20044864      -1.17446006      -0.41551949
H        1.09553199       1.89162037      -0.29540472
H        0.92740690      -0.09366591       1.17507607
H       -2.11281805      -0.54666457      -0.72045991
H       -1.51749125      -0.46517507       1.00265797
10
Frame=3 idx=005916 GeodesicLength=0.3080488914493002 rxn_smarts="[O:1]=[C:2]1[C:3]([H:7])([H:8])[O:4][C:5]([H:9])([H:10])[O:6]1>>[C:5](=[O:6])([H:9])[H:10].[O:1]=[C:2]([C:3](=[O:4])[H:7])[H:8]"
O        2.19623162      -0.82020634      -0.33653551
C        1.10888407      -0.38538997      -0.00974733
C        0.52148521       0.98312064      -0.14039680
O       -0.74114532       1.07060913      -0.11204731
C       -1.26206727      -0.44846694      -0.07059678
O       -0.21008142      -1.17460943      -0.42109020
H        1.10505496       1.87646429      -0.35114068
H        0.94515067      -0.06967400       1.18898343
H       -2.11795996      -0.54432518      -0.73953472
H       -1.54555256      -0.48752221       0.99210590
10
Frame=4 idx=005916 GeodesicLength=0.4105173304782876 rxn_smarts="[O:1]=[C:2]1[C:3]([H:7])([H:8])[O:4][C:5]([H:9])([H:10])[O:6]1>>[C:5](=[O:6])([H:9])[H:10].[O:1]=[C:2]([C:3](=[O:4])[H:7])[H:8]"
O        2.20337592      -0.81266320      -0.34110101
C        1.11744653      -0.38658515      -0.00509097
C        0.52983518       0.98500320      -0.10837148
O       -0.73385803       1.07995826      -0.06364256
C       -1.27502175      -0.45570903      -0.07695728
O       -0.21978001      -1.17472143      -0.42615353
H        1.10922557       1.85801455      -0.40328135
H        0.96496362      -0.04437254       1.20264233
H       -2.12283658      -0.54140436      -0.75871741
H       -1.57335047      -0.50752031       0.98067325
10
Frame=5 idx=005916 GeodesicLength=0.5130787729447654 rxn_smarts="[O:1]=[C:2]1[C:3]([H:7])([H:8])[O:4][C:5]([H:9])([H:10])[O:6]1>>[C:5](=[O:6])([H:9])[H:10].[O:1]=[C:2]([C:3](=[O:4])[H:7])[H:8]"
O        2.21045762      -0.80563178      -0.34614912
C        1.12638079      -0.38792042      -0.00032680
C        0.53908806       0.98647366      -0.07888211
O       -0.72543493       1.08809565      -0.01507835
C       -1.28789212      -0.46233080      -0.08379581
O       -0.22963520      -1.17507957      -0.43053386
H        1.10872881       1.83715248      -0.45141052
H        0.98682787      -0.01742444       1.21589363
H       -2.12733484      -0.53821642      -0.77818906
H       -1.60118606      -0.52511837       0.96847201
10
Frame=6 idx=005916 GeodesicLength=0.6157694814537001 rxn_smarts="[O:1]=[C:2]1[C:3]([H:7])([H:8])[O:4][C:5]([H:9])([H:10])[O:6]1>>[C:5](=[O:6])([H:9])[H:10].[O:1]=[C:2]([C:3](=[O:4])[H:7])[H:8]"
O        2.21742283      -0.79908550      -0.35182190
C        1.13565711      -0.38950496       0.00457200
C        0.54903582       0.98745935      -0.05188396
O       -0.71599604       1.09494859       0.03331743
C       -1.30082501      -0.46846651      -0.09111804
O       -0.23976690      -1.17588872      -0.43399657
H        1.10439594       1.81471851      -0.49515505
H        1.01093500       0.01121725       1.22856296
H       -2.13161344      -0.53512888      -0.79799488
H       -1.62924530      -0.54026913       0.95551800
10
Frame=7 idx=005916 GeodesicLength=0.7187024614478579 rxn_smarts="[O:1]=[C:2]1[C:3]([H:7])([H:8])[O:4][C:5]([H:9])([H:10])[O:6]1>>[C:5](=[O:6])([H:9])[H:10].[O:1]=[C:2]([C:3](=[O:4])[H:7])[H:8]"
O        2.22431189      -0.79293506      -0.35816517
C        1.14530803      -0.39138592       0.00972595
C        0.55954644       0.98799094      -0.02694631
O       -0.70564010       1.10049069       0.08163405
C       -1.31396059      -0.47419456      -0.09894987
O       -0.25022730      -1.17723540      -0.43642504
H        1.09675517       1.79122566      -0.53496605
H        1.03746511       0.04140912       1.24062196
H       -2.13575899      -0.53228067      -0.81829754
H       -1.65779967      -0.55308481       0.94176801
10
Frame=8 idx=005916 GeodesicLength=0.8218212525690225 rxn_smarts="[O:1]=[C:2]1[C:3]([H:7])([H:8])[O:4][C:5]([H:9])([H:10])[O:6]1>>[C:5](=[O:6])([H:9])[H:10].[O:1]=[C:2]([C:3](=[O:4])[H:7])[H:8]"
O        2.23083409      -0.78708523      -0.36544990
C        1.15516617      -0.39355460       0.01510394
C        0.57042577       0.98803371      -0.00370819
O       -0.69436939       1.10470614       0.12983704
C       -1.32722997      -0.47960042      -0.10729722
O       -0.26103587      -1.17921165      -0.43781017
H        1.08646110       1.76691575      -0.57083394
H        1.06618044       0.07329057       1.25198451
H       -2.13950737      -0.53003716      -0.83914194
H       -1.68692496      -0.56345712       0.92731588
10
Frame=9 idx=005916 GeodesicLength=0.9254251024136962 rxn_smarts="[O:1]=[C:2]1[C:3]([H:7])([H:8])[O:4][C:5]([H:9])([H:10])[O:6]1>>[C:5](=[O:6])([H:9])[H:10].[O:1]=[C:2]([C:3](=[O:4])[H:7])[H:8]"
O        2.23726415      -0.78138440      -0.37343427
C        1.16546298      -0.39600246       0.02095953
C        0.58172542       0.98767662       0.01824605
O       -0.68224715       1.10747874       0.17825224
C       -1.34092360      -0.48470138      -0.11623987
O       -0.27232775      -1.18179199      -0.43794690
H        1.07350162       1.74207023      -0.60361074
H        1.09773366       0.10654075       1.26268440
H       -2.14324581      -0.52825030      -0.86087227
H       -1.71694353      -0.57163579       0.91196182
10
Frame=10 idx=005916 GeodesicLength=1.0276899275189164 rxn_smarts="[O:1]=[C:2]1[C:3]([H:7])([H:8])[O:4][C:5]([H:9])([H:10])[O:6]1>>[C:5](=[O:6])([H:9])[H:10].[O:1]=[C:2]([C:3](=[O:4])[H:7])[H:8]"
O        2.24285725      -0.77619753      -0.38332740
C        1.17571014      -0.39890966       0.02623652
C        0.59265350       0.98656795       0.03792677
O       -0.66989537       1.10909668       0.22398463
C       -1.35483134      -0.48989550      -0.12543723
O       -0.28402168      -1.18574509      -0.43606567
H        1.06111852       1.71900114      -0.62852711
H        1.13066122       0.14139980       1.27124554
H       -2.14681289      -0.52947491      -0.88221590
H       -1.74743934      -0.57584288       0.89617986
10
Frame=11 idx=005916 GeodesicLength=1.1295786988726668 rxn_smarts="[O:1]=[C:2]1[C:3]([H:7])([H:8])[O:4][C:5]([H:9])([H:10])[O:6]1>>[C:5](=[O:6])([H:9])[H:10].[O:1]=[C:2]([C:3](=[O:4])[H:7])[H:8]"
O        2.24827474      -0.77084322      -0.39309514
C        1.18650849      -0.40192747       0.03289817
C        0.60389917       0.98507341       0.05803352
O       -0.65640532       1.10885012       0.27287480
C       -1.36877886      -0.49427802      -0.13550164
O       -0.29580841      -1.18946634      -0.43327207
H        1.04349150       1.69299578      -0.65455289
H        1.16703884       0.17759796       1.27933657
H       -2.14927564      -0.52918155      -0.90537162
H       -1.77894451      -0.57882066       0.87865029
10
Frame=12 idx=005916 GeodesicLength=1.2321242128694472 rxn_smarts="[O:1]=[C:2]1[C:3]([H:7])([H:8])[O:4][C:5]([H:9])([H:10])[O:6]1>>[C:5](=[O:6])([H:9])[H:10].[O:1]=[C:2]([C:3](=[O:4])[H:7])[H:8]"
O        2.25319052      -0.76559094      -0.40397164
C        1.19763512      -0.40521064       0.03997237
C        0.61527680       0.98324901       0.07757370
O       -0.64211103       1.10707388       0.32232481
C       -1.38308660      -0.49848971      -0.14620874
O       -0.30814007      -1.19408469      -0.42888505
H        1.02410956       1.66691924      -0.67744690
H        1.20598482       0.21540064       1.28615501
H       -2.15121616      -0.53006963      -0.92962622
H       -1.81164297      -0.57919717       0.86011266
10
Frame=13 idx=005916 GeodesicLength=1.3348564891154466 rxn_smarts="[O:1]=[C:2]1[C:3]([H:7])([H:8])[O:4][C:5]([H:9])([H:10])[O:6]1>>[C:5](=[O:6])([H:9])[H:10].[O:1]=[C:2]([C:3](=[O:4])[H:7])[H:8]"
O        2.25749273      -0.76037417      -0.41588945
C        1.20911271      -0.40873155       0.04749909
C        0.62666586       0.98103846       0.09677056
O       -0.62703254       1.10361446       0.37247681
C       -1.39768452      -0.50247880      -0.15760208
O       -0.32101229      -1.19953683      -0.42270778
H        1.00286992       1.64070926      -0.69723986
H        1.24752732       0.25473577       1.29136574
H       -2.15250454      -0.53220936      -0.95501328
H       -1.84543466      -0.57676725       0.84034027
10
Frame=14 idx=005916 GeodesicLength=1.437628901823679 rxn_smarts="[O:1]=[C:2]1[C:3]([H:7])([H:8])[O:4][C:5]([H:9])([H:10])[O:6]1>>[C:5](=[O:6])([H:9])[H:10].[O:1]=[C:2]([C:3](=[O:4])[H:7])[H:8]"
O        2.26109569      -0.75515322      -0.42885985
C        1.22096304      -0.41246179       0.05545752
C        0.63799426       0.97842603       0.11583474
O       -0.61115600       1.09833613       0.42352171
C       -1.41250819      -0.50623017      -0.16971292
O       -0.33443847      -1.20581250      -0.41458896
H        0.97977576       1.61435462      -0.71392104
H        1.29153003       0.29558913       1.29465618
H       -2.15297795      -0.53575741      -0.98155701
H       -1.88027818      -0.57129081       0.81916962
10
Frame=15 idx=005916 GeodesicLength=1.5404017721489658 rxn_smarts="[O:1]=[C:2]1[C:3]([H:7])([H:8])[O:4][C:5]([H:9])([H:10])[O:6]1>>[C:5](=[O:6])([H:9])[H:10].[O:1]=[C:2]([C:3](=[O:4])[H:7])[H:8]"
O        2.26393100      -0.74987694      -0.44286436
C        1.23320877      -0.41636550       0.06380458
C        0.64921936       0.97540964       0.13494777
O       -0.59446344       1.09112215       0.47556164
C       -1.42750596      -0.50975473      -0.18257170
O       -0.34846933      -1.21288036      -0.40445655
H        0.95493905       1.58790264      -0.72740852
H        1.33775722       0.33791162       1.29572933
H       -2.15257433      -0.54095326      -1.00920614
H       -1.91604235      -0.56251526       0.79646396
10
Frame=16 idx=005916 GeodesicLength=1.6431635076073303 rxn_smarts="[O:1]=[C:2]1[C:3]([H:7])([H:8])[O:4][C:5]([H:9])([H:10])[O:6]1>>[C:5](=[O:6])([H:9])[H:10].[O:1]=[C:2]([C:3](=[O:4])[H:7])[H:8]"
O        2.26593676      -0.74449888      -0.45785329
C        1.24586253      -0.42041086       0.07247608
C        0.66031307       0.97199340       0.15427305
O       -0.57692215       1.08186988       0.52865239
C       -1.44261132      -0.51307536      -0.19620701
O       -0.36316189      -1.22067797      -0.39232974
H        0.92851253       1.56142385      -0.73760436
H        1.38584521       0.38162421       1.29432349
H       -2.15128911      -0.54807368      -1.03783742
H       -1.95248563      -0.55017461       0.77210682
