11
Frame=0 idx=002416 GeodesicLength=0.0 rxn_smarts="[C:1]1([H:6])([H:7])[C@@:2]2([H:8])[C:3]([H:9])([H:10])[O:4][C@@:5]12[H:11]>>[C:1]1([H:6])=[C:5]([H:11])[O:4][C:3]([H:9])([H:10])[C:2]1([H:7])[H:8]"
C       -1.35681031      -0.42785391      -0.58292778
C       -0.01731017      -0.22326297       0.64357664
C        1.28160182      -0.18244273      -0.15738930
O        0.73838483       0.72046027      -1.12711727
C       -0.50884032       0.74110111      -0.43067959
H       -2.22464516      -0.25631432       0.07211988
H       -0.58423212      -1.22542937       0.28981853
H       -0.13786960      -0.02233625       1.69845291
H        1.60303908      -1.12613046      -0.60298306
H        2.10313629       0.27449775       0.39866673
H       -0.89645430       1.72771083      -0.20153771
11
Frame=1 idx=002416 GeodesicLength=0.08569573358249655 rxn_smarts="[C:1]1([H:6])([H:7])[C@@:2]2([H:8])[C:3]([H:9])([H:10])[O:4][C@@:5]12[H:11]>>[C:1]1([H:6])=[C:5]([H:11])[O:4][C:3]([H:9])([H:10])[C:2]1([H:7])[H:8]"
C       -1.34849638      -0.42048368      -0.56301809
C       -0.02048831      -0.23140209       0.64352561
C        1.27937120      -0.18172481      -0.15508198
O        0.73790289       0.72064419      -1.12724388
C       -0.50946537       0.75274526      -0.43682729
H       -2.22570936      -0.25277247       0.07815894
H       -0.58193405      -1.25107537       0.28449978
H       -0.13766478      -0.03178886       1.69931168
H        1.60449155      -1.12287796      -0.60350774
H        2.09929617       0.27648706       0.40203044
H       -0.89730356       1.74224874      -0.22184746
11
Frame=2 idx=002416 GeodesicLength=0.17138220688029132 rxn_smarts="[C:1]1([H:6])([H:7])[C@@:2]2([H:8])[C:3]([H:9])([H:10])[O:4][C@@:5]12[H:11]>>[C:1]1([H:6])=[C:5]([H:11])[O:4][C:3]([H:9])([H:10])[C:2]1([H:7])[H:8]"
C       -1.33999004      -0.41289707      -0.54281761
C       -0.02335847      -0.23965052       0.64386023
C        1.27714262      -0.18104378      -0.15271149
O        0.73738316       0.72104446      -1.12703345
C       -0.51013245       0.76432277      -0.44284452
H       -2.22662126      -0.24938827       0.08408065
H       -0.58013121      -1.27634373       0.27860275
H       -0.13711968      -0.04124623       1.70051826
H        1.60579210      -1.11961530      -0.60411314
H        2.09561150       0.27828619       0.40534941
H       -0.89857628       1.75653149      -0.24289108
11
Frame=3 idx=002416 GeodesicLength=0.25706561458025035 rxn_smarts="[C:1]1([H:6])([H:7])[C@@:2]2([H:8])[C:3]([H:9])([H:10])[O:4][C@@:5]12[H:11]>>[C:1]1([H:6])=[C:5]([H:11])[O:4][C:3]([H:9])([H:10])[C:2]1([H:7])[H:8]"
C       -1.33130512      -0.40507021      -0.52231869
C       -0.02590406      -0.24800752       0.64460751
C        1.27493155      -0.18039940      -0.15026966
O        0.73683590       0.72166909      -1.12647222
C       -0.51084582       0.77583499      -0.44871818
H       -2.22737489      -0.24618097       0.08990667
H       -0.57887236      -1.30121318       0.27205860
H       -0.13622039      -0.05071241       1.70210142
H        1.60694559      -1.11635045      -0.60479759
H        2.09210934       0.27989575       0.40862601
H       -0.90029975       1.77053432      -0.26472387
11
Frame=4 idx=002416 GeodesicLength=0.34274318571408846 rxn_smarts="[C:1]1([H:6])([H:7])[C@@:2]2([H:8])[C:3]([H:9])([H:10])[O:4][C@@:5]12[H:11]>>[C:1]1([H:6])=[C:5]([H:11])[O:4][C:3]([H:9])([H:10])[C:2]1([H:7])[H:8]"
C       -1.32244013      -0.39697444      -0.50150773
C       -0.02810886      -0.25647502       0.64579082
C        1.27274089      -0.17978947      -0.14774613
O        0.73626265       0.72252402      -1.12554454
C       -0.51160556       0.78728070      -0.45443652
H       -2.22794227      -0.24316256       0.09565601
H       -0.57820339      -1.32565109       0.26479955
H       -0.13494533      -0.06019827       1.70408506
H        1.60794201      -1.11307856      -0.60555628
H        2.08879635       0.28131204       0.41186562
H       -0.90249636       1.78421266      -0.28740586
11
Frame=5 idx=002416 GeodesicLength=0.4284231012064497 rxn_smarts="[C:1]1([H:6])([H:7])[C@@:2]2([H:8])[C:3]([H:9])([H:10])[O:4][C@@:5]12[H:11]>>[C:1]1([H:6])=[C:5]([H:11])[O:4][C:3]([H:9])([H:10])[C:2]1([H:7])[H:8]"
C       -1.31340545      -0.38857895      -0.48035510
C       -0.02996179      -0.26506251       0.64743052
C        1.27057662      -0.17920949      -0.14512625
O        0.73566421       0.72361136      -1.12423516
C       -0.51241271       0.79866188      -0.45998482
H       -2.22830521      -0.24033353       0.10136933
H       -0.57816345      -1.34963417       0.25673257
H       -0.13327246      -0.06972952       1.70649202
H        1.60878307      -1.10979373      -0.60638086
H        2.08567889       0.28254193       0.41508240
H       -0.90518172       1.79752672      -0.31102464
11
Frame=6 idx=002416 GeodesicLength=0.5141023522125129 rxn_smarts="[C:1]1([H:6])([H:7])[C@@:2]2([H:8])[C:3]([H:9])([H:10])[O:4][C@@:5]12[H:11]>>[C:1]1([H:6])=[C:5]([H:11])[O:4][C:3]([H:9])([H:10])[C:2]1([H:7])[H:8]"
C       -1.30420214      -0.37985743      -0.45883497
C       -0.03144967      -0.27377610       0.64954734
C        1.26844886      -0.17865761      -0.14239925
O        0.73504795       0.72493930      -1.12252679
C       -0.51326899       0.80998423      -0.46534806
H       -2.22844912      -0.23770061       0.10706777
H       -0.57880639      -1.37312619       0.24778095
H       -0.13117758      -0.07931860       1.70934768
H        1.60946962      -1.10649440      -0.60727073
H        2.08277387       0.28358381       0.41828665
H       -0.90838639       1.81042362      -0.33565058
11
Frame=7 idx=002416 GeodesicLength=0.5997808627617411 rxn_smarts="[C:1]1([H:6])([H:7])[C@@:2]2([H:8])[C:3]([H:9])([H:10])[O:4][C@@:5]12[H:11]>>[C:1]1([H:6])=[C:5]([H:11])[O:4][C:3]([H:9])([H:10])[C:2]1([H:7])[H:8]"
C       -1.29482500      -0.37078231      -0.43691175
C       -0.03256093      -0.28262528       0.65215888
C        1.26636231      -0.17813048      -0.13955274
O        0.73441680       0.72651487      -1.12040131
C       -0.51417465       0.82125324      -0.47051180
H       -2.22835311      -0.23526612       0.11277358
H       -0.58018403      -1.39608395       0.23786270
H       -0.12863510      -0.08898364       1.71267145
H        1.60999866      -1.10317467      -0.60822078
H        2.08008751       0.28443900       0.42148873
H       -0.91213246       1.82283935      -0.36135696
11
Frame=8 idx=002416 GeodesicLength=0.6854591283549716 rxn_smarts="[C:1]1([H:6])([H:7])[C@@:2]2([H:8])[C:3]([H:9])([H:10])[O:4][C@@:5]12[H:11]>>[C:1]1([H:6])=[C:5]([H:11])[O:4][C:3]([H:9])([H:10])[C:2]1([H:7])[H:8]"
C       -1.28526934      -0.36132425      -0.41454365
C       -0.03328466      -0.29162203       0.65528259
C        1.26432373      -0.17762495      -0.13657319
O        0.73377597       0.72834970      -1.11783632
C       -0.51513047       0.83247777      -0.47545857
H       -2.22799734      -0.23303241       0.11850904
H       -0.58235346      -1.41845630       0.22689036
H       -0.12561392      -0.09874343       1.71648362
H        1.61036802      -1.09982864      -0.60922839
H        2.07763100       0.28510485       0.42470250
H       -0.91644953       1.83469969      -0.38822799
11
Frame=9 idx=002416 GeodesicLength=0.7711351993955763 rxn_smarts="[C:1]1([H:6])([H:7])[C@@:2]2([H:8])[C:3]([H:9])([H:10])[O:4][C@@:5]12[H:11]>>[C:1]1([H:6])=[C:5]([H:11])[O:4][C:3]([H:9])([H:10])[C:2]1([H:7])[H:8]"
C       -1.27552454      -0.35145413      -0.39168262
C       -0.03360998      -0.30077968       0.65893479
C        1.26233851      -0.17713734      -0.13344714
O        0.73313018       0.73045611      -1.11480772
C       -0.51613730       0.84366603      -0.48017042
H       -2.22736134      -0.23100156       0.12429016
H       -0.58537717      -1.44017833       0.21477643
H       -0.12208108      -0.10861690       1.72080334
H        1.61057392      -1.09644777      -0.61029260
H        2.07541277       0.28557887       0.42794122
H       -0.92136398       1.84591471      -0.41634543
11
Frame=10 idx=002416 GeodesicLength=0.8568092709184774 rxn_smarts="[C:1]1([H:6])([H:7])[C@@:2]2([H:8])[C:3]([H:9])([H:10])[O:4][C@@:5]12[H:11]>>[C:1]1([H:6])=[C:5]([H:11])[O:4][C:3]([H:9])([H:10])[C:2]1([H:7])[H:8]"
C       -1.26557823      -0.34113862      -0.36827328
C       -0.03352482      -0.31011374       0.66313261
C        1.26041368      -0.17666462      -0.13015962
O        0.73248611       0.73285462      -1.11128282
C       -0.51719608       0.85483121      -0.48462260
H       -2.22642295      -0.22917492       0.13013029
H       -0.58932439      -1.46117197       0.20142930
H       -0.11799532      -0.11862810       1.72565151
H        1.61061041      -1.09302362      -0.61141659
H        2.07344666       0.28585172       0.43122157
H       -0.92691507       1.85637804      -0.44581038
11
Frame=11 idx=002416 GeodesicLength=0.942480451578911 rxn_smarts="[C:1]1([H:6])([H:7])[C@@:2]2([H:8])[C:3]([H:9])([H:10])[O:4][C@@:5]12[H:11]>>[C:1]1([H:6])=[C:5]([H:11])[O:4][C:3]([H:9])([H:10])[C:2]1([H:7])[H:8]"
C       -1.25541335      -0.33034190      -0.34425233
C       -0.03301673      -0.31964143       0.66789279
C        1.25855546      -0.17620303      -0.12669529
O        0.73185037       0.73556882      -1.10722523
C       -0.51830787       0.86598746      -0.48878764
H       -2.22515772      -0.22755436       0.13603666
H       -0.59427196      -1.48134023       0.18675567
H       -0.11331187      -0.12880496       1.73104905
H        1.61046925      -1.08954463      -0.61260587
H        2.07174551       0.28591280       0.43456044
H       -0.93314110       1.86596145      -0.47672826
11
Frame=12 idx=002416 GeodesicLength=1.0281477089235218 rxn_smarts="[C:1]1([H:6])([H:7])[C@@:2]2([H:8])[C:3]([H:9])([H:10])[O:4][C@@:5]12[H:11]>>[C:1]1([H:6])=[C:5]([H:11])[O:4][C:3]([H:9])([H:10])[C:2]1([H:7])[H:8]"
C       -1.24500940      -0.31902423      -0.31954822
C       -0.03207235      -0.32938153       0.67323201
C        1.25677025      -0.17574836      -0.12303807
O        0.73122981       0.73862763      -1.10259252
C       -0.51947451       0.87715171      -0.49263361
H       -2.22353840      -0.22614254       0.14200901
H       -0.60030587      -1.50056490       0.17066035
H       -0.10797999      -0.13918028       1.73701732
H        1.61013962      -1.08599706      -0.61386922
H        2.07032402       0.28574849       0.43797574
H       -0.94008317       1.87451106      -0.50921278
11
Frame=13 idx=002416 GeodesicLength=1.113810010311865 rxn_smarts="[C:1]1([H:6])([H:7])[C@@:2]2([H:8])[C:3]([H:9])([H:10])[O:4][C@@:5]12[H:11]>>[C:1]1([H:6])=[C:5]([H:11])[O:4][C:3]([H:9])([H:10])[C:2]1([H:7])[H:8]"
C       -1.23434149      -0.30714125      -0.29408103
C       -0.03067763      -0.33935348       0.67916702
C        1.25506435      -0.17529597      -0.11917158
O        0.73063229       0.74206723      -1.09733516
C       -0.52069882       0.88834430      -0.49612409
H       -2.22153311      -0.22494455       0.14803656
H       -0.60752267      -1.51870243       0.15304836
H       -0.10194309      -0.14979131       1.74357813
H        1.60960652      -1.08236481      -0.61521994
H        2.06919891       0.28534051       0.44148596
H       -0.94778526       1.88184176      -0.54338425
11
Frame=14 idx=002416 GeodesicLength=1.1994653279963037 rxn_smarts="[C:1]1([H:6])([H:7])[C@@:2]2([H:8])[C:3]([H:9])([H:10])[O:4][C@@:5]12[H:11]>>[C:1]1([H:6])=[C:5]([H:11])[O:4][C:3]([H:9])([H:10])[C:2]1([H:7])[H:8]"
C       -1.22338071      -0.29464370      -0.26776134
C       -0.02881793      -0.34957711       0.68571380
C        1.25344352      -0.17483996      -0.11507907
O        0.73006531       0.74593001      -1.09139676
C       -0.52198568       0.89958793      -0.49921913
H       -2.21910533      -0.22396753       0.15409484
H       -0.61603077      -1.53557926       0.13382621
H       -0.09513807      -0.16068165       1.75075311
H        1.60885060      -1.07862790      -0.61667542
H        2.06838832       0.28466814       0.44510948
H       -0.95628926       1.88773104      -0.57936573
11
Frame=15 idx=002416 GeodesicLength=1.2851115452280504 rxn_smarts="[C:1]1([H:6])([H:7])[C@@:2]2([H:8])[C:3]([H:9])([H:10])[O:4][C@@:5]12[H:11]>>[C:1]1([H:6])=[C:5]([H:11])[O:4][C:3]([H:9])([H:10])[C:2]1([H:7])[H:8]"
C       -1.21209365      -0.28147753      -0.24049119
C       -0.02647896      -0.36007071       0.69288730
C        1.25191248      -0.17437316      -0.11074432
O        0.72953669       0.75026635      -1.08471440
C       -0.52334336       0.91090758      -0.50187848
H       -2.21621093      -0.22322340       0.16014065
H       -0.62595137      -1.55098768       0.11290615
H       -0.08749618      -0.17189898       1.75856323
H        1.60784648      -1.07476319      -0.61825807
H        2.06791165       0.28370715       0.44886369
H       -0.96563285       1.89191360      -0.61727456
11
Frame=16 idx=002416 GeodesicLength=1.3707459471022165 rxn_smarts="[C:1]1([H:6])([H:7])[C@@:2]2([H:8])[C:3]([H:9])([H:10])[O:4][C@@:5]12[H:11]>>[C:1]1([H:6])=[C:5]([H:11])[O:4][C:3]([H:9])([H:10])[C:2]1([H:7])[H:8]"
C       -1.20044281      -0.26758433      -0.21216413
C       -0.02364776      -0.37084968       0.70070016
C        1.25047406      -0.17388632      -0.10615209
O        0.72905393       0.75513417      -1.07721909
C       -0.52478535       0.92232816      -0.50406529
H       -2.21279610      -0.22272934       0.16610690
H       -0.63741917      -1.56468093       0.09021031
H       -0.07894337      -0.18349535       1.76702740
H        1.60656164      -1.07074318      -0.61999516
H        2.06778862       0.28243133       0.45276389
H       -0.97584368       1.89407546      -0.65721289
