16
Frame=0 idx=009859 GeodesicLength=0.0 rxn_smarts="[O:1]([C@@:2]1([H:9])[C:3]([H:10])([H:11])[C@:4]2([C:5]([H:12])([H:13])[N:6]2[H:14])[C:7]1([H:15])[H:16])[H:8]>>[H:8][H:16].[O:1]=[C:2]([C@@:7]1([H:15])[C:3]([H:10])([H:11])[C@:4]12[C:5]([H:12])([H:13])[N:6]2[H:14])[H:9]"
O       -1.71817241      -0.31673387       1.39885153
C       -1.52548674      -0.71945050       0.19394410
C       -0.91983544       0.59469007      -0.87032830
C        0.45326843       0.39571145      -0.28859631
C        1.82249409       0.84084753      -0.54330600
N        1.08855283       1.25619828       0.65855106
C       -0.12008816      -0.95005372      -0.13918032
H       -0.56816985      -1.00209060       1.87464242
H       -2.26873137      -1.35903553      -0.29733047
H       -1.48660430       1.40993808      -0.43902759
H       -1.03178524       0.46737299      -1.94080324
H        2.01995850       1.63359863      -1.25453053
H        2.60944315       0.09994503      -0.44270982
H        1.36719625       0.72992418       1.48007640
H        0.11927011      -1.65761754      -0.93613450
H        0.15869021      -1.42324441       1.54588162
16
Frame=1 idx=009859 GeodesicLength=0.05915343154156749 rxn_smarts="[O:1]([C@@:2]1([H:9])[C:3]([H:10])([H:11])[C@:4]2([C:5]([H:12])([H:13])[N:6]2[H:14])[C:7]1([H:15])[H:16])[H:8]>>[H:8][H:16].[O:1]=[C:2]([C@@:7]1([H:15])[C:3]([H:10])([H:11])[C@:4]12[C:5]([H:12])([H:13])[N:6]2[H:14])[H:9]"
O       -1.72492678      -0.32313776       1.40282819
C       -1.53131201      -0.71955373       0.19470204
C       -0.91765532       0.59651452      -0.87377946
C        0.45311698       0.39882793      -0.29031992
C        1.82351044       0.84091209      -0.54326826
N        1.08875204       1.25913830       0.65751504
C       -0.12317984      -0.94760271      -0.14237507
H       -0.56986223      -1.00675340       1.88805623
H       -2.27157687      -1.36848721      -0.28893271
H       -1.48402646       1.41390506      -0.44512591
H       -1.02573065       0.47591380      -1.94561414
H        2.02319606       1.63263259      -1.25509121
H        2.60943950       0.09927210      -0.44018431
H        1.36788857       0.73352479       1.47918038
H        0.11606295      -1.65932575      -0.93490784
H        0.16630363      -1.42578063       1.53731694
16
Frame=2 idx=009859 GeodesicLength=0.11830430978953688 rxn_smarts="[O:1]([C@@:2]1([H:9])[C:3]([H:10])([H:11])[C@:4]2([C:5]([H:12])([H:13])[N:6]2[H:14])[C:7]1([H:15])[H:16])[H:8]>>[H:8][H:16].[O:1]=[C:2]([C@@:7]1([H:15])[C:3]([H:10])([H:11])[C@:4]12[C:5]([H:12])([H:13])[N:6]2[H:14])[H:9]"
O       -1.73166850      -0.32962255       1.40681180
C       -1.53719047      -0.71962604       0.19544657
C       -0.91547144       0.59837333      -0.87729069
C        0.45296015       0.40196183      -0.29208282
C        1.82452771       0.84096594      -0.54322808
N        1.08893797       1.26207990       0.65646024
C       -0.12632109      -0.94511825      -0.14561666
H       -0.57158293      -1.01143781       1.90168982
H       -2.27426693      -1.37805635      -0.28037000
H       -1.48142869       1.41790862      -0.45129166
H       -1.01960910       0.48454979      -1.95044293
H        2.02646601       1.63164813      -1.25564011
H        2.60940992       0.09857248      -0.43764239
H        1.36853230       0.73712042       1.47827269
H        0.11280730      -1.66100283      -0.93368321
H        0.17389778      -1.42831662       1.52860743
16
Frame=3 idx=009859 GeodesicLength=0.17745232615974083 rxn_smarts="[O:1]([C@@:2]1([H:9])[C:3]([H:10])([H:11])[C@:4]2([C:5]([H:12])([H:13])[N:6]2[H:14])[C:7]1([H:15])[H:16])[H:8]>>[H:8][H:16].[O:1]=[C:2]([C@@:7]1([H:15])[C:3]([H:10])([H:11])[C@:4]12[C:5]([H:12])([H:13])[N:6]2[H:14])[H:9]"
O       -1.73839800      -0.33618652       1.41080017
C       -1.54312290      -0.71967010       0.19617813
C       -0.91328386       0.60026537      -0.88086336
C        0.45279729       0.40511233      -0.29388519
C        1.82554464       0.84100944      -0.54318496
N        1.08910949       1.26502085       0.65538801
C       -0.12951259      -0.94260097      -0.14890553
H       -0.57333767      -1.01612976       1.91555756
H       -2.27679549      -1.38773674      -0.27164422
H       -1.47881114       1.42194762      -0.45752647
H       -1.01342030       0.49327878      -1.95528927
H        2.02976663       1.63064705      -1.25617500
H        2.60935319       0.09784661      -0.43508539
H        1.36912733       0.74070754       1.47735360
H        0.10950276      -1.66264817      -0.93246148
H        0.18148062      -1.43086333       1.51974341
16
Frame=4 idx=009859 GeodesicLength=0.23660086137281394 rxn_smarts="[O:1]([C@@:2]1([H:9])[C:3]([H:10])([H:11])[C@:4]2([C:5]([H:12])([H:13])[N:6]2[H:14])[C:7]1([H:15])[H:16])[H:8]>>[H:8][H:16].[O:1]=[C:2]([C@@:7]1([H:15])[C:3]([H:10])([H:11])[C@:4]12[C:5]([H:12])([H:13])[N:6]2[H:14])[H:9]"
O       -1.74511630      -0.34282770       1.41479194
C       -1.54911022      -0.71968891       0.19689731
C       -0.91109335       0.60218974      -0.88449930
C        0.45262772       0.40827863      -0.29572729
C        1.82656030       0.84104285      -0.54313862
N        1.08926529       1.26795885       0.65430042
C       -0.13275449      -0.94005183      -0.15224250
H       -0.57513251      -1.02081394       1.92967666
H       -2.27915683      -1.39752157      -0.26275846
H       -1.47617538       1.42602135      -0.46383202
H       -1.00716460       0.50209891      -1.96015407
H        2.03309625       1.62963128      -1.25669422
H        2.60926914       0.09709451      -0.43251484
H        1.36967369       0.74428218       1.47642453
H        0.10614991      -1.66426152      -0.93124455
H        0.18906138      -1.43343283       1.51071503
16
Frame=5 idx=009859 GeodesicLength=0.29573619728114475 rxn_smarts="[O:1]([C@@:2]1([H:9])[C:3]([H:10])([H:11])[C@:4]2([C:5]([H:12])([H:13])[N:6]2[H:14])[C:7]1([H:15])[H:16])[H:8]>>[H:8][H:16].[O:1]=[C:2]([C@@:7]1([H:15])[C:3]([H:10])([H:11])[C@:4]12[C:5]([H:12])([H:13])[N:6]2[H:14])[H:9]"
O       -1.75182203      -0.34954520       1.41878202
C       -1.55515183      -0.71968670       0.19760469
C       -0.90889806       0.60414373      -0.88819784
C        0.45245104       0.41145940      -0.29760882
C        1.82757252       0.84106704      -0.54308811
N        1.08940470       1.27089121       0.65319718
C       -0.13604806      -0.93747141      -0.15562756
H       -0.57697572      -1.02547344       1.94405974
H       -2.28134524      -1.40740352      -0.25371477
H       -1.47351799       1.43012585      -0.47020835
H       -1.00084083       0.51100702      -1.96503277
H        2.03645264       1.62860271      -1.25719403
H        2.60915423       0.09631840      -0.42993182
H        1.37017081       0.74784099       1.47548272
H        0.10274600      -1.66584087      -0.93003218
H        0.19664781      -1.43603521       1.50150990
16
Frame=6 idx=009859 GeodesicLength=0.354872955006108 rxn_smarts="[O:1]([C@@:2]1([H:9])[C:3]([H:10])([H:11])[C@:4]2([C:5]([H:12])([H:13])[N:6]2[H:14])[C:7]1([H:15])[H:16])[H:8]>>[H:8][H:16].[O:1]=[C:2]([C@@:7]1([H:15])[C:3]([H:10])([H:11])[C@:4]12[C:5]([H:12])([H:13])[N:6]2[H:14])[H:9]"
O       -1.75851825      -0.35633253       1.42276882
C       -1.56124746      -0.71966836       0.19830091
C       -0.90669856       0.60612539      -0.89196177
C        0.45226732       0.41465163      -0.29952983
C        1.82857942       0.84108457      -0.54303412
N        1.08952724       1.27380983       0.65208540
C       -0.13939190      -0.93486338      -0.15906146
H       -0.57887358      -1.03007834       1.95873259
H       -2.28335805      -1.41736858      -0.24452470
H       -1.47084024       1.43426052      -0.47665671
H       -0.99445204       0.51999231      -1.96992769
H        2.03982637       1.62757115      -1.25767020
H        2.60901201       0.09552362      -0.42734208
H        1.37062496       0.75136992       1.47453113
H        0.09929469      -1.66738940      -0.92882700
H        0.20424807      -1.43868835       1.49211670
16
Frame=7 idx=009859 GeodesicLength=0.4140019632966153 rxn_smarts="[O:1]([C@@:2]1([H:9])[C:3]([H:10])([H:11])[C@:4]2([C:5]([H:12])([H:13])[N:6]2[H:14])[C:7]1([H:15])[H:16])[H:8]>>[H:8][H:16].[O:1]=[C:2]([C@@:7]1([H:15])[C:3]([H:10])([H:11])[C@:4]12[C:5]([H:12])([H:13])[N:6]2[H:14])[H:9]"
O       -1.76520346      -0.36319178       1.42675068
C       -1.56739753      -0.71963752       0.19898710
C       -0.90449565       0.60813385      -0.89579081
C        0.45207530       0.41785618      -0.30149082
C        1.82958098       0.84109373      -0.54297515
N        1.08963049       1.27671691       0.65096219
C       -0.14278695      -0.93222664      -0.16254594
H       -0.58083637      -1.03461918       1.97371214
H       -2.28518777      -1.42741506      -0.23518625
H       -1.46814393       1.43842240      -0.48317745
H       -0.98799618       0.52906071      -1.97483671
H        2.04322338       1.62653129      -1.25812283
H        2.60883863       0.09470586      -0.42474307
H        1.37102932       0.75487348       1.47356899
H        0.09579356      -1.66890245      -0.92763226
H        0.21187618      -1.44140178       1.48252020
16
Frame=8 idx=009859 GeodesicLength=0.4731277195326137 rxn_smarts="[O:1]([C@@:2]1([H:9])[C:3]([H:10])([H:11])[C@:4]2([C:5]([H:12])([H:13])[N:6]2[H:14])[C:7]1([H:15])[H:16])[H:8]>>[H:8][H:16].[O:1]=[C:2]([C@@:7]1([H:15])[C:3]([H:10])([H:11])[C@:4]12[C:5]([H:12])([H:13])[N:6]2[H:14])[H:9]"
O       -1.77187816      -0.37012044       1.43072535
C       -1.57360085      -0.71959992       0.19966408
C       -0.90228989       0.61016724      -0.89968604
C        0.45187437       0.42107139      -0.30349180
C        1.83057560       0.84109500      -0.54291055
N        1.08971302       1.27960931       0.64983049
C       -0.14623248      -0.92956371      -0.16608251
H       -0.58287340      -1.03907011       1.98902290
H       -2.28682992      -1.43753416      -0.22570668
H       -1.46543030       1.44260959      -0.48977069
H       -0.98147446       0.53820994      -1.97975985
H        2.04664051       1.62548610      -1.25854908
H        2.60863334       0.09386542      -0.42213668
H        1.37138425       0.75834642       1.47259804
H        0.09224289      -1.67038043      -0.92645245
H        0.21954546      -1.44419165       1.47270546
16
Frame=9 idx=009859 GeodesicLength=0.5322489435540719 rxn_smarts="[O:1]([C@@:2]1([H:9])[C:3]([H:10])([H:11])[C@:4]2([C:5]([H:12])([H:13])[N:6]2[H:14])[C:7]1([H:15])[H:16])[H:8]>>[H:8][H:16].[O:1]=[C:2]([C@@:7]1([H:15])[C:3]([H:10])([H:11])[C@:4]12[C:5]([H:12])([H:13])[N:6]2[H:14])[H:9]"
O       -1.77854283      -0.37711656       1.43468985
C       -1.57985611      -0.71956169       0.20033285
C       -0.90008127       0.61222320      -0.90364760
C        0.45166413       0.42429564      -0.30553278
C        1.83156187       0.84108915      -0.54283972
N        1.08977364       1.28248306       0.64869239
C       -0.14972798      -0.92687646      -0.16967269
H       -0.58499616      -1.04340408       2.00469032
H       -2.28828001      -1.44771761      -0.21609266
H       -1.46269971       1.44681865      -0.49643578
H       -0.97488727       0.54743728      -1.98469525
H        2.05007522       1.62443862      -1.25894577
H        2.60839524       0.09300373      -0.41952516
H        1.37168980       0.76178268       1.47161835
H        0.08864272      -1.67182209      -0.92529152
H        0.22726872      -1.44707352       1.46265517
16
Frame=10 idx=009859 GeodesicLength=0.5913654835923975 rxn_smarts="[O:1]([C@@:2]1([H:9])[C:3]([H:10])([H:11])[C@:4]2([C:5]([H:12])([H:13])[N:6]2[H:14])[C:7]1([H:15])[H:16])[H:8]>>[H:8][H:16].[O:1]=[C:2]([C@@:7]1([H:15])[C:3]([H:10])([H:11])[C@:4]12[C:5]([H:12])([H:13])[N:6]2[H:14])[H:9]"
O       -1.78519838      -0.38417807       1.43864112
C       -1.58616156      -0.71952976       0.20099430
C       -0.89786991       0.61429935      -0.90767561
C        0.45144423       0.42752710      -0.30761365
C        1.83253838       0.84107712      -0.54276220
N        1.08981130       1.28533369       0.64755064
C       -0.15327247      -0.92416731      -0.17331829
H       -0.58721778      -1.04759038       2.02074293
H       -2.28953391      -1.45795734      -0.20635210
H       -1.45995288       1.45104614      -0.50317163
H       -0.96823546       0.55674019      -1.98964133
H        2.05352454       1.62339265      -1.25930957
H        2.60812374       0.09212215      -0.41691152
H        1.37194667       0.76517520       1.47063053
H        0.08499340      -1.67322650      -0.92415452
H        0.23506010      -1.45006423       1.45235090
16
Frame=11 idx=009859 GeodesicLength=0.6504771871268853 rxn_smarts="[O:1]([C@@:2]1([H:9])[C:3]([H:10])([H:11])[C@:4]2([C:5]([H:12])([H:13])[N:6]2[H:14])[C:7]1([H:15])[H:16])[H:8]>>[H:8][H:16].[O:1]=[C:2]([C@@:7]1([H:15])[C:3]([H:10])([H:11])[C@:4]12[C:5]([H:12])([H:13])[N:6]2[H:14])[H:9]"
O       -1.79184591      -0.39130298       1.44257591
C       -1.59251494      -0.71951180       0.20164931
C       -0.89565595       0.61639315      -0.91176997
C        0.45121442       0.43076371      -0.30973429
C        1.83350373       0.84105993      -0.54267748
N        1.08982497       1.28815620       0.64640836
C       -0.15686469      -0.92143898      -0.17702151
H       -0.58955301      -1.05159408       2.03721226
H       -2.29058775      -1.46824571      -0.19649364
H       -1.45719060       1.45528829      -0.50997656
H       -0.96152007       0.56611628      -1.99459626
H        2.05698526       1.62235248      -1.25963681
H        2.60781847       0.09122220      -0.41429916
H        1.37215575       0.76851606       1.46963524
H        0.08129536      -1.67459262      -0.92304761
H        0.24293497      -1.45318212       1.44177222
16
Frame=12 idx=009859 GeodesicLength=0.709583938112422 rxn_smarts="[O:1]([C@@:2]1([H:9])[C:3]([H:10])([H:11])[C@:4]2([C:5]([H:12])([H:13])[N:6]2[H:14])[C:7]1([H:15])[H:16])[H:8]>>[H:8][H:16].[O:1]=[C:2]([C@@:7]1([H:15])[C:3]([H:10])([H:11])[C@:4]12[C:5]([H:12])([H:13])[N:6]2[H:14])[H:9]"
O       -1.79848690      -0.39848948       1.44649067
C       -1.59891341      -0.71951640       0.20229861
C       -0.89343949       0.61850195      -0.91593027
C        0.45097456       0.43400322      -0.31189450
C        1.83445656       0.84103874      -0.54258509
N        1.08981380       1.29094490       0.64526906
C       -0.16050302      -0.91869463      -0.18078495
H       -0.59201872      -1.05537537       2.05413315
H       -2.29143777      -1.47857586      -0.18652675
H       -1.45441372       1.45954096      -0.51684808
H       -0.95474241       0.57556346      -1.99955786
H        2.06045394       1.62132291      -1.25992354
H        2.60747919       0.09030551      -0.41169203
H        1.37231832       0.77179624       1.46863325
H        0.07754914      -1.67591923      -0.92197821
H        0.25090992      -1.45644691       1.43089654
16
Frame=13 idx=009859 GeodesicLength=0.7686856764824082 rxn_smarts="[O:1]([C@@:2]1([H:9])[C:3]([H:10])([H:11])[C@:4]2([C:5]([H:12])([H:13])[N:6]2[H:14])[C:7]1([H:15])[H:16])[H:8]>>[H:8][H:16].[O:1]=[C:2]([C@@:7]1([H:15])[C:3]([H:10])([H:11])[C@:4]12[C:5]([H:12])([H:13])[N:6]2[H:14])[H:9]"
O       -1.80512313      -0.40573594       1.45038152
C       -1.60535358      -0.71955307       0.20294282
C       -0.89122067       0.62062301      -0.92015581
C        0.45072459       0.43724313      -0.31409404
C        1.83539550       0.84101481      -0.54248452
N        1.08977701       1.29369329       0.64413683
C       -0.16418551      -0.91593779      -0.18461181
H       -0.59463388      -1.05888852       2.07154417
H       -2.29208024      -1.48894207      -0.17646136
H       -1.45162319       1.46379970      -0.52378297
H       -0.94790399       0.58507994      -2.00452370
H        2.06392691       1.62030951      -1.26016521
H        2.60710590       0.08937385      -0.40909474
H        1.37243601       0.77500532       1.46762544
H        0.07375532      -1.67720495      -0.92095527
H        0.25900292      -1.45988022       1.41969866
16
Frame=14 idx=009859 GeodesicLength=0.8277824023954884 rxn_smarts="[O:1]([C@@:2]1([H:9])[C:3]([H:10])([H:11])[C@:4]2([C:5]([H:12])([H:13])[N:6]2[H:14])[C:7]1([H:15])[H:16])[H:8]>>[H:8][H:16].[O:1]=[C:2]([C@@:7]1([H:15])[C:3]([H:10])([H:11])[C@:4]12[C:5]([H:12])([H:13])[N:6]2[H:14])[H:9]"
O       -1.81175704      -0.41304119       1.45424405
C       -1.61183141      -0.71963245       0.20358225
C       -0.88899951       0.62275346      -0.92444543
C        0.45046460       0.44048061      -0.31633251
C        1.83631919       0.84098962      -0.54237539
N        1.08971418       1.29639380       0.64301636
C       -0.16790976      -0.91317250      -0.18850577
H       -0.59742052      -1.06208106       2.08948809
H       -2.29251132      -1.49933997      -0.16630823
H       -1.44881993       1.46805963      -0.53077692
H       -0.94100662       0.59466443      -2.00949083
H        2.06740005       1.61931877      -1.26035681
H        2.60669881       0.08842916      -0.40651301
H        1.37251130       0.77813123       1.46661273
H        0.06991467      -1.67844818      -0.91998931
H        0.26723331      -1.46350537       1.40815071
16
Frame=15 idx=009859 GeodesicLength=0.8868742001386601 rxn_smarts="[O:1]([C@@:2]1([H:9])[C:3]([H:10])([H:11])[C@:4]2([C:5]([H:12])([H:13])[N:6]2[H:14])[C:7]1([H:15])[H:16])[H:8]>>[H:8][H:16].[O:1]=[C:2]([C@@:7]1([H:15])[C:3]([H:10])([H:11])[C@:4]12[C:5]([H:12])([H:13])[N:6]2[H:14])[H:9]"
O       -1.81839165      -0.42040460       1.45807332
C       -1.61834223      -0.71976643       0.20421683
C       -0.88677611       0.62489043      -0.92879755
C        0.45019481       0.44371257      -0.31860940
C        1.83722630       0.84096476      -0.54225727
N        1.08962506       1.29903773       0.64191313
C       -0.17167300      -0.91040332      -0.19247128
H       -0.60040355      -1.06489217       2.10801230
H       -2.29272674      -1.50976718      -0.15607852
H       -1.44600500       1.47231556      -0.53782444
H       -0.93405239       0.60431629      -2.01445583
H        2.07086895       1.61835808      -1.26049262
H        2.60625839       0.08747347      -0.40395350
H        1.37254722       0.78115992       1.46559621
H        0.06602800      -1.67964705      -0.91909289
H        0.27562195      -1.46734806       1.39622149
16
Frame=16 idx=009859 GeodesicLength=0.945961232432141 rxn_smarts="[O:1]([C@@:2]1([H:9])[C:3]([H:10])([H:11])[C@:4]2([C:5]([H:12])([H:13])[N:6]2[H:14])[C:7]1([H:15])[H:16])[H:8]>>[H:8][H:16].[O:1]=[C:2]([C@@:7]1([H:15])[C:3]([H:10])([H:11])[C@:4]12[C:5]([H:12])([H:13])[N:6]2[H:14])[H:9]"
O       -1.82503076      -0.42782632       1.46186370
C       -1.62488065      -0.71996835       0.20484602
C       -0.88455048       0.62703098      -0.93321000
C        0.44991561       0.44693546      -0.32092403
C        1.83811550       0.84094204      -0.54212982
N        1.08950980       1.30161489       0.64083352
C       -0.17547198      -0.90763543      -0.19651356
H       -0.60361167      -1.06725138       2.12716939
H       -2.29272168      -1.52022360      -0.14578392
H       -1.44317944       1.47656183      -0.54491858
H       -0.92704371       0.61403571      -2.01941466
H        2.07432864       1.61743607      -1.26056614
H        2.60578538       0.08650894      -0.40142430
H        1.37254786       0.78407497       1.46457707
H        0.06209626      -1.68079942      -0.91828084
H        0.28419131      -1.47143639       1.38387617
