13
Frame=0 idx=002865 GeodesicLength=0.0 rxn_smarts="[C:1]([C@@:2]([C:3]([O:4][H:13])([H:11])[H:12])([C:5]#[N:6])[H:10])([H:7])([H:8])[H:9]>>[C:1](=[C:2]([C:5]#[N:6])[H:10])([H:7])[H:8].[C:3](=[O:4])([H:11])[H:12].[H:9][H:13]"
C       -0.57947315       1.28386268      -0.03824397
C       -0.77764021       0.00766727      -0.52851346
C        1.20975087      -1.11416412      -0.06900913
O        2.01925648      -0.29458064       0.39698303
C       -1.61304832      -0.91257766       0.17404842
N       -2.27023084      -1.67140881       0.73630471
H       -0.33917977       2.07795489      -0.73414321
H       -1.08229247       1.59155865       0.87107422
H        0.76512450       1.47110878       0.63396815
H       -0.65907402      -0.17886563      -1.58672532
H        1.26117036      -1.38426095      -1.12954405
H        0.65336552      -1.78519035       0.59339432
H        1.41227099       0.90889587       0.68040627
13
Frame=1 idx=002865 GeodesicLength=0.08699873669162274 rxn_smarts="[C:1]([C@@:2]([C:3]([O:4][H:13])([H:11])[H:12])([C:5]#[N:6])[H:10])([H:7])([H:8])[H:9]>>[C:1](=[C:2]([C:5]#[N:6])[H:10])([H:7])[H:8].[C:3](=[O:4])([H:11])[H:12].[H:9][H:13]"
C       -0.58025056       1.28665861      -0.03271476
C       -0.77517874       0.01308003      -0.53826431
C        1.19966442      -1.11658156      -0.05618352
O        2.03179486      -0.28300225       0.35023835
C       -1.62023185      -0.91381443       0.14550220
N       -2.27640946      -1.68926213       0.68570548
H       -0.38990199       2.09719280      -0.72519981
H       -1.05148086       1.55971727       0.90383039
H        0.78258963       1.49379551       0.63140517
H       -0.66843233      -0.15360741      -1.60165878
H        1.24281022      -1.45796366      -1.09670097
H        0.66438284      -1.75427156       0.65550119
H        1.44064382       0.91805877       0.67853937
13
Frame=2 idx=002865 GeodesicLength=0.17335918384631488 rxn_smarts="[C:1]([C@@:2]([C:3]([O:4][H:13])([H:11])[H:12])([C:5]#[N:6])[H:10])([H:7])([H:8])[H:9]>>[C:1](=[C:2]([C:5]#[N:6])[H:10])([H:7])[H:8].[C:3](=[O:4])([H:11])[H:12].[H:9][H:13]"
C       -0.58057481       1.28960849      -0.02842455
C       -0.77332470       0.01857337      -0.54848254
C        1.18909912      -1.11903438      -0.04376209
O        2.04021783      -0.27445213       0.30742343
C       -1.62689877      -0.91420966       0.11841615
N       -2.27864485      -1.70709686       0.63829086
H       -0.44075255       2.11489079      -0.71572507
H       -1.01960075       1.52894354       0.93240586
H        0.80015113       1.51580984       0.62886411
H       -0.67949196      -0.12882976      -1.61660081
H        1.22603269      -1.52577466      -1.06131158
H        0.67468635      -1.72391207       0.71145564
H        1.46910128       0.92548348       0.67745060
13
Frame=3 idx=002865 GeodesicLength=0.25918394127151784 rxn_smarts="[C:1]([C@@:2]([C:3]([O:4][H:13])([H:11])[H:12])([C:5]#[N:6])[H:10])([H:7])([H:8])[H:9]>>[C:1](=[C:2]([C:5]#[N:6])[H:10])([H:7])[H:8].[C:3](=[O:4])([H:11])[H:12].[H:9][H:13]"
C       -0.58050202       1.29266825      -0.02522892
C       -0.77193285       0.02413557      -0.55910988
C        1.17806788      -1.12153979      -0.03162984
O        2.04536121      -0.26844905       0.26796849
C       -1.63318059      -0.91381287       0.09255213
N       -2.27762283      -1.72478666       0.59328117
H       -0.49195524       2.13102480      -0.70538147
H       -0.98690396       1.49916714       0.95709264
H        0.81777301       1.53713047       0.62663328
H       -0.69222128      -0.10430308      -1.63146705
H        1.21071404      -1.58851696      -1.02368284
H        0.68442838      -1.69416669       0.76238063
H        1.49797425       0.93144886       0.67659166
13
Frame=4 idx=002865 GeodesicLength=0.34446864391263415 rxn_smarts="[C:1]([C@@:2]([C:3]([O:4][H:13])([H:11])[H:12])([C:5]#[N:6])[H:10])([H:7])([H:8])[H:9]>>[C:1](=[C:2]([C:5]#[N:6])[H:10])([H:7])[H:8].[C:3](=[O:4])([H:11])[H:12].[H:9][H:13]"
C       -0.58004694       1.29583649      -0.02313029
C       -0.77092280       0.02973404      -0.57012997
C        1.16661775      -1.12406967      -0.01982072
O        2.04781220      -0.26462132       0.23144272
C       -1.63915346      -0.91267289       0.06783465
N       -2.27381858      -1.74211932       0.55039590
H       -0.54341637       2.14543385      -0.69405375
H       -0.95366944       1.47049466       0.97794446
H        0.83535996       1.55774605       0.62499933
H       -0.70673242      -0.07992244      -1.64622922
H        1.19687931      -1.64664223      -0.98417851
H        0.69382006      -1.66518150       0.80889101
H        1.52727072       0.93598427       0.67603440
13
Frame=5 idx=002865 GeodesicLength=0.4299443305536219 rxn_smarts="[C:1]([C@@:2]([C:3]([O:4][H:13])([H:11])[H:12])([C:5]#[N:6])[H:10])([H:7])([H:8])[H:9]>>[C:1](=[C:2]([C:5]#[N:6])[H:10])([H:7])[H:8].[C:3](=[O:4])([H:11])[H:12].[H:9][H:13]"
C       -0.57929781       1.29913131      -0.02193143
C       -0.77011331       0.03536860      -0.58157184
C        1.15482810      -1.12660875      -0.00816493
O        2.04829414      -0.26239488       0.19684867
C       -1.64482929      -0.91093104       0.04383136
N       -2.26764484      -1.75916183       0.50863007
H       -0.59563768       2.15861815      -0.68137869
H       -0.92002181       1.44255237       0.99547886
H        0.85291865       1.57776417       0.62416226
H       -0.72270390      -0.05538730      -1.66089988
H        1.18376723      -1.70187251      -0.94269819
H        0.70303982      -1.63638449       0.85231478
H        1.55740070       0.93930619       0.67537897
13
Frame=6 idx=002865 GeodesicLength=0.5151470936218691 rxn_smarts="[C:1]([C@@:2]([C:3]([O:4][H:13])([H:11])[H:12])([C:5]#[N:6])[H:10])([H:7])([H:8])[H:9]>>[C:1](=[C:2]([C:5]#[N:6])[H:10])([H:7])[H:8].[C:3](=[O:4])([H:11])[H:12].[H:9][H:13]"
C       -0.57823204       1.30256735      -0.02182428
C       -0.76953130       0.04100343      -0.59344397
C        1.14270549      -1.12915351       0.00317321
O        2.04695516      -0.26171788       0.16438575
C       -1.65027551      -0.90859096       0.02071748
N       -2.25940726      -1.77559045       0.46841864
H       -0.64813666       2.16999274      -0.66751737
H       -0.88625881       1.41577133       1.00948212
H        0.87036839       1.59711516       0.62427062
H       -0.74045953      -0.03079775      -1.67542812
H        1.17193353      -1.75349410      -0.89970014
H        0.71223908      -1.60830141       0.89241478
H        1.58809946       0.94119604       0.67505128
13
Frame=7 idx=002865 GeodesicLength=0.6000893531560392 rxn_smarts="[C:1]([C@@:2]([C:3]([O:4][H:13])([H:11])[H:12])([C:5]#[N:6])[H:10])([H:7])([H:8])[H:9]>>[C:1](=[C:2]([C:5]#[N:6])[H:10])([H:7])[H:8].[C:3](=[O:4])([H:11])[H:12].[H:9][H:13]"
C       -0.57687177       1.30616295      -0.02286221
C       -0.76913380       0.04660797      -0.60578667
C        1.13029219      -1.13169422       0.01417568
O        2.04405597      -0.26234643       0.13382121
C       -1.65552298      -0.90571967      -0.00158474
N       -2.24945064      -1.79122892       0.42970469
H       -0.70079122       2.17941224      -0.65241639
H       -0.85255852       1.39021231       1.02005951
H        0.88767205       1.61583073       0.62539748
H       -0.76002937      -0.00614238      -1.68978989
H        1.16143870      -1.80169716      -0.85539395
H        0.72154954      -1.58098969       0.92949053
H        1.61934987       0.94159227       0.67518474
13
Frame=8 idx=002865 GeodesicLength=0.6850312386238216 rxn_smarts="[C:1]([C@@:2]([C:3]([O:4][H:13])([H:11])[H:12])([C:5]#[N:6])[H:10])([H:7])([H:8])[H:9]>>[C:1](=[C:2]([C:5]#[N:6])[H:10])([H:7])[H:8].[C:3](=[O:4])([H:11])[H:12].[H:9][H:13]"
C       -0.57530508       1.30996808      -0.02498876
C       -0.76886431       0.05219210      -0.61863389
C        1.11759675      -1.13422444       0.02495913
O        2.03987952      -0.26402233       0.10476077
C       -1.66059802      -0.90241109      -0.02329794
N       -2.23808564      -1.80608360       0.39208708
H       -0.75373789       2.18692614      -0.63588311
H       -0.81905618       1.36579041       1.02748815
H        0.90487482       1.63395009       0.62762251
H       -0.78126076       0.01869045      -1.70395772
H        1.15211590      -1.84711575      -0.80979896
H        0.73105377      -1.55420571       0.96415111
H        1.65138711       0.94054565       0.67549163
13
Frame=9 idx=002865 GeodesicLength=0.7702604159217831 rxn_smarts="[C:1]([C@@:2]([C:3]([O:4][H:13])([H:11])[H:12])([C:5]#[N:6])[H:10])([H:7])([H:8])[H:9]>>[C:1](=[C:2]([C:5]#[N:6])[H:10])([H:7])[H:8].[C:3](=[O:4])([H:11])[H:12].[H:9][H:13]"
C       -0.57355096       1.31395787      -0.02825554
C       -0.76865746       0.05770221      -0.63206056
C        1.10474435      -1.13670311       0.03540984
O        2.03460956      -0.26648386       0.07701576
C       -1.66541373      -0.89879276      -0.04450235
N       -2.22547764      -1.82003697       0.35556774
H       -0.80703687       2.19280618      -0.61805478
H       -0.78578421       1.34237694       1.03189667
H        0.92187824       1.65157845       0.63100471
H       -0.80405868       0.04370259      -1.71791588
H        1.14363356      -1.89018848      -0.76298697
H        0.74087208      -1.52787474       0.99656806
H        1.68424176       0.93795567       0.67631329
13
Frame=10 idx=002865 GeodesicLength=0.8555248828939528 rxn_smarts="[C:1]([C@@:2]([C:3]([O:4][H:13])([H:11])[H:12])([C:5]#[N:6])[H:10])([H:7])([H:8])[H:9]>>[C:1](=[C:2]([C:5]#[N:6])[H:10])([H:7])[H:8].[C:3](=[O:4])([H:11])[H:12].[H:9][H:13]"
C       -0.57170565       1.31817247      -0.03265191
C       -0.76855571       0.06316523      -0.64607366
C        1.09164234      -1.13914428       0.04565131
O        2.02829367      -0.26968316       0.05053137
C       -1.67007264      -0.89488582      -0.06530865
N       -2.21193404      -1.83302988       0.32004580
H       -0.86035846       2.19655269      -0.59872445
H       -0.75293905       1.32009939       1.03342695
H        0.93873474       1.66870574       0.63551004
H       -0.82839474       0.06886986      -1.73158187
H        1.13631354      -1.93063456      -0.71507043
H        0.75097135      -1.50200417       1.02694448
H        1.71800464       0.93381648       0.67730103
13
Frame=11 idx=002865 GeodesicLength=0.9407365515115859 rxn_smarts="[C:1]([C@@:2]([C:3]([O:4][H:13])([H:11])[H:12])([C:5]#[N:6])[H:10])([H:7])([H:8])[H:9]>>[C:1](=[C:2]([C:5]#[N:6])[H:10])([H:7])[H:8].[C:3](=[O:4])([H:11])[H:12].[H:9][H:13]"
C       -0.56984480       1.32261705      -0.03820794
C       -0.76858372       0.06856383      -0.66070081
C        1.07830632      -1.14151411       0.05565972
O        2.02099156      -0.27344471       0.02524676
C       -1.67459020      -0.89075354      -0.08573458
N       -2.19767448      -1.84499416       0.28559582
H       -0.91326405       2.19801421      -0.57798071
H       -0.72062174       1.29896938       1.03216852
H        0.95533156       1.68536014       0.64120179
H       -0.85427505       0.09409995      -1.74488859
H        1.13021516      -1.96835491      -0.66623250
H        0.76138263      -1.47662056       1.05533967
H        1.75262683       0.92805744       0.67853286
13
Frame=12 idx=002865 GeodesicLength=1.025958083495385 rxn_smarts="[C:1]([C@@:2]([C:3]([O:4][H:13])([H:11])[H:12])([C:5]#[N:6])[H:10])([H:7])([H:8])[H:9]>>[C:1](=[C:2]([C:5]#[N:6])[H:10])([H:7])[H:8].[C:3](=[O:4])([H:11])[H:12].[H:9][H:13]"
C       -0.56806977       1.32728814      -0.04489089
C       -0.76877138       0.07388619      -0.67595235
C        1.06472610      -1.14378123       0.06548295
O        2.01276222      -0.27763145       0.00101895
C       -1.67898247      -0.88646935      -0.10584065
N       -2.18288640      -1.85597381       0.25210404
H       -0.96551572       2.19718736      -0.55586124
H       -0.68890134       1.27894607       1.02829427
H        0.97161803       1.70161300       0.64807032
H       -0.88157610       0.11936004      -1.75774984
H        1.12529735      -2.00344468      -0.61657017
H        0.77210544      -1.45161939       1.08194561
H        1.78819405       0.92063910       0.67994900
13
Frame=13 idx=002865 GeodesicLength=1.1112786323279398 rxn_smarts="[C:1]([C@@:2]([C:3]([O:4][H:13])([H:11])[H:12])([C:5]#[N:6])[H:10])([H:7])([H:8])[H:9]>>[C:1](=[C:2]([C:5]#[N:6])[H:10])([H:7])[H:8].[C:3](=[O:4])([H:11])[H:12].[H:9][H:13]"
C       -0.56641409       1.33213953      -0.05270565
C       -0.76912458       0.07908767      -0.69185356
C        1.05097467      -1.14591983       0.07504151
O        2.00368743      -0.28208088      -0.02226447
C       -1.68320874      -0.88212130      -0.12560959
N       -2.16771275      -1.86599399       0.21961022
H       -1.01699382       2.19427860      -0.53261213
H       -0.65775262       1.25996482       1.02191579
H        0.98746797       1.71755216       0.65615311
H       -0.91020390       0.14459275      -1.77010835
H        1.12136536      -2.03598231      -0.56617468
H        0.78319088      -1.42697213       1.10679689
H        1.82472420       0.91145490       0.68181090
13
Frame=14 idx=002865 GeodesicLength=1.1965571616931623 rxn_smarts="[C:1]([C@@:2]([C:3]([O:4][H:13])([H:11])[H:12])([C:5]#[N:6])[H:10])([H:7])([H:8])[H:9]>>[C:1](=[C:2]([C:5]#[N:6])[H:10])([H:7])[H:8].[C:3](=[O:4])([H:11])[H:12].[H:9][H:13]"
C       -0.56506797       1.33719324      -0.06152411
C       -0.76972450       0.08419725      -0.70835640
C        1.03694669      -1.14789801       0.08449787
O        1.99373721      -0.28671025      -0.04465650
C       -1.68737600      -0.87776028      -0.14513973
N       -2.15235103      -1.87514741       0.18792975
H       -1.06712552       2.18904353      -0.50820758
H       -0.62733729       1.24201896       1.01326752
H        1.00285157       1.73320826       0.66546195
H       -0.94001926       0.16969749      -1.78184941
H        1.11857797      -2.06581297      -0.51519266
H        0.79454890      -1.40255575       1.13010740
H        1.86233925       0.90052593       0.68366191
13
Frame=15 idx=002865 GeodesicLength=1.2817344210547295 rxn_smarts="[C:1]([C@@:2]([C:3]([O:4][H:13])([H:11])[H:12])([C:5]#[N:6])[H:10])([H:7])([H:8])[H:9]>>[C:1](=[C:2]([C:5]#[N:6])[H:10])([H:7])[H:8].[C:3](=[O:4])([H:11])[H:12].[H:9][H:13]"
C       -0.56412739       1.34241579      -0.07126608
C       -0.77062772       0.08919480      -0.72542254
C        1.02264756      -1.14967952       0.09385848
O        1.98292052      -0.29138720      -0.06620752
C       -1.69151020      -0.87345585      -0.16440728
N       -2.13694698      -1.88349172       0.15708796
H       -1.11554507       2.18160548      -0.48296086
H       -0.59769668       1.22507270       1.00251943
H        1.01763320       1.74862783       0.67608017
H       -0.97091064       0.19455802      -1.79288199
H        1.11694019      -2.09286973      -0.46384553
H        0.80617049      -1.37835423       1.15193469
H        1.90105272       0.88776363       0.68551106
13
Frame=16 idx=002865 GeodesicLength=1.3667942526049977 rxn_smarts="[C:1]([C@@:2]([C:3]([O:4][H:13])([H:11])[H:12])([C:5]#[N:6])[H:10])([H:7])([H:8])[H:9]>>[C:1](=[C:2]([C:5]#[N:6])[H:10])([H:7])[H:8].[C:3](=[O:4])([H:11])[H:12].[H:9][H:13]"
C       -0.56366438       1.34777557      -0.08185527
C       -0.77187180       0.09406523      -0.74301211
C        1.00808827      -1.15123394       0.10316180
O        1.97126604      -0.29602002      -0.08698600
C       -1.69562960      -0.86926762      -0.18339396
N       -2.12162460      -1.89112950       0.12702694
H       -1.16213688       2.17217981      -0.45711306
H       -0.56883786       1.20909392       0.98983423
H        1.03172722       1.76386116       0.68810572
H       -1.00270505       0.21907769      -1.80315100
H        1.11639285      -2.11718332      -0.41228357
H        0.81803685      -1.35430141       1.17237614
H        1.94095895       0.87308243       0.68729014
