12
Frame=0 idx=003498 GeodesicLength=0.0 rxn_smarts="[O:1]([C:2]1([H:8])[C:3]([H:9])([H:10])[C:4](=[O:5])[C:6]1([H:11])[H:12])[H:7]>>[H:7][H:8].[O:1]=[C:2]1[C:3]([H:9])([H:10])[C:4](=[O:5])[C:6]1([H:11])[H:12]"
O        1.60193171      -0.98433385       0.84622324
C        0.63115800      -0.44673123       0.15894844
C       -0.88554723      -0.62479940       0.39838323
C       -1.06317590       0.80157823      -0.12235919
O       -2.01314124       1.45257600      -0.42500443
C        0.44390808       1.05302124      -0.16513115
H        1.38210777      -1.26251151      -0.50591234
H        0.72949450      -0.96932266      -1.15926725
H       -1.06213692      -0.69735154       1.47510440
H       -1.41921913      -1.42450288      -0.11186806
H        0.86665243       1.46296894      -1.08041798
H        0.78796794       1.63940863       0.69130109
12
Frame=1 idx=003498 GeodesicLength=0.09567816212153299 rxn_smarts="[O:1]([C:2]1([H:8])[C:3]([H:9])([H:10])[C:4](=[O:5])[C:6]1([H:11])[H:12])[H:7]>>[H:7][H:8].[O:1]=[C:2]1[C:3]([H:9])([H:10])[C:4](=[O:5])[C:6]1([H:11])[H:12]"
O        1.59799372      -0.98331629       0.84432903
C        0.62725567      -0.44508929       0.15839946
C       -0.88794793      -0.62156564       0.40316375
C       -1.06531678       0.80280083      -0.12311322
O       -2.01506364       1.45361602      -0.42706738
C        0.44168508       1.05578037      -0.16069076
H        1.40146812      -1.27985000      -0.51747829
H        0.73831821      -0.97773921      -1.17069293
H       -1.06631633      -0.69200757       1.47964223
H       -1.42132551      -1.42225891      -0.10600969
H        0.86543099       1.46570911      -1.07566438
H        0.78381842       1.64392059       0.69518218
12
Frame=2 idx=003498 GeodesicLength=0.19118505678421283 rxn_smarts="[O:1]([C:2]1([H:8])[C:3]([H:9])([H:10])[C:4](=[O:5])[C:6]1([H:11])[H:12])[H:7]>>[H:7][H:8].[O:1]=[C:2]1[C:3]([H:9])([H:10])[C:4](=[O:5])[C:6]1([H:11])[H:12]"
O        1.59408233      -0.98254910       0.84191291
C        0.62313443      -0.44324822       0.15807072
C       -0.89053090      -0.61820017       0.40801838
C       -1.06759086       0.80413231      -0.12382429
O       -2.01711380       1.45478973      -0.42905135
C        0.43931517       1.05865796      -0.15620625
H        1.42165901      -1.29777367      -0.52920196
H        0.74756114      -0.98632816      -1.18194761
H       -1.07067172      -0.68656267       1.48424534
H       -1.42350060      -1.41990316      -0.10016102
H        0.86408805       1.46841506      -1.07092235
H        0.77956774       1.64857011       0.69906749
12
Frame=3 idx=003498 GeodesicLength=0.28661195504527154 rxn_smarts="[O:1]([C:2]1([H:8])[C:3]([H:9])([H:10])[C:4](=[O:5])[C:6]1([H:11])[H:12])[H:7]>>[H:7][H:8].[O:1]=[C:2]1[C:3]([H:9])([H:10])[C:4](=[O:5])[C:6]1([H:11])[H:12]"
O        1.59020015      -0.98205700       0.83892126
C        0.61877421      -0.44118827       0.15798469
C       -0.89331488      -0.61469125       0.41295226
C       -1.07001225       0.80558535      -0.12448582
O       -2.01930566       1.45611188      -0.43094725
C        0.43678419       1.06166707      -0.15167579
H        1.44276079      -1.31634318      -0.54111547
H        0.75726856      -0.99510701      -1.19299157
H       -1.07521876      -0.68101035       1.48891903
H       -1.42575628      -1.41742463      -0.09432305
H        0.86261046       1.47108806      -1.06619470
H        0.77520948       1.65336932       0.70295641
12
Frame=4 idx=003498 GeodesicLength=0.3820286098726377 rxn_smarts="[O:1]([C:2]1([H:8])[C:3]([H:9])([H:10])[C:4](=[O:5])[C:6]1([H:11])[H:12])[H:7]>>[H:7][H:8].[O:1]=[C:2]1[C:3]([H:9])([H:10])[C:4](=[O:5])[C:6]1([H:11])[H:12]"
O        1.58634707      -0.98186791       0.83528963
C        0.61415441      -0.43889006       0.15816463
C       -0.89632061      -0.61102574       0.41797194
C       -1.07259630       0.80717323      -0.12509181
O       -2.02165315       1.45759728      -0.43274713
C        0.43407681       1.06482141      -0.14709675
H        1.46486135      -1.33561985      -0.55325329
H        0.76749076      -1.00409632      -1.20378071
H       -1.07997427      -0.67534143       1.49367059
H       -1.42810636      -1.41481131      -0.08849415
H        0.86098463       1.47373016      -1.06148263
H        0.77073565       1.65833055       0.70684968
12
Frame=5 idx=003498 GeodesicLength=0.477456247112326 rxn_smarts="[O:1]([C:2]1([H:8])[C:3]([H:9])([H:10])[C:4](=[O:5])[C:6]1([H:11])[H:12])[H:7]>>[H:7][H:8].[O:1]=[C:2]1[C:3]([H:9])([H:10])[C:4](=[O:5])[C:6]1([H:11])[H:12]"
O        1.58251962      -0.98200581       0.83096339
C        0.60925549      -0.43633702       0.15862941
C       -0.89956724      -0.60719210       0.42308284
C       -1.07535739       0.80890878      -0.12563446
O       -2.02416974       1.45926173      -0.43443996
C        0.43117936       1.06813205      -0.14246776
H        1.48804570      -1.35565533      -0.56564698
H        0.77827427      -1.01331748      -1.21427597
H       -1.08495305      -0.66954920       1.49850601
H       -1.43056556      -1.41205128      -0.08267367
H        0.85919705       1.47634233      -1.05678895
H        0.76614149       1.66346333       0.71074610
12
Frame=6 idx=003498 GeodesicLength=0.5729604025852286 rxn_smarts="[O:1]([C:2]1([H:8])[C:3]([H:9])([H:10])[C:4](=[O:5])[C:6]1([H:11])[H:12])[H:7]>>[H:7][H:8].[O:1]=[C:2]1[C:3]([H:9])([H:10])[C:4](=[O:5])[C:6]1([H:11])[H:12]"
O        1.57871340      -0.98250269       0.82585977
C        0.60405382      -0.43350705       0.15940767
C       -0.90307911      -0.60317464       0.42829331
C       -1.07831349       0.81080800      -0.12610557
O       -2.02687334       1.46112458      -0.43601439
C        0.42807379       1.07161486      -0.13778559
H        1.51241884      -1.37652416      -0.57833678
H        0.78968398      -1.02279497      -1.22442315
H       -1.09017594      -0.66362302       1.50343421
H       -1.43315054      -1.40912997      -0.07685971
H        0.85723065       1.47892611      -1.05211574
H        0.76141794       1.66878294       0.71464597
12
Frame=7 idx=003498 GeodesicLength=0.6685546866400279 rxn_smarts="[O:1]([C:2]1([H:8])[C:3]([H:9])([H:10])[C:4](=[O:5])[C:6]1([H:11])[H:12])[H:7]>>[H:7][H:8].[O:1]=[C:2]1[C:3]([H:9])([H:10])[C:4](=[O:5])[C:6]1([H:11])[H:12]"
O        1.57491922      -0.98338704       0.81990070
C        0.59852764      -0.43038070       0.16052336
C       -0.90687897      -0.59895903       0.43361042
C       -1.08148222       0.81288681      -0.12649539
O       -2.02977979       1.46320460      -0.43745651
C        0.42474335       1.07528359      -0.13304783
H        1.53808375      -1.39828982      -0.59135734
H        0.80177928      -1.03255649      -1.23417227
H       -1.09566145      -0.65755443       1.50846299
H       -1.43587857      -1.40603238      -0.07105100
H        0.85506907       1.48148251      -1.04746553
H        0.75655871       1.67430237       0.71854840
12
Frame=8 idx=003498 GeodesicLength=0.7642685309557729 rxn_smarts="[O:1]([C:2]1([H:8])[C:3]([H:9])([H:10])[C:4](=[O:5])[C:6]1([H:11])[H:12])[H:7]>>[H:7][H:8].[O:1]=[C:2]1[C:3]([H:9])([H:10])[C:4](=[O:5])[C:6]1([H:11])[H:12]"
O        1.57112591      -0.98468975       0.81299350
C        0.59265303      -0.42693562       0.16200747
C       -0.91099196      -0.59452884       0.43904340
C       -1.08488239       0.81516234      -0.12679345
O       -2.03290751       1.46552264      -0.43875227
C        0.42116957       1.07915383      -0.12825097
H        1.56515128      -1.42103102      -0.60475505
H        0.81463388      -1.04262888      -1.24346172
H       -1.10143234      -0.65133257       1.51360208
H       -1.43876805      -1.40274228      -0.06524503
H        0.85269350       1.48401248      -1.04284057
H        0.75155507       1.68003767       0.72245260
12
Frame=9 idx=003498 GeodesicLength=0.8600687311319055 rxn_smarts="[O:1]([C:2]1([H:8])[C:3]([H:9])([H:10])[C:4](=[O:5])[C:6]1([H:11])[H:12])[H:7]>>[H:7][H:8].[O:1]=[C:2]1[C:3]([H:9])([H:10])[C:4](=[O:5])[C:6]1([H:11])[H:12]"
O        1.56731771      -0.98643616       0.80505757
C        0.58640981      -0.42315380       0.16388704
C       -0.91543954      -0.58987016       0.44460000
C       -1.08853085       0.81765088      -0.12698744
O       -2.03627233       1.46809830      -0.43988625
C        0.41733709       1.08323739      -0.12339269
H        1.59371945      -1.44480778      -0.61857273
H        0.82831239      -1.05304026      -1.25223524
H       -1.10750879      -0.64495039       1.51885930
H       -1.44183489      -1.39924485      -0.05944101
H        0.85008731       1.48651411      -1.03824408
H        0.74640264       1.68600272       0.72635552
12
Frame=10 idx=003498 GeodesicLength=0.9559499592526581 rxn_smarts="[O:1]([C:2]1([H:8])[C:3]([H:9])([H:10])[C:4](=[O:5])[C:6]1([H:11])[H:12])[H:7]>>[H:7][H:8].[O:1]=[C:2]1[C:3]([H:9])([H:10])[C:4](=[O:5])[C:6]1([H:11])[H:12]"
O        1.56346993      -0.98865807       0.79598373
C        0.57977546      -0.41901792       0.16618812
C       -0.92024894      -0.58496591       0.45029093
C       -1.09244730       0.82036989      -0.12706562
O       -2.03989244       1.47095463      -0.44083936
C        0.41322672       1.08754862      -0.11847004
H        1.62391235      -1.46969250      -0.63284017
H        0.84289697      -1.06382265      -1.26044083
H       -1.11391201      -0.63839522       1.52424683
H       -1.44510413      -1.39552096      -0.05363195
H        0.84722932       1.48898930      -1.03367810
H        0.74109408       1.69221078       0.73025648
12
Frame=11 idx=003498 GeodesicLength=1.0518853812913855 rxn_smarts="[O:1]([C:2]1([H:8])[C:3]([H:9])([H:10])[C:4](=[O:5])[C:6]1([H:11])[H:12])[H:7]>>[H:7][H:8].[O:1]=[C:2]1[C:3]([H:9])([H:10])[C:4](=[O:5])[C:6]1([H:11])[H:12]"
O        1.55955132      -0.99138172       0.78566432
C        0.57273138      -0.41451053       0.16894392
C       -0.92544257      -0.57980158       0.45612647
C       -1.09664910       0.82333629      -0.12701187
O       -2.04378376       1.47411330      -0.44159186
C        0.40882322       1.09209748      -0.11348046
H        1.65584270      -1.49574712      -0.64758101
H        0.85846021      -1.07500377      -1.26803297
H       -1.12066517      -0.63165958       1.52977478
H       -1.44859460      -1.39155335      -0.04781479
H        0.84409987       1.49143424      -1.02914663
H        0.73562651       1.69867634       0.73415011
12
Frame=12 idx=003498 GeodesicLength=1.1478259318163573 rxn_smarts="[O:1]([C:2]1([H:8])[C:3]([H:9])([H:10])[C:4](=[O:5])[C:6]1([H:11])[H:12])[H:7]>>[H:7][H:8].[O:1]=[C:2]1[C:3]([H:9])([H:10])[C:4](=[O:5])[C:6]1([H:11])[H:12]"
O        1.55552826      -0.99462665       0.77399894
C        0.56526256      -0.40962060       0.17217685
C       -0.93104118      -0.57436340       0.46211652
C       -1.10115221       0.82656556      -0.12681199
O       -2.04796178       1.47759435      -0.44212375
C        0.40411175       1.09689450      -0.10842130
H        1.68960944      -1.52303357      -0.66281527
H        0.87508033      -1.08661070      -1.27497420
H       -1.12778569      -0.62473435       1.53545403
H       -1.45232758      -1.38732514      -0.04198249
H        0.84067989       1.49384913      -1.02465150
H        0.72999621       1.70541086       0.73803415
12
Frame=13 idx=003498 GeodesicLength=1.2437205191938459 rxn_smarts="[O:1]([C:2]1([H:8])[C:3]([H:9])([H:10])[C:4](=[O:5])[C:6]1([H:11])[H:12])[H:7]>>[H:7][H:8].[O:1]=[C:2]1[C:3]([H:9])([H:10])[C:4](=[O:5])[C:6]1([H:11])[H:12]"
O        1.55136078      -0.99840351       0.76088979
C        0.55735863      -0.40433841       0.17591227
C       -0.93705995      -0.56864080       0.46827010
C       -1.10596936       0.83007119      -0.12644955
O       -2.05243837       1.48141499      -0.44241369
C        0.39908146       1.10194616      -0.10329039
H        1.72529591      -1.55160598      -0.67854460
H        0.89282503      -1.09866323      -1.28124521
H       -1.13528960      -0.61761562       1.54129370
H       -1.45631961      -1.38282132      -0.03613024
H        0.83695200       1.49623113      -1.02019532
H        0.72420309       1.71242540       0.74190316
12
Frame=14 idx=003498 GeodesicLength=1.3395422767477663 rxn_smarts="[O:1]([C:2]1([H:8])[C:3]([H:9])([H:10])[C:4](=[O:5])[C:6]1([H:11])[H:12])[H:7]>>[H:7][H:8].[O:1]=[C:2]1[C:3]([H:9])([H:10])[C:4](=[O:5])[C:6]1([H:11])[H:12]"
O        1.54699745      -1.00272110       0.74622870
C        0.54901457      -0.39865649       0.18017905
C       -0.94351249      -0.56262364       0.47459917
C       -1.11111197       0.83386474      -0.12590729
O       -2.05722425       1.48558949      -0.44244325
C        0.39372273       1.10725774      -0.09808409
H        1.76298002      -1.58151867      -0.69476335
H        0.91176760      -1.11117684      -1.28683917
H       -1.14319363      -0.61029680       1.54730550
H       -1.46058600      -1.37802771      -0.03024877
H        0.83289934       1.49857728      -1.01577887
H        0.71824662       1.71973200       0.74575237
12
Frame=15 idx=003498 GeodesicLength=1.435258731732268 rxn_smarts="[O:1]([C:2]1([H:8])[C:3]([H:9])([H:10])[C:4](=[O:5])[C:6]1([H:11])[H:12])[H:7]>>[H:7][H:8].[O:1]=[C:2]1[C:3]([H:9])([H:10])[C:4](=[O:5])[C:6]1([H:11])[H:12]"
O        1.54238375      -1.00757209       0.72992170
C        0.54023374      -0.39257285       0.18500017
C       -0.95040322      -0.55630673       0.48111364
C       -1.11658604       0.83795337      -0.12516830
O       -2.06232532       1.49012547      -0.44219441
C        0.38803104       1.11283097      -0.09279917
H        1.80270381      -1.61282078      -0.71143240
H        0.93196766      -1.12415189      -1.29178641
H       -1.15150642      -0.60277693       1.55349906
H       -1.46513610      -1.37293427      -0.02432900
H        0.82850844       1.50088570      -1.01140169
H        0.71212868       1.72734003       0.74957680
12
Frame=16 idx=003498 GeodesicLength=1.5308407559414903 rxn_smarts="[O:1]([C:2]1([H:8])[C:3]([H:9])([H:10])[C:4](=[O:5])[C:6]1([H:11])[H:12])[H:7]>>[H:7][H:8].[O:1]=[C:2]1[C:3]([H:9])([H:10])[C:4](=[O:5])[C:6]1([H:11])[H:12]"
O        1.53746021      -1.01293442       0.71189509
C        0.53103052      -0.38609174       0.19039243
C       -0.95772835      -0.54968933       0.48782288
C       -1.12239271       0.84233879      -0.12421714
O       -2.06774375       1.49502295      -0.44165324
C        0.38200660       1.11866429      -0.08743206
H        1.84446966      -1.64555627      -0.72849717
H        0.95347876      -1.13757479      -1.29614574
H       -1.16022992      -0.59505670       1.55988324
H       -1.46997241      -1.36753591      -0.01835976
H        0.82376942       1.50315658      -1.00706100
H        0.70585196       1.73525654       0.75337248
