12
Frame=0 idx=007071 GeodesicLength=0.0 rxn_smarts="[O:1]=[C:2]1[N:3]([H:8])[C:4]([H:9])([H:10])[C@@:5]2([H:11])[O:6][C@@:7]12[H:12]>>[O:1]=[C:2]=[N:3][C:4]([C@@:5]1([H:11])[O:6][C:7]1([H:8])[H:12])([H:9])[H:10]"
O        1.14333655       2.34454000      -0.07686095
C        0.88984319       1.18331836      -0.03246769
N        1.46832181       0.00567378      -0.21671949
C        0.50119087      -1.01703260      -0.59640159
C       -0.87569587      -0.61056111      -0.09027441
O       -0.91293213      -0.49357832       1.32835855
C       -0.77615573       0.69511739       0.52646420
H        0.57284310       0.44384008       0.98034439
H        0.80401473      -1.99087732      -0.21056572
H        0.47685271      -1.07347518      -1.68849354
H       -1.78450792      -0.97223865      -0.55452969
H       -1.50711136       1.48527353       0.63114597
12
Frame=1 idx=007071 GeodesicLength=0.2289598220381377 rxn_smarts="[O:1]=[C:2]1[N:3]([H:8])[C:4]([H:9])([H:10])[C@@:5]2([H:11])[O:6][C@@:7]12[H:12]>>[O:1]=[C:2]=[N:3][C:4]([C@@:5]1([H:11])[O:6][C:7]1([H:8])[H:12])([H:9])[H:10]"
O        1.20082882       2.37288173      -0.01355173
C        0.94712623       1.21310213      -0.06239404
N        1.45634012       0.00895361      -0.23715445
C        0.49741771      -1.02434113      -0.59423362
C       -0.88212321      -0.62693940      -0.09068467
O       -0.92460628      -0.49830820       1.32548963
C       -0.81151941       0.68621024       0.51506863
H        0.54101938       0.48171562       0.92081145
H        0.81201824      -1.99021132      -0.19748887
H        0.46739922      -1.10215677      -1.68490085
H       -1.78546772      -1.00942419      -0.54963000
H       -1.51843310       1.48851767       0.66866852
12
Frame=2 idx=007071 GeodesicLength=0.45756948278457665 rxn_smarts="[O:1]=[C:2]1[N:3]([H:8])[C:4]([H:9])([H:10])[C@@:5]2([H:11])[O:6][C@@:7]12[H:12]>>[O:1]=[C:2]=[N:3][C:4]([C@@:5]1([H:11])[O:6][C:7]1([H:8])[H:12])([H:9])[H:10]"
O        1.26041591       2.39550803       0.04990825
C        1.01361013       1.24230122      -0.08733375
N        1.44342100       0.01300894      -0.25658671
C        0.49307988      -1.02999755      -0.59237313
C       -0.88920951      -0.64425950      -0.09005005
O       -0.93494346      -0.50213670       1.32353831
C       -0.85171642       0.67664104       0.50253175
H        0.50407888       0.52442062       0.85388892
H        0.82012344      -1.98801431      -0.18627771
H        0.45753644      -1.12723826      -1.68136386
H       -1.78619890      -1.05125987      -0.54113724
H       -1.53019739       1.49102633       0.70525522
12
Frame=3 idx=007071 GeodesicLength=0.6855570320367543 rxn_smarts="[O:1]=[C:2]1[N:3]([H:8])[C:4]([H:9])([H:10])[C@@:5]2([H:11])[O:6][C@@:7]12[H:12]>>[O:1]=[C:2]=[N:3][C:4]([C@@:5]1([H:11])[O:6][C:7]1([H:8])[H:12])([H:9])[H:10]"
O        1.32286628       2.41234535       0.11568578
C        1.09165818       1.26946538      -0.10414280
N        1.42925923       0.01801488      -0.27540421
C        0.48783967      -1.03374475      -0.59114688
C       -0.89694883      -0.66305579      -0.08752395
O       -0.94250539      -0.50384733       1.32317980
C       -0.89766137       0.66616189       0.48811083
H        0.46048296       0.57357203       0.77550554
H        0.82840037      -1.98412735      -0.17777280
H        0.44624098      -1.14787561      -1.67833399
H       -1.78640583      -1.09953374      -0.52660520
H       -1.54322624       1.49262505       0.73844788
12
Frame=4 idx=007071 GeodesicLength=0.9126132930733958 rxn_smarts="[O:1]=[C:2]1[N:3]([H:8])[C:4]([H:9])([H:10])[C@@:5]2([H:11])[O:6][C@@:7]12[H:12]>>[O:1]=[C:2]=[N:3][C:4]([C@@:5]1([H:11])[O:6][C:7]1([H:8])[H:12])([H:9])[H:10]"
O        1.38867025       2.42294281       0.18649799
C        1.18485138       1.29183183      -0.10600249
N        1.41359453       0.02439779      -0.29439697
C        0.48128006      -1.03533231      -0.59118605
C       -0.90522024      -0.68414992      -0.08162839
O       -0.94479875      -0.50125216       1.32536361
C       -0.95041821       0.65441943       0.47084314
H        0.40798535       0.63197858       0.67801128
H        0.83696773      -1.97855515      -0.17357431
H        0.43196500      -1.16286077      -1.67658715
H       -1.78569101      -1.15660029      -0.50203033
H       -1.55918608       1.49318017       0.76468967
12
Frame=5 idx=007071 GeodesicLength=1.1367446002198502 rxn_smarts="[O:1]=[C:2]1[N:3]([H:8])[C:4]([H:9])([H:10])[C@@:5]2([H:11])[O:6][C@@:7]12[H:12]>>[O:1]=[C:2]=[N:3][C:4]([C@@:5]1([H:11])[O:6][C:7]1([H:8])[H:12])([H:9])[H:10]"
O        1.45893288       2.42556282       0.26894007
C        1.29666070       1.30389310      -0.07859048
N        1.39603570       0.03376542      -0.31697086
C        0.47306332      -1.03502011      -0.59394527
C       -0.91354436      -0.70902923      -0.06965250
O       -0.93684369      -0.48936780       1.33197364
C       -1.01141855       0.64121737       0.44911759
H        0.34294233       0.70572524       0.54416710
H        0.84675237      -1.97149693      -0.17587311
H        0.41207496      -1.17225786      -1.67799683
H       -1.78330158      -1.22624088      -0.46057713
H       -1.58135408       1.49324887       0.77940778
12
Frame=6 idx=007071 GeodesicLength=1.3331786459241088 rxn_smarts="[O:1]=[C:2]1[N:3]([H:8])[C:4]([H:9])([H:10])[C@@:5]2([H:11])[O:6][C@@:7]12[H:12]>>[O:1]=[C:2]=[N:3][C:4]([C@@:5]1([H:11])[O:6][C:7]1([H:8])[H:12])([H:9])[H:10]"
O        1.53244590       2.40599396       0.38212134
C        1.41070578       1.29123089      -0.00133441
N        1.37319757       0.04948048      -0.35181999
C        0.46348184      -1.03253073      -0.59995414
C       -0.91697736      -0.73578416      -0.04633624
O       -0.90405290      -0.45875453       1.34384861
C       -1.07460850       0.62757245       0.42246393
H        0.25925304       0.80348588       0.33327544
H        0.86216477      -1.95959659      -0.18351682
H        0.38154080      -1.17823811      -1.68123642
H       -1.77443607      -1.30311997      -0.39219664
H       -1.61271487       1.49026043       0.77468533
12
Frame=7 idx=007071 GeodesicLength=1.4921514755997147 rxn_smarts="[O:1]=[C:2]1[N:3]([H:8])[C:4]([H:9])([H:10])[C@@:5]2([H:11])[O:6][C@@:7]12[H:12]>>[O:1]=[C:2]=[N:3][C:4]([C@@:5]1([H:11])[O:6][C:7]1([H:8])[H:12])([H:9])[H:10]"
O        1.58889957       2.35519999       0.51954333
C        1.46216955       1.24907515       0.11380425
N        1.34723239       0.07600300      -0.40592452
C        0.45828267      -1.03178516      -0.60820602
C       -0.90960633      -0.75117257      -0.01651222
O       -0.85198952      -0.41412988       1.35781945
C       -1.10207255       0.62478017       0.40442834
H        0.18214864       0.90839370       0.06073809
H        0.88568450      -1.94401425      -0.18726598
H        0.34787300      -1.19729773      -1.68404551
H       -1.75978205      -1.35647502      -0.31249341
H       -1.64883986       1.48142260       0.75811420
12
Frame=8 idx=007071 GeodesicLength=1.6826331751921044 rxn_smarts="[O:1]=[C:2]1[N:3]([H:8])[C:4]([H:9])([H:10])[C@@:5]2([H:11])[O:6][C@@:7]12[H:12]>>[O:1]=[C:2]=[N:3][C:4]([C@@:5]1([H:11])[O:6][C:7]1([H:8])[H:12])([H:9])[H:10]"
O        1.61949292       2.30952471       0.59906093
C        1.45368734       1.20318792       0.20844728
N        1.32659893       0.10127087      -0.44544168
C        0.45856083      -1.03084817      -0.61334902
C       -0.89894268      -0.75277509       0.00458706
O       -0.81935234      -0.38827276       1.36950853
C       -1.08938884       0.63178149       0.40366632
H        0.14249155       0.97829821      -0.13976947
H        0.90624561      -1.93071113      -0.18708674
H        0.32708103      -1.21534727      -1.68359913
H       -1.74891469      -1.37139338      -0.26398424
H       -1.67755967       1.46528460       0.74796015
12
Frame=9 idx=007071 GeodesicLength=1.8811138048381892 rxn_smarts="[O:1]=[C:2]1[N:3]([H:8])[C:4]([H:9])([H:10])[C@@:5]2([H:11])[O:6][C@@:7]12[H:12]>>[O:1]=[C:2]=[N:3][C:4]([C@@:5]1([H:11])[O:6][C:7]1([H:8])[H:12])([H:9])[H:10]"
O        1.64446562       2.26479319       0.65934146
C        1.42826339       1.16630205       0.27161754
N        1.30660734       0.12494237      -0.47553135
C        0.45998339      -1.02871984      -0.61570296
C       -0.88810174      -0.75022973       0.02201499
O       -0.79740953      -0.37159325       1.38089491
C       -1.06472845       0.64110532       0.40767528
H        0.11780876       1.02876699      -0.29132824
H        0.92515262      -1.91687116      -0.18392660
H        0.31091010      -1.23037804      -1.68026445
H       -1.73997093      -1.37193476      -0.23146203
H       -1.70298058       1.44381686       0.73667145
12
Frame=10 idx=007071 GeodesicLength=2.081441319637581 rxn_smarts="[O:1]=[C:2]1[N:3]([H:8])[C:4]([H:9])([H:10])[C@@:5]2([H:11])[O:6][C@@:7]12[H:12]>>[O:1]=[C:2]=[N:3][C:4]([C@@:5]1([H:11])[O:6][C:7]1([H:8])[H:12])([H:9])[H:10]"
O        1.66848148       2.22032006       0.71088653
C        1.39972044       1.13474265       0.31958606
N        1.28666696       0.14886722      -0.50062681
C        0.46182399      -1.02561448      -0.61702105
C       -0.87808806      -0.74698980       0.03838759
O       -0.78151758      -0.35798539       1.39257234
C       -1.03811550       0.65114083       0.41286795
H        0.09938837       1.07008960      -0.41877427
H        0.94326218      -1.90265986      -0.18070237
H        0.29718982      -1.24286207      -1.67598675
H       -1.73253638      -1.36920085      -0.20494480
H       -1.72627571       1.42015208       0.72375557
12
Frame=11 idx=007071 GeodesicLength=2.2822672416032552 rxn_smarts="[O:1]=[C:2]1[N:3]([H:8])[C:4]([H:9])([H:10])[C@@:5]2([H:11])[O:6][C@@:7]12[H:12]>>[O:1]=[C:2]=[N:3][C:4]([C@@:5]1([H:11])[O:6][C:7]1([H:8])[H:12])([H:9])[H:10]"
O        1.69207831       2.17441036       0.75827148
C        1.37128330       1.10556680       0.35965760
N        1.26549800       0.17357096      -0.52260954
C        0.46360238      -1.02127846      -0.61774244
C       -0.86834244      -0.74339084       0.05460360
O       -0.76872103      -0.34492251       1.40456012
C       -1.01151209       0.66132855       0.41806025
H        0.08322900       1.10589310      -0.53338959
H        0.96107839      -1.88729962      -0.17788598
H        0.28416747      -1.25292634      -1.67113361
H       -1.72496735      -1.36564648      -0.18052975
H       -1.74739393       1.39469449       0.70813788
12
Frame=12 idx=007071 GeodesicLength=2.4833399862813574 rxn_smarts="[O:1]=[C:2]1[N:3]([H:8])[C:4]([H:9])([H:10])[C@@:5]2([H:11])[O:6][C@@:7]12[H:12]>>[O:1]=[C:2]=[N:3][C:4]([C@@:5]1([H:11])[O:6][C:7]1([H:8])[H:12])([H:9])[H:10]"
O        1.71531288       2.12642418       0.80333753
C        1.34406488       1.07745720       0.39510679
N        1.24278127       0.19960583      -0.54214985
C        0.46539736      -1.01571935      -0.61801865
C       -0.85881543      -0.73971915       0.07099958
O       -0.75822905      -0.33179344       1.41677830
C       -0.98597283       0.67160148       0.42304465
H        0.06774906       1.13766697      -0.64152763
H        0.97895664      -1.87079391      -0.17567597
H        0.27181223      -1.26080889      -1.66575148
H       -1.71701203      -1.36244684      -0.15676483
H       -1.76604498       1.36852593       0.69062155
12
Frame=13 idx=007071 GeodesicLength=2.684596890471323 rxn_smarts="[O:1]=[C:2]1[N:3]([H:8])[C:4]([H:9])([H:10])[C@@:5]2([H:11])[O:6][C@@:7]12[H:12]>>[O:1]=[C:2]=[N:3][C:4]([C@@:5]1([H:11])[O:6][C:7]1([H:8])[H:12])([H:9])[H:10]"
O        1.73812341       2.07601993       0.84691396
C        1.31861570       1.04937492       0.42803927
N        1.21813701       0.22735929      -0.55941591
C        0.46727133      -1.00879536      -0.61785867
C       -0.84937542      -0.73597007       0.08775360
O       -0.74957778      -0.31839489       1.42928894
C       -0.96167235       0.68191341       0.42794882
H        0.05183187       1.16553282      -0.74726388
H        0.99714185      -1.85290184      -0.17410305
H        0.26007180      -1.26652083      -1.65982216
H       -1.70846985      -1.35977044      -0.13318518
H       -1.78209756       1.34215306       0.67170427
12
Frame=14 idx=007071 GeodesicLength=2.8860572080030122 rxn_smarts="[O:1]=[C:2]1[N:3]([H:8])[C:4]([H:9])([H:10])[C@@:5]2([H:11])[O:6][C@@:7]12[H:12]>>[O:1]=[C:2]=[N:3][C:4]([C@@:5]1([H:11])[O:6][C:7]1([H:8])[H:12])([H:9])[H:10]"
O        1.76043357       2.02293092       0.88956305
C        1.29524448       1.02048417       0.45984429
N        1.19116036       0.25731011      -0.57433467
C        0.46931309      -1.00027977      -0.61722603
C       -0.83989980      -0.73206125       0.10497190
O       -0.74254655      -0.30474147       1.44215292
C       -0.93853933       0.69230485       0.43303120
H        0.03463983       1.18882096      -0.85376506
H        1.01580334      -1.83336766      -0.17319170
H        0.24903147      -1.26993138      -1.65328357
H       -1.69920081      -1.35750870      -0.10968410
H       -1.79543963       1.31603923       0.65192178
12
Frame=15 idx=007071 GeodesicLength=3.087704796777964 rxn_smarts="[O:1]=[C:2]1[N:3]([H:8])[C:4]([H:9])([H:10])[C@@:5]2([H:11])[O:6][C@@:7]12[H:12]>>[O:1]=[C:2]=[N:3][C:4]([C@@:5]1([H:11])[O:6][C:7]1([H:8])[H:12])([H:9])[H:10]"
O        1.78236559       1.96713634       0.93179541
C        1.27427800       0.99011843       0.49161248
N        1.16147722       0.29004290      -0.58666683
C        0.47165227      -0.98988239      -0.61613990
C       -0.83035253      -0.72786076       0.12272012
O       -0.73712374      -0.29088314       1.45555473
C       -0.91643631       0.70290181       0.43873208
H        0.01550307       1.20604474      -0.96377228
H        1.03510506      -1.81190676      -0.17308651
H        0.23888387      -1.27088144      -1.64622164
H       -1.68924688      -1.35543166      -0.08640442
H       -1.80610561       1.29060193       0.63187675
12
Frame=16 idx=007071 GeodesicLength=3.2894801169585666 rxn_smarts="[O:1]=[C:2]1[N:3]([H:8])[C:4]([H:9])([H:10])[C@@:5]2([H:11])[O:6][C@@:7]12[H:12]>>[O:1]=[C:2]=[N:3][C:4]([C@@:5]1([H:11])[O:6][C:7]1([H:8])[H:12])([H:9])[H:10]"
O        1.80413315       1.90855567       0.97419403
C        1.25592908       0.95775868       0.52408705
N        1.12863004       0.32634399      -0.59602597
C        0.47441979      -0.97714263      -0.61463468
C       -0.82074386      -0.72316614       0.14101864
O       -0.73334487      -0.27697807       1.46970834
C       -0.89523892       0.71389646       0.44560594
H       -0.00593096       1.21487660      -1.07988024
H        1.05515840      -1.78813451      -0.17398931
H        0.22989082      -1.26903215      -1.63876076
H       -1.67872097      -1.35322123      -0.06363030
H       -1.81418171       1.26624335       0.61230725
