11
Frame=0 idx=006992 GeodesicLength=0.0 rxn_smarts="[N:1]([c:2]1[c:3]([H:10])[n:4][c:5]([H:11])[n:6][n:7]1)([H:8])[H:9]>>[N:1]([C:2]1=[C:3]([H:10])[N+:4]([H:11])=[C:5]=[N:6][N-:7]1)([H:8])[H:9]"
N        1.85184518      -0.09085195      -0.69370883
C        0.53976617      -0.14159166      -0.30210618
C       -0.02652147       0.74042567       0.60806515
N       -1.34942892       0.70096423       0.67505579
C       -2.11529902      -0.27517620       0.08359087
N       -1.48184679      -1.23711097      -0.61434925
N       -0.20416824      -1.11052423      -0.86031619
H        2.51391276       0.34159961      -0.07461982
H        2.17510627      -0.91964501      -1.16529238
H        0.52564378       1.45255415       1.21002602
H       -2.42900972       0.53935632       1.13365477
11
Frame=1 idx=006992 GeodesicLength=0.029248978195995895 rxn_smarts="[N:1]([c:2]1[c:3]([H:10])[n:4][c:5]([H:11])[n:6][n:7]1)([H:8])[H:9]>>[N:1]([C:2]1=[C:3]([H:10])[N+:4]([H:11])=[C:5]=[N:6][N-:7]1)([H:8])[H:9]"
N        1.85219607      -0.09090536      -0.69363601
C        0.54080676      -0.14457827      -0.29980471
C       -0.02750039       0.74016556       0.60660694
N       -1.35074729       0.70820606       0.66888234
C       -2.11581896      -0.26267577       0.07190142
N       -1.48128943      -1.23599047      -0.60915951
N       -0.20341040      -1.11335523      -0.85714908
H        2.51437231       0.34036533      -0.07383971
H        2.17565443      -0.91884791      -1.16658957
H        0.52522094       1.45296550       1.20733275
H       -2.42948403       0.52465055       1.14545515
11
Frame=2 idx=006992 GeodesicLength=0.05850959557168367 rxn_smarts="[N:1]([c:2]1[c:3]([H:10])[n:4][c:5]([H:11])[n:6][n:7]1)([H:8])[H:9]>>[N:1]([C:2]1=[C:3]([H:10])[N+:4]([H:11])=[C:5]=[N:6][N-:7]1)([H:8])[H:9]"
N        1.85251634      -0.09092642      -0.69355586
C        0.54183877      -0.14755242      -0.29744983
C       -0.02844330       0.73983274       0.60528959
N       -1.35196656       0.71525333       0.66296656
C       -2.11601786      -0.25114219       0.06150822
N       -1.48084081      -1.23455682      -0.60435433
N       -0.20270982      -1.11604139      -0.85409288
H        2.51484488       0.33904084      -0.07301755
H        2.17611985      -0.91794082      -1.16804326
H        0.52483959       1.45340087       1.20465710
H       -2.43018107       0.51063227       1.15609222
11
Frame=3 idx=006992 GeodesicLength=0.08778346044999163 rxn_smarts="[N:1]([c:2]1[c:3]([H:10])[n:4][c:5]([H:11])[n:6][n:7]1)([H:8])[H:9]>>[N:1]([C:2]1=[C:3]([H:10])[N+:4]([H:11])=[C:5]=[N:6][N-:7]1)([H:8])[H:9]"
N        1.85282690      -0.09094548      -0.69345872
C        0.54283360      -0.15041067      -0.29517868
C       -0.02938268       0.73956915       0.60393747
N       -1.35311670       0.72217746       0.65722321
C       -2.11597871      -0.24037267       0.05214667
N       -1.48046511      -1.23289650      -0.59982184
N       -0.20206629      -1.11857058      -0.85116678
H        2.51531589       0.33764076      -0.07213731
H        2.17652769      -0.91702967      -1.16950934
H        0.52449577       1.45378400       1.20205732
H       -2.43099038       0.49705422       1.16590800
11
Frame=4 idx=006992 GeodesicLength=0.11707153103075704 rxn_smarts="[N:1]([c:2]1[c:3]([H:10])[n:4][c:5]([H:11])[n:6][n:7]1)([H:8])[H:9]>>[N:1]([C:2]1=[C:3]([H:10])[N+:4]([H:11])=[C:5]=[N:6][N-:7]1)([H:8])[H:9]"
N        1.85311011      -0.09096640      -0.69337385
C        0.54380515      -0.15321619      -0.29292358
C       -0.03030456       0.73931900       0.60261297
N       -1.35419101       0.72899009       0.65165354
C       -2.11576269      -0.23014041       0.04353952
N       -1.48017856      -1.23099486      -0.59558215
N       -0.20146070      -1.12103587      -0.84825516
H        2.51577471       0.33631137      -0.07133972
H        2.17689535      -0.91616432      -1.17091356
H        0.52419948       1.45411287       1.19953456
H       -2.43188727       0.48378473       1.17504742
11
Frame=5 idx=006992 GeodesicLength=0.14637691704996694 rxn_smarts="[N:1]([c:2]1[c:3]([H:10])[n:4][c:5]([H:11])[n:6][n:7]1)([H:8])[H:9]>>[N:1]([C:2]1=[C:3]([H:10])[N+:4]([H:11])=[C:5]=[N:6][N-:7]1)([H:8])[H:9]"
N        1.85335667      -0.09098962      -0.69330409
C        0.54476800      -0.15602426      -0.29061332
C       -0.03119945       0.73903569       0.60137212
N       -1.35518655       0.73570395       0.64625304
C       -2.11540703      -0.22029395       0.03550427
N       -1.47998271      -1.22886252      -0.59162677
N       -0.20088249      -1.12348530      -0.84529557
H        2.51622587       0.33508270      -0.07066357
H        2.17722151      -0.91533275      -1.17227521
H        0.52394810       1.45443607       1.19704403
H       -2.43286192       0.47072999       1.18360506
11
Frame=6 idx=006992 GeodesicLength=0.17573154348209355 rxn_smarts="[N:1]([c:2]1[c:3]([H:10])[n:4][c:5]([H:11])[n:6][n:7]1)([H:8])[H:9]>>[N:1]([C:2]1=[C:3]([H:10])[N+:4]([H:11])=[C:5]=[N:6][N-:7]1)([H:8])[H:9]"
N        1.85357836      -0.09101431      -0.69327459
C        0.54574998      -0.15891353      -0.28815906
C       -0.03206625       0.73873311       0.60022681
N       -1.35612379       0.74236001       0.64100466
C       -2.11496565      -0.21071616       0.02789474
N       -1.47990258      -1.22652775      -0.58793856
N       -0.20032860      -1.12598220      -0.84223659
H        2.51670666       0.33404415      -0.07020307
H        2.17754095      -0.91455137      -1.17360951
H        0.52375782       1.45472956       1.19465359
H       -2.43394689       0.45783848       1.19164157
11
Frame=7 idx=006992 GeodesicLength=0.20508206870325799 rxn_smarts="[N:1]([c:2]1[c:3]([H:10])[n:4][c:5]([H:11])[n:6][n:7]1)([H:8])[H:9]>>[N:1]([C:2]1=[C:3]([H:10])[N+:4]([H:11])=[C:5]=[N:6][N-:7]1)([H:8])[H:9]"
N        1.85367257      -0.09100376      -0.69329855
C        0.54679094      -0.16207221      -0.28530953
C       -0.03286982       0.73820889       0.59938763
N       -1.35693187       0.74894751       0.63587311
C       -2.11438416      -0.20125582       0.02052489
N       -1.47991522      -1.22393678      -0.58454403
N       -0.19975282      -1.12865132      -0.83885956
H        2.51714649       0.33326185      -0.07006033
H        2.17775920      -0.91366617      -1.17506003
H        0.52361459       1.45502138       1.19229211
H       -2.43512992       0.44514642       1.19905428
11
Frame=8 idx=006992 GeodesicLength=0.23440018373064042 rxn_smarts="[N:1]([c:2]1[c:3]([H:10])[n:4][c:5]([H:11])[n:6][n:7]1)([H:8])[H:9]>>[N:1]([C:2]1=[C:3]([H:10])[N+:4]([H:11])=[C:5]=[N:6][N-:7]1)([H:8])[H:9]"
N        1.85380413      -0.09105854      -0.69318309
C        0.54772493      -0.16488754      -0.28283190
C       -0.03370990       0.73788982       0.59829656
N       -1.35770406       0.75547040       0.63079358
C       -2.11367765      -0.19232783       0.01387230
N       -1.47987907      -1.22128538      -0.58120614
N       -0.19927647      -1.13092077      -0.83591183
H        2.51755236       0.33210417      -0.06950595
H        2.17790956      -0.91287062      -1.17635512
H        0.52344355       1.45545948       1.18971123
H       -2.43618738       0.43242683       1.20632036
11
Frame=9 idx=006992 GeodesicLength=0.26376151837746825 rxn_smarts="[N:1]([c:2]1[c:3]([H:10])[n:4][c:5]([H:11])[n:6][n:7]1)([H:8])[H:9]>>[N:1]([C:2]1=[C:3]([H:10])[N+:4]([H:11])=[C:5]=[N:6][N-:7]1)([H:8])[H:9]"
N        1.85395284      -0.09108870      -0.69306820
C        0.54865695      -0.16766989      -0.28035850
C       -0.03454353       0.73756628       0.59726144
N       -1.35844549       0.76200079       0.62572543
C       -2.11291496      -0.18371728       0.00766067
N       -1.47987080      -1.21860787      -0.57793441
N       -0.19881705      -1.13316589      -0.83298261
H        2.51800697       0.33085665      -0.06889530
H        2.17803807      -0.91200105      -1.17779040
H        0.52329411       1.45590202       1.18718256
H       -2.43735710       0.41992496       1.21319930
11
Frame=10 idx=006992 GeodesicLength=0.29313591619174734 rxn_smarts="[N:1]([c:2]1[c:3]([H:10])[n:4][c:5]([H:11])[n:6][n:7]1)([H:8])[H:9]>>[N:1]([C:2]1=[C:3]([H:10])[N+:4]([H:11])=[C:5]=[N:6][N-:7]1)([H:8])[H:9]"
N        1.85407800      -0.09108814      -0.69295209
C        0.54958607      -0.17044320      -0.27784685
C       -0.03537048       0.73724580       0.59625809
N       -1.35913547       0.76854539       0.62063570
C       -2.11207431      -0.17535759       0.00180148
N       -1.47986802      -1.21588862      -0.57470814
N       -0.19835971      -1.13541642      -0.82999109
H        2.51847112       0.32953056      -0.06824759
H        2.17809828      -0.91102617      -1.17937272
H        0.52316384       1.45630535       1.18472071
H       -2.43858932       0.40759304       1.21970250
11
Frame=11 idx=006992 GeodesicLength=0.3225277865079304 rxn_smarts="[N:1]([c:2]1[c:3]([H:10])[n:4][c:5]([H:11])[n:6][n:7]1)([H:8])[H:9]>>[N:1]([C:2]1=[C:3]([H:10])[N+:4]([H:11])=[C:5]=[N:6][N-:7]1)([H:8])[H:9]"
N        1.85418408      -0.09106755      -0.69280368
C        0.55051747      -0.17322475      -0.27526344
C       -0.03618649       0.73690832       0.59532613
N       -1.35976921       0.77508603       0.61556508
C       -2.11116509      -0.16719666      -0.00376263
N       -1.47988099      -1.21310141      -0.57157041
N       -0.19790129      -1.13768173      -0.82692010
H        2.51896004       0.32804915      -0.06749782
H        2.17807292      -0.90991525      -1.18115641
H        0.52304219       1.45680814       1.18219035
H       -2.43987365       0.39533571       1.22589292
11
Frame=12 idx=006992 GeodesicLength=0.3519343113905513 rxn_smarts="[N:1]([c:2]1[c:3]([H:10])[n:4][c:5]([H:11])[n:6][n:7]1)([H:8])[H:9]>>[N:1]([C:2]1=[C:3]([H:10])[N+:4]([H:11])=[C:5]=[N:6][N-:7]1)([H:8])[H:9]"
N        1.85429469      -0.09104497      -0.69257624
C        0.55143514      -0.17595504      -0.27267484
C       -0.03700828       0.73661780       0.59438576
N       -1.36036377       0.78161831       0.61051297
C       -2.11020208      -0.15924893      -0.00900584
N       -1.47989915      -1.21024623      -0.56850754
N       -0.19745396      -1.13989440      -0.82384230
H        2.51948520       0.32627668      -0.06651241
H        2.17795659      -0.90866214      -1.18314053
H        0.52290972       1.45748851       1.17948578
H       -2.44115410       0.38305040       1.23187519
11
Frame=13 idx=006992 GeodesicLength=0.38135339914856453 rxn_smarts="[N:1]([c:2]1[c:3]([H:10])[n:4][c:5]([H:11])[n:6][n:7]1)([H:8])[H:9]>>[N:1]([C:2]1=[C:3]([H:10])[N+:4]([H:11])=[C:5]=[N:6][N-:7]1)([H:8])[H:9]"
N        1.85441477      -0.09102418      -0.69233018
C        0.55232093      -0.17856942      -0.27019408
C       -0.03783675       0.73640168       0.59337958
N       -1.36092218       0.78817623       0.60541589
C       -2.10919705      -0.15155571      -0.01389877
N       -1.47990784      -1.20739411      -0.56543840
N       -0.19704292      -1.14199939      -0.82086669
H        2.52001404       0.32442090      -0.06545003
H        2.17781009      -0.90741979      -1.18510671
H        0.52279651       1.45812337       1.17684064
H       -2.44244960       0.37084044       1.23764876
11
Frame=14 idx=006992 GeodesicLength=0.4107740998112135 rxn_smarts="[N:1]([c:2]1[c:3]([H:10])[n:4][c:5]([H:11])[n:6][n:7]1)([H:8])[H:9]>>[N:1]([C:2]1=[C:3]([H:10])[N+:4]([H:11])=[C:5]=[N:6][N-:7]1)([H:8])[H:9]"
N        1.85456243      -0.09100614      -0.69203045
C        0.55316315      -0.18102448      -0.26787615
C       -0.03869585       0.73632128       0.59222294
N       -1.36146702       0.79477394       0.60023248
C       -2.10815460      -0.14414692      -0.01840528
N       -1.47986980      -1.20457841      -0.56229286
N       -0.19666490      -1.14394837      -0.81805121
H        2.52055247       0.32232703      -0.06416991
H        2.17762283      -0.90613628      -1.18712047
H        0.52266613       1.45873509       1.17421454
H       -2.44371484       0.35868326       1.24327635
11
Frame=15 idx=006992 GeodesicLength=0.44018949992364914 rxn_smarts="[N:1]([c:2]1[c:3]([H:10])[n:4][c:5]([H:11])[n:6][n:7]1)([H:8])[H:9]>>[N:1]([C:2]1=[C:3]([H:10])[N+:4]([H:11])=[C:5]=[N:6][N-:7]1)([H:8])[H:9]"
N        1.85469325      -0.09097010      -0.69177752
C        0.55398461      -0.18340646      -0.26563947
C       -0.03955203       0.73623983       0.59105545
N       -1.36196065       0.80141665       0.59494197
C       -2.10706726      -0.13695262      -0.02261020
N       -1.47980840      -1.20177561      -0.55911084
N       -0.19629791      -1.14585301      -0.81526055
H        2.52106270       0.32034732      -0.06300724
H        2.17743448      -0.90489583      -1.18905134
H        0.52256334       1.45911319       1.17182335
H       -2.44505212       0.34673664       1.24863638
11
Frame=16 idx=006992 GeodesicLength=0.46960654369487353 rxn_smarts="[N:1]([c:2]1[c:3]([H:10])[n:4][c:5]([H:11])[n:6][n:7]1)([H:8])[H:9]>>[N:1]([C:2]1=[C:3]([H:10])[N+:4]([H:11])=[C:5]=[N:6][N-:7]1)([H:8])[H:9]"
N        1.85483527      -0.09093414      -0.69153410
C        0.55477600      -0.18568525      -0.26352648
C       -0.04041296       0.73621649       0.58981719
N       -1.36241618       0.80810712       0.58954155
C       -2.10595883      -0.13000118      -0.02648805
N       -1.47973270      -1.19900580      -0.55589425
N       -0.19597144      -1.14765090      -0.81260772
H        2.52156204       0.31839647      -0.06184875
H        2.17725323      -0.90371701      -1.19088700
H        0.52248049       1.45935079       1.16959264
H       -2.44641492       0.33492342       1.25383497
