12
Frame=0 idx=001880 GeodesicLength=0.0 rxn_smarts="[O:1]([C:2]([C:3](=[O:4])[C:5]([O:6][H:12])([H:10])[H:11])([H:8])[H:9])[H:7]>>[H:9][H:10].[O:1]([C:2](=[C:3]([O-:4])[C+:5]([O:6][H:12])[H:11])[H:8])[H:7]"
O        2.37327076       0.08673845      -0.23078116
C        1.20536239      -0.26732173       0.29254418
C        0.05111258       0.46243956      -0.17501289
O        0.18032884       1.62356246      -0.61780388
C       -1.25204392      -0.15556592      -0.12998374
O       -2.29057514       0.66976000      -0.06416910
H        2.19073453       0.71764173      -0.94571670
H        1.31142131      -0.62151467       1.30715318
H        0.21172871      -1.62059940       0.40335824
H       -0.54419933      -1.39775703       0.75682689
H       -1.49596517      -1.06370371      -0.66102149
H       -1.94117551       1.56632024       0.06460643
12
Frame=1 idx=001880 GeodesicLength=0.07075349294472044 rxn_smarts="[O:1]([C:2]([C:3](=[O:4])[C:5]([O:6][H:12])([H:10])[H:11])([H:8])[H:9])[H:7]>>[H:9][H:10].[O:1]([C:2](=[C:3]([O-:4])[C+:5]([O:6][H:12])[H:11])[H:8])[H:7]"
O        2.37131767       0.08572423      -0.23944913
C        1.20516352      -0.27280301       0.28757588
C        0.05095226       0.46195641      -0.17469447
O        0.18029473       1.62246093      -0.61802966
C       -1.25280320      -0.15603367      -0.12173448
O       -2.28820899       0.67507521      -0.05636418
H        2.18393419       0.73312149      -0.93883422
H        1.31221183      -0.60998000       1.30863725
H        0.22227268      -1.63832642       0.41239191
H       -0.55719038      -1.41730877       0.75910991
H       -1.49621202      -1.05626636      -0.66762099
H       -1.93173229       1.57237997       0.04901217
12
Frame=2 idx=001880 GeodesicLength=0.1415069132819566 rxn_smarts="[O:1]([C:2]([C:3](=[O:4])[C:5]([O:6][H:12])([H:10])[H:11])([H:8])[H:9])[H:7]>>[H:9][H:10].[O:1]([C:2](=[C:3]([O-:4])[C+:5]([O:6][H:12])[H:11])[H:8])[H:7]"
O        2.36923395       0.08459668      -0.24834089
C        1.20490118      -0.27812142       0.28268854
C        0.05081111       0.46161989      -0.17447025
O        0.18027199       1.62149370      -0.61836757
C       -1.25347747      -0.15643513      -0.11358739
O       -2.28569907       0.68046717      -0.04821340
H        2.17724566       0.74836118      -0.93158323
H        1.31301764      -0.59833923       1.30986305
H        0.23328460      -1.65601521       0.42186451
H       -0.57065356      -1.43707415       0.76094862
H       -1.49648759      -1.04857202      -0.67408984
H       -1.92244845       1.57801854       0.03328787
12
Frame=3 idx=001880 GeodesicLength=0.21225931593378855 rxn_smarts="[O:1]([C:2]([C:3](=[O:4])[C:5]([O:6][H:12])([H:10])[H:11])([H:8])[H:9])[H:7]>>[H:9][H:10].[O:1]([C:2](=[C:3]([O-:4])[C+:5]([O:6][H:12])[H:11])[H:8])[H:7]"
O        2.36701275       0.08335373      -0.25748067
C        1.20457836      -0.28329001       0.27787154
C        0.05068875       0.46142649      -0.17433278
O        0.18026100       1.62065882      -0.61880622
C       -1.25406845      -0.15677117      -0.10553128
O       -2.28303564       0.68594888      -0.03970699
H        2.17068041       0.76337955      -0.92394434
H        1.31386184      -0.58659706       1.31082836
H        0.24478367      -1.67365948       0.43181658
H       -0.58461286      -1.45706490       0.76231177
H       -1.49680825      -1.04061776      -0.68042552
H       -1.91334157       1.58323290       0.01739955
12
Frame=4 idx=001880 GeodesicLength=0.28300967413173406 rxn_smarts="[O:1]([C:2]([C:3](=[O:4])[C:5]([O:6][H:12])([H:10])[H:11])([H:8])[H:9])[H:7]>>[H:9][H:10].[O:1]([C:2](=[C:3]([O-:4])[C+:5]([O:6][H:12])[H:11])[H:8])[H:7]"
O        2.36464502       0.08199406      -0.26689434
C        1.20419772      -0.28832222       0.27311397
C        0.05058477       0.46137204      -0.17427497
O        0.18026201       1.61995376      -0.61933464
C       -1.25457794      -0.15704295      -0.09755414
O       -2.28020637       0.69153495      -0.03083433
H        2.16424994       0.77819325      -0.91589490
H        1.31476838      -0.57475585       1.31153010
H        0.25679113      -1.69125141       0.44229157
H       -0.59909422      -1.47729321       0.76316436
H       -1.49719098      -1.03239867      -0.68662631
H       -1.90442945       1.58801624       0.00131364
12
Frame=5 idx=001880 GeodesicLength=0.3537570170737804 rxn_smarts="[O:1]([C:2]([C:3](=[O:4])[C:5]([O:6][H:12])([H:10])[H:11])([H:8])[H:9])[H:7]>>[H:9][H:10].[O:1]([C:2](=[C:3]([O-:4])[C+:5]([O:6][H:12])[H:11])[H:8])[H:7]"
O        2.36212023       0.08051736      -0.27661046
C        1.20376190      -0.29323216       0.26840432
C        0.05049869       0.46145244      -0.17428871
O        0.18027530       1.61937662      -0.61993939
C       -1.25500790      -0.15725177      -0.08964309
O       -2.27719774       0.69724155      -0.02158760
H        2.15796431       0.79281572      -0.90740969
H        1.31576258      -0.56281715       1.31196375
H        0.26932910      -1.70878174       0.45333386
H       -0.61412471      -1.49776937       0.76347082
H       -1.49765185      -1.02390860      -0.69269053
H       -1.89572990       1.59235710      -0.01500328
12
Frame=6 idx=001880 GeodesicLength=0.42450047109592554 rxn_smarts="[O:1]([C:2]([C:3](=[O:4])[C:5]([O:6][H:12])([H:10])[H:11])([H:8])[H:9])[H:7]>>[H:9][H:10].[O:1]([C:2](=[C:3]([O-:4])[C+:5]([O:6][H:12])[H:11])[H:8])[H:7]"
O        2.35942750       0.07894359      -0.28663554
C        1.20327254      -0.29802801       0.26373869
C        0.05043018       0.46166272      -0.17437193
O        0.18030090       1.61892500      -0.62061283
C       -1.25536001      -0.15740130      -0.08179721
O       -2.27399339       0.70308600      -0.01199311
H        2.15182479       0.80722428      -0.89849737
H        1.31686030      -0.55077006       1.31213344
H        0.28242433      -1.72623490       0.46499498
H       -0.62973616      -1.51850182       0.76318727
H       -1.49819995      -1.01514415      -0.69862857
H       -1.88725103       1.59623865      -0.03151783
12
Frame=7 idx=001880 GeodesicLength=0.4952393478773552 rxn_smarts="[O:1]([C:2]([C:3](=[O:4])[C:5]([O:6][H:12])([H:10])[H:11])([H:8])[H:9])[H:7]>>[H:9][H:10].[O:1]([C:2](=[C:3]([O-:4])[C+:5]([O:6][H:12])[H:11])[H:8])[H:7]"
O        2.35655616       0.07729320      -0.29697502
C        1.20273154      -0.30271822       0.25911444
C        0.05037864       0.46199856      -0.17451884
O        0.18033872       1.61859644      -0.62134550
C       -1.25563614      -0.15749551      -0.07401428
O       -2.27057806       0.70908372      -0.00207658
H        2.14582903       0.82139376      -0.88916976
H        1.31807772      -0.53860546       1.31204264
H        0.29610555      -1.74359412       0.47732510
H       -0.64596118      -1.53949732       0.76226870
H       -1.49884189      -1.00610078      -0.70445098
H       -1.87900008       1.59964573      -0.04819992
12
Frame=8 idx=001880 GeodesicLength=0.5659737646510707 rxn_smarts="[O:1]([C:2]([C:3](=[O:4])[C:5]([O:6][H:12])([H:10])[H:11])([H:8])[H:9])[H:7]>>[H:9][H:10].[O:1]([C:2](=[C:3]([O-:4])[C+:5]([O:6][H:12])[H:11])[H:8])[H:7]"
O        2.35349602       0.07559339      -0.30762292
C        1.20214029      -0.30730813       0.25453350
C        0.05034333       0.46245438      -0.17472760
O        0.18038823       1.61838715      -0.62213230
C       -1.25583852      -0.15754053      -0.06629967
O       -2.26693760       0.71524699       0.00811740
H        2.13997000       0.83528412      -0.87945724
H        1.31942476      -0.52630763       1.31169924
H        0.31040528      -1.76083825       0.49037787
H       -0.66283632      -1.56075970       0.76066664
H       -1.49957932      -0.99677723      -0.71017465
H       -1.87097614       1.60256545      -0.06498027
12
Frame=9 idx=001880 GeodesicLength=0.6367008269546103 rxn_smarts="[O:1]([C:2]([C:3](=[O:4])[C:5]([O:6][H:12])([H:10])[H:11])([H:8])[H:9])[H:7]>>[H:9][H:10].[O:1]([C:2](=[C:3]([O-:4])[C+:5]([O:6][H:12])[H:11])[H:8])[H:7]"
O        2.35024175       0.07388880      -0.31854321
C        1.20149918      -0.31179604       0.25000882
C        0.05032316       0.46302466      -0.17499939
O        0.18044829       1.61829282      -0.62297307
C       -1.25596884      -0.15754560      -0.05867329
O       -2.26306362       0.72158006       0.01850567
H        2.13422518       0.84881955      -0.86943964
H        1.32089702      -0.51385207       1.31112210
H        0.32536005      -1.77794034       0.50420685
H       -0.68040029      -1.58228656       0.75833023
H       -1.50039995      -0.98717887      -0.71582935
H       -1.86316194       1.60499360      -0.08171572
12
Frame=10 idx=001880 GeodesicLength=0.7074221055911604 rxn_smarts="[O:1]([C:2]([C:3](=[O:4])[C:5]([O:6][H:12])([H:10])[H:11])([H:8])[H:9])[H:7]>>[H:9][H:10].[O:1]([C:2](=[C:3]([O-:4])[C+:5]([O:6][H:12])[H:11])[H:8])[H:7]"
O        2.34678464       0.07219878      -0.32972830
C        1.20080996      -0.31618800       0.24554421
C        0.05031697       0.46370254      -0.17532986
O        0.18051776       1.61830646      -0.62386515
C       -1.25603021      -0.15751826      -0.05113870
O       -2.25894694       0.72808626       0.02905661
H        2.12858777       0.86197143      -0.85914586
H        1.32250232      -0.50122969       1.31031677
H        0.34101075      -1.79487833       0.51885506
H       -0.69869467      -1.60407559       0.75521438
H       -1.50130439      -0.97730639      -0.72142709
H       -1.85555394       1.60693079      -0.09835207
12
Frame=11 idx=001880 GeodesicLength=0.7781389844924587 rxn_smarts="[O:1]([C:2]([C:3](=[O:4])[C:5]([O:6][H:12])([H:10])[H:11])([H:8])[H:9])[H:7]>>[H:9][H:10].[O:1]([C:2](=[C:3]([O-:4])[C+:5]([O:6][H:12])[H:11])[H:8])[H:7]"
O        2.34312136       0.07055585      -0.34114545
C        1.20007453      -0.32048465       0.24115252
C        0.05032364       0.46448270      -0.17571249
O        0.18059583       1.61842220      -0.62480510
C       -1.25602537      -0.15746762      -0.04370780
O       -2.25458379       0.73476250       0.03971668
H        2.12303836       0.87468544      -0.84864557
H        1.32423827      -0.48843083       1.30929701
H        0.35740528      -1.81162800       0.53435417
H       -0.71776557      -1.62611667       0.75127898
H       -1.50228293      -0.96716541      -0.72698666
H       -1.84813960       1.60838451      -0.11479629
12
Frame=12 idx=001880 GeodesicLength=0.8488540293030233 rxn_smarts="[O:1]([C:2]([C:3](=[O:4])[C:5]([O:6][H:12])([H:10])[H:11])([H:8])[H:9])[H:7]>>[H:9][H:10].[O:1]([C:2](=[C:3]([O-:4])[C+:5]([O:6][H:12])[H:11])[H:8])[H:7]"
O        2.33924921       0.06898916      -0.35275728
C        1.19929487      -0.32468608       0.23684871
C        0.05034227       0.46535980      -0.17613842
O        0.18068180       1.61863370      -0.62578815
C       -1.25595670      -0.15740272      -0.03639165
O       -2.24997111       0.74160171       0.05043941
H        2.11755798       0.88691192      -0.83801302
H        1.32610005      -0.47545190       1.30807641
H        0.37460230      -1.82816731       0.55072236
H       -0.73766736      -1.64839323       0.74649136
H       -1.50332483      -0.95676293      -0.73252281
H       -1.84090847       1.60936787      -0.13096693
12
Frame=13 idx=001880 GeodesicLength=0.9195666115939009 rxn_smarts="[O:1]([C:2]([C:3](=[O:4])[C:5]([O:6][H:12])([H:10])[H:11])([H:8])[H:9])[H:7]>>[H:9][H:10].[O:1]([C:2](=[C:3]([O-:4])[C+:5]([O:6][H:12])[H:11])[H:8])[H:7]"
O        2.33518123       0.06754735      -0.36448008
C        1.19847224      -0.32878098       0.23266252
C        0.05037125       0.46632734      -0.17660911
O        0.18077374       1.61893282      -0.62682147
C       -1.25582744      -0.15733788      -0.02922809
O       -2.24512537       0.74857728       0.06111134
H        2.11210653       0.89856239      -0.82739332
H        1.32805601      -0.46228091       1.30668678
H        0.39266963      -1.84447406       0.56795278
H       -0.75846318      -1.67086525       0.74084613
H       -1.50439682      -0.94612770      -0.73806671
H       -1.83381782       1.60991959      -0.14666076
12
Frame=14 idx=001880 GeodesicLength=0.9902789152368684 rxn_smarts="[O:1]([C:2]([C:3](=[O:4])[C:5]([O:6][H:12])([H:10])[H:11])([H:8])[H:9])[H:7]>>[H:9][H:10].[O:1]([C:2](=[C:3]([O-:4])[C+:5]([O:6][H:12])[H:11])[H:8])[H:7]"
O        2.33093175       0.06626468      -0.37623664
C        1.19760956      -0.33276118       0.22862112
C        0.05040985       0.46738134      -0.17711427
O        0.18087143       1.61931443      -0.62789905
C       -1.25564018      -0.15728385      -0.02224148
O       -2.24006256       0.75566189       0.07166019
H        2.10665069       0.90957794      -0.81691534
H        1.33007952      -0.44892750       1.30515398
H        0.41169531      -1.86053888       0.58600279
H       -0.78023274      -1.69348413       0.73436238
H       -1.50547074      -0.93528589      -0.74363383
H       -1.82684188       1.61008116      -0.16175984
12
Frame=15 idx=001880 GeodesicLength=1.0609919982843767 rxn_smarts="[O:1]([C:2]([C:3](=[O:4])[C:5]([O:6][H:12])([H:10])[H:11])([H:8])[H:9])[H:7]>>[H:9][H:10].[O:1]([C:2](=[C:3]([O-:4])[C+:5]([O:6][H:12])[H:11])[H:8])[H:7]"
O        2.32651984       0.06516779      -0.38795275
C        1.19671011      -0.33662043       0.22474597
C        0.05045730       0.46851661      -0.17764509
O        0.18097454       1.61977324      -0.62901327
C       -1.25539814      -0.15724952      -0.01545237
O       -2.23480491       0.76282472       0.08201738
H        2.10116345       0.91992716      -0.80668626
H        1.33214092      -0.43541839       1.30349830
H        0.43179008      -1.87636992       0.60478196
H       -0.80307867      -1.71617847       0.72710791
H       -1.50651861      -0.92427381      -0.74922433
H       -1.81995591       1.60990101      -0.17617745
12
Frame=16 idx=001880 GeodesicLength=1.1317069264759172 rxn_smarts="[O:1]([C:2]([C:3](=[O:4])[C:5]([O:6][H:12])([H:10])[H:11])([H:8])[H:9])[H:7]>>[H:9][H:10].[O:1]([C:2](=[C:3]([O-:4])[C+:5]([O:6][H:12])[H:11])[H:8])[H:7]"
O        2.32197161       0.06428239      -0.39955111
C        1.19577808      -0.34035363       0.22105206
C        0.05051293       0.46972669      -0.17819596
O        0.18108269       1.62030339      -0.63015805
C       -1.25510544      -0.15724089      -0.00887732
O       -2.22938083       0.77003421       0.09211259
H        2.09562441       0.92960495      -0.79679128
H        1.33420461      -0.42179978       1.30173533
H        0.45309821      -1.89199910       0.62413850
H       -0.82713765      -1.73885021       0.71921226
H       -1.50751286      -0.91314037      -0.75482165
H       -1.81313577       1.60943237      -0.18985535
