18
Frame=0 idx=009236 GeodesicLength=0.0 rxn_smarts="[C:1]([O:2][C:3]1([H:11])[C:4]([H:12])([H:13])[N:5]([C:6]([H:14])([H:15])[H:16])[C:7]1([H:17])[H:18])([H:8])([H:9])[H:10]>>[C-:1]([O+:2]=[C:3]([C:7]([N:5]([C:4]([H:10])([H:12])[H:13])[C:6]([H:14])([H:15])[H:16])([H:17])[H:18])[H:11])([H:8])[H:9]"
C        2.61701396       0.52216844       0.15499405
O        1.63400748       1.06434560      -0.67674152
C        0.78792223       0.19891199      -1.09522742
C        0.09586295      -0.46776546       0.87959538
N       -0.99478256      -0.57231113      -0.11671912
C       -2.32149808      -0.48732674       0.44744665
C       -0.67742330       0.44178130      -1.10970458
H        3.28317273       1.31438193       0.48160079
H        3.13329139      -0.32404972      -0.30703580
H        1.37097888      -0.22681394       0.76182988
H        1.15280840      -0.77603621      -1.41214261
H        0.11190903      -1.37853639       1.48418523
H       -0.08961067       0.39032631       1.55130309
H       -2.50872557       0.47739244       0.94958997
H       -2.45194932      -1.28363370       1.18288571
H       -3.07326948      -0.62275314      -0.33341354
H       -0.89166095       1.47089795      -0.77787038
H       -1.17804712       0.25902042      -2.06457578
18
Frame=1 idx=009236 GeodesicLength=0.06104460553595365 rxn_smarts="[C:1]([O:2][C:3]1([H:11])[C:4]([H:12])([H:13])[N:5]([C:6]([H:14])([H:15])[H:16])[C:7]1([H:17])[H:18])([H:8])([H:9])[H:10]>>[C-:1]([O+:2]=[C:3]([C:7]([N:5]([C:4]([H:10])([H:12])[H:13])[C:6]([H:14])([H:15])[H:16])([H:17])[H:18])[H:11])([H:8])[H:9]"
C        2.62521161       0.52813373       0.14896576
O        1.63927812       1.06025165      -0.68217733
C        0.78694622       0.19050099      -1.09036057
C        0.09093469      -0.47128818       0.87817391
N       -1.00093480      -0.57584339      -0.11478589
C       -2.32805033      -0.48575428       0.44676151
C       -0.67783566       0.43949599      -1.10560323
H        3.28465621       1.32496665       0.47718981
H        3.14765409      -0.31419288      -0.31302074
H        1.38477943      -0.22853159       0.78075067
H        1.15510635      -0.77891240      -1.42019419
H        0.10678134      -1.38280729       1.48182102
H       -0.09488926       0.38580298       1.55114834
H       -2.51238036       0.47925763       0.94948239
H       -2.46330094      -1.28225272       1.18111119
H       -3.07829078      -0.61677445      -0.33627977
H       -0.88694472       1.46914102      -0.77238349
H       -1.17872121       0.25880655      -2.06059939
18
Frame=2 idx=009236 GeodesicLength=0.12206954500053233 rxn_smarts="[C:1]([O:2][C:3]1([H:11])[C:4]([H:12])([H:13])[N:5]([C:6]([H:14])([H:15])[H:16])[C:7]1([H:17])[H:18])([H:8])([H:9])[H:10]>>[C-:1]([O+:2]=[C:3]([C:7]([N:5]([C:4]([H:10])([H:12])[H:13])[C:6]([H:14])([H:15])[H:16])([H:17])[H:18])[H:11])([H:8])[H:9]"
C        2.63328327       0.53405606       0.14294465
O        1.64455546       1.05604437      -0.68770592
C        0.78600852       0.18200307      -1.08545358
C        0.08599866      -0.47487229       0.87675809
N       -1.00710397      -0.57937423      -0.11284970
C       -2.33459250      -0.48414635       0.44607023
C       -0.67820131       0.43716428      -1.10149692
H        3.28601162       1.33547570       0.47266912
H        3.16190326      -0.30433754      -0.31894933
H        1.39862717      -0.22982056       0.80008910
H        1.15730503      -0.78162586      -1.42849446
H        0.10182453      -1.38720642       1.47934135
H       -0.10018370       0.38116146       1.55106243
H       -2.51600071       0.48115435       0.94936778
H       -2.47467136      -1.28081500       1.17931536
H       -3.08327084      -0.61073782      -0.33915208
H       -0.88215808       1.46731518      -0.76689310
H       -1.17933503       0.25856159      -2.05662302
18
Frame=3 idx=009236 GeodesicLength=0.18307712726765052 rxn_smarts="[C:1]([O:2][C:3]1([H:11])[C:4]([H:12])([H:13])[N:5]([C:6]([H:14])([H:15])[H:16])[C:7]1([H:17])[H:18])([H:8])([H:9])[H:10]>>[C-:1]([O+:2]=[C:3]([C:7]([N:5]([C:4]([H:10])([H:12])[H:13])[C:6]([H:14])([H:15])[H:16])([H:17])[H:18])[H:11])([H:8])[H:9]"
C        2.64122975       0.53993187       0.13693066
O        1.64983780       1.05171718      -0.69332463
C        0.78510958       0.17341390      -1.08050838
C        0.08104978      -0.47852012       0.87534961
N       -1.01329064      -0.58290537      -0.11091171
C       -2.34112499      -0.48250295       0.44537130
C       -0.67851940       0.43478506      -1.09738469
H        3.28723497       1.34590939       0.46803962
H        3.17604267      -0.29448367      -0.32482203
H        1.41253137      -0.23067252       0.81984954
H        1.15939502      -0.78416875      -1.43704876
H        0.09704024      -1.39173346       1.47674905
H       -0.10548969       0.37640309       1.55104371
H       -2.51958651       0.48308227       0.94924504
H       -2.48606246      -1.27932008       1.17749616
H       -3.08820937      -0.60464256      -0.34203207
H       -0.87729865       1.46541878      -0.76139697
H       -1.17988947       0.25828794      -2.05264543
18
Frame=4 idx=009236 GeodesicLength=0.24407066795939802 rxn_smarts="[C:1]([O:2][C:3]1([H:11])[C:4]([H:12])([H:13])[N:5]([C:6]([H:14])([H:15])[H:16])[C:7]1([H:17])[H:18])([H:8])([H:9])[H:10]>>[C-:1]([O+:2]=[C:3]([C:7]([N:5]([C:4]([H:10])([H:12])[H:13])[C:6]([H:14])([H:15])[H:16])([H:17])[H:18])[H:11])([H:8])[H:9]"
C        2.64905229       0.54575834       0.13092394
O        1.65512271       1.04726418      -0.69902921
C        0.78424969       0.16472844      -1.07552667
C        0.07608272      -0.48223496       0.87394982
N       -1.01949587      -0.58643864      -0.10897305
C       -2.34764848      -0.48082350       0.44466328
C       -0.67878911       0.43235666      -1.09326576
H        3.28832342       1.35626919       0.46330169
H        3.19007685      -0.28462959      -0.33064056
H        1.42650244      -0.23107961       0.84003536
H        1.16136751      -0.78653396      -1.44586066
H        0.09242876      -1.39638962       1.47404669
H       -0.11080263       0.37152808       1.55109066
H       -2.52313734       0.48504168       0.94911323
H       -2.49747713      -1.27776694       1.17565161
H       -3.09310662      -0.59848687      -0.34492133
H       -0.87236417       1.46344985      -0.75589340
H       -1.18038503       0.25798727      -2.04866564
18
Frame=5 idx=009236 GeodesicLength=0.3050520593369606 rxn_smarts="[C:1]([O:2][C:3]1([H:11])[C:4]([H:12])([H:13])[N:5]([C:6]([H:14])([H:15])[H:16])[C:7]1([H:17])[H:18])([H:8])([H:9])[H:10]>>[C-:1]([O+:2]=[C:3]([C:7]([N:5]([C:4]([H:10])([H:12])[H:13])[C:6]([H:14])([H:15])[H:16])([H:17])[H:18])[H:11])([H:8])[H:9]"
C        2.65675158       0.55153399       0.12492470
O        1.66040769       1.04267918      -0.70481633
C        0.78342958       0.15594078      -1.07050974
C        0.07109229      -0.48602093       0.87256005
N       -1.02572075      -0.58997614      -0.10703482
C       -2.35416367      -0.47910686       0.44394468
C       -0.67900910       0.42987700      -1.08913923
H        3.28927269       1.36655760       0.45845633
H        3.20401100      -0.27477192      -0.33640813
H        1.44055113      -0.23103642       0.86064999
H        1.16321335      -0.78871416      -1.45493302
H        0.08798905      -1.40117644       1.47123727
H       -0.11611767       0.36653586       1.55120178
H       -2.52665210       0.48703338       0.94897160
H       -2.50891852      -1.27615386       1.17377950
H       -3.09796286      -0.59226771      -0.34782135
H       -0.86735204       1.46140578      -0.75038069
H       -1.18082165       0.25766087      -2.04468259
18
Frame=6 idx=009236 GeodesicLength=0.36602479684490913 rxn_smarts="[C:1]([O:2][C:3]1([H:11])[C:4]([H:12])([H:13])[N:5]([C:6]([H:14])([H:15])[H:16])[C:7]1([H:17])[H:18])([H:8])([H:9])[H:10]>>[C-:1]([O+:2]=[C:3]([C:7]([N:5]([C:4]([H:10])([H:12])[H:13])[C:6]([H:14])([H:15])[H:16])([H:17])[H:18])[H:11])([H:8])[H:9]"
C        2.66432816       0.55725556       0.11893236
O        1.66568994       1.03795652      -0.71068164
C        0.78264939       0.14704571      -1.06545979
C        0.06607373      -0.48988197       0.87118057
N       -1.03196669      -0.59351974      -0.10509858
C       -2.36067119      -0.47735193       0.44321426
C       -0.67917874       0.42734406      -1.08500488
H        3.29007727       1.37677545       0.45350616
H        3.21784953      -0.26490740      -0.34212671
H        1.45469146      -0.23053538       0.88169693
H        1.16492335      -0.79070216      -1.46426749
H        0.08372116      -1.40609532       1.46832326
H       -0.12142964       0.36142564       1.55137505
H       -2.53012957       0.48905836       0.94881930
H       -2.52038949      -1.27447911       1.17187805
H       -3.10277860      -0.58598246      -0.35073317
H       -0.86226020       1.45928424      -0.74485786
H       -1.18119987       0.25730993      -2.04069581
18
Frame=7 idx=009236 GeodesicLength=0.4269869202790081 rxn_smarts="[C:1]([O:2][C:3]1([H:11])[C:4]([H:12])([H:13])[N:5]([C:6]([H:14])([H:15])[H:16])[C:7]1([H:17])[H:18])([H:8])([H:9])[H:10]>>[C-:1]([O+:2]=[C:3]([C:7]([N:5]([C:4]([H:10])([H:12])[H:13])[C:6]([H:14])([H:15])[H:16])([H:17])[H:18])[H:11])([H:8])[H:9]"
C        2.67178321       0.56292056       0.11294670
O        1.67096636       1.03309053      -0.71661945
C        0.78190956       0.13803705      -1.06037926
C        0.06102237      -0.49382347       0.86981104
N       -1.03823506      -0.59707193      -0.10316640
C       -2.36717153      -0.47555766       0.44247051
C       -0.67929696       0.42475559      -1.08086232
H        3.29073418       1.38692365       0.44845085
H        3.23159592      -0.25503423      -0.34779789
H        1.46893337      -0.22956364       0.90318260
H        1.16648778      -0.79248992      -1.47386599
H        0.07962469      -1.41114799       1.46530630
H       -0.12673247       0.35619507       1.55160834
H       -2.53356808       0.49111725       0.94865581
H       -2.53189309      -1.27274102       1.16994529
H       -3.10755407      -0.57962818      -0.35365814
H       -0.85708619       1.45708232      -0.73932317
H       -1.18151999       0.25693605      -2.03670482
18
Frame=8 idx=009236 GeodesicLength=0.48794094377339675 rxn_smarts="[C:1]([O:2][C:3]1([H:11])[C:4]([H:12])([H:13])[N:5]([C:6]([H:14])([H:15])[H:16])[C:7]1([H:17])[H:18])([H:8])([H:9])[H:10]>>[C-:1]([O+:2]=[C:3]([C:7]([N:5]([C:4]([H:10])([H:12])[H:13])[C:6]([H:14])([H:15])[H:16])([H:17])[H:18])[H:11])([H:8])[H:9]"
C        2.67911629       0.56852680       0.10696809
O        1.67623410       1.02807435      -0.72262512
C        0.78121063       0.12890865      -1.05526951
C        0.05593317      -0.49785138       0.86845144
N       -1.04452769      -0.60063538      -0.10124018
C       -2.37366531      -0.47372225       0.44171180
C       -0.67936239       0.42210873      -1.07671103
H        3.29123669       1.39700327       0.44329159
H        3.24525435      -0.24514716      -0.35342702
H        1.48329263      -0.22811120       0.92511209
H        1.16789675      -0.79406971      -1.48372736
H        0.07569741      -1.41633635       1.46218829
H       -0.13202034       0.35084126       1.55189962
H       -2.53696553       0.49321145       0.94848064
H       -2.54343273      -1.27093704       1.16797836
H       -3.11228962      -0.57320058      -0.35659761
H       -0.85182694       1.45479658      -0.73377503
H       -1.18178148       0.25653997      -2.03270906
18
Frame=9 idx=009236 GeodesicLength=0.5488763586584647 rxn_smarts="[C:1]([O:2][C:3]1([H:11])[C:4]([H:12])([H:13])[N:5]([C:6]([H:14])([H:15])[H:16])[C:7]1([H:17])[H:18])([H:8])([H:9])[H:10]>>[C-:1]([O+:2]=[C:3]([C:7]([N:5]([C:4]([H:10])([H:12])[H:13])[C:6]([H:14])([H:15])[H:16])([H:17])[H:18])[H:11])([H:8])[H:9]"
C        2.68632395       0.57406823       0.10099841
O        1.68149129       1.02290142      -0.72869560
C        0.78055230       0.11965698      -1.05013546
C        0.05080381      -0.50196992       0.86709986
N       -1.05084512      -0.60421165      -0.09932255
C       -2.38015173      -0.47184547       0.44093706
C       -0.67937439       0.41940228      -1.07255149
H        3.29157892       1.40701092       0.43802932
H        3.25882403      -0.23524677      -0.35901172
H        1.49778037      -0.22615997       0.94749487
H        1.16913917      -0.79543359      -1.49385246
H        0.07194237      -1.42165956       1.45896732
H       -0.13728670       0.34536187       1.55224562
H       -2.54031942       0.49534065       0.94829368
H       -2.55500862      -1.26906642       1.16597554
H       -3.11698444      -0.56669805      -0.35955203
H       -0.84648026       1.45242486      -0.72821211
H       -1.18198552       0.25612420      -2.02870827
18
Frame=10 idx=009236 GeodesicLength=0.6098041166448513 rxn_smarts="[C:1]([O:2][C:3]1([H:11])[C:4]([H:12])([H:13])[N:5]([C:6]([H:14])([H:15])[H:16])[C:7]1([H:17])[H:18])([H:8])([H:9])[H:10]>>[C-:1]([O+:2]=[C:3]([C:7]([N:5]([C:4]([H:10])([H:12])[H:13])[C:6]([H:14])([H:15])[H:16])([H:17])[H:18])[H:11])([H:8])[H:9]"
C        2.69341083       0.57954782       0.09503576
O        1.68673312       1.01756689      -0.73482266
C        0.77993548       0.11027159      -1.04497662
C        0.04562732      -0.50618867       0.86575621
N       -1.05719079      -0.60780429      -0.09741566
C       -2.38663309      -0.46992380       0.44014410
C       -0.67933116       0.41663201      -1.06838271
H        3.29175725       1.41695367       0.43266181
H        3.27231315      -0.22532331      -0.36456269
H        1.51241433      -0.22370257       0.97033495
H        1.17020699      -0.79657652      -1.50423419
H        0.06835128      -1.42712528       1.45564707
H       -0.14252577       0.33975062       1.55264516
H       -2.54362716       0.49750760       0.94809502
H       -2.56662828      -1.26712519       1.16393274
H       -3.12164036      -0.56011191      -0.36252368
H       -0.84104280       1.44996242      -0.72263243
H       -1.18213035       0.25568893      -2.02470218
18
Frame=11 idx=009236 GeodesicLength=0.6707264851844026 rxn_smarts="[C:1]([O:2][C:3]1([H:11])[C:4]([H:12])([H:13])[N:5]([C:6]([H:14])([H:15])[H:16])[C:7]1([H:17])[H:18])([H:8])([H:9])[H:10]>>[C-:1]([O+:2]=[C:3]([C:7]([N:5]([C:4]([H:10])([H:12])[H:13])[C:6]([H:14])([H:15])[H:16])([H:17])[H:18])[H:11])([H:8])[H:9]"
C        2.70037736       0.58496457       0.08907881
O        1.69195522       1.01206570      -0.74099990
C        0.77936057       0.10074406      -1.03979486
C        0.04039866      -0.51051690       0.86441871
N       -1.06356754      -0.61141642      -0.09552230
C       -2.39311060      -0.46795450       0.43933120
C       -0.67923100       0.41379422      -1.06420459
H        3.29176704       1.42683462       0.42718761
H        3.28572516      -0.21537036      -0.37008378
H        1.52721209      -0.22072293       0.99363908
H        1.17109053      -0.79749229      -1.51486686
H        0.06492045      -1.43273952       1.45222802
H       -0.14773082       0.33400020       1.55309636
H       -2.54688527       0.49971433       0.94788493
H       -2.57829706      -1.26511015       1.16184661
H       -3.12625865      -0.55343446      -0.36551396
H       -0.83551115       1.44740479      -0.71703438
H       -1.18221500       0.25523504      -2.02069072
18
Frame=12 idx=009236 GeodesicLength=0.7316456341410162 rxn_smarts="[C:1]([O:2][C:3]1([H:11])[C:4]([H:12])([H:13])[N:5]([C:6]([H:14])([H:15])[H:16])[C:7]1([H:17])[H:18])([H:8])([H:9])[H:10]>>[C-:1]([O+:2]=[C:3]([C:7]([N:5]([C:4]([H:10])([H:12])[H:13])[C:6]([H:14])([H:15])[H:16])([H:17])[H:18])[H:11])([H:8])[H:9]"
C        2.70722410       0.59031813       0.08312750
O        1.69715379       1.00639216      -0.74722023
C        0.77882775       0.09106612      -1.03459213
C        0.03511270      -0.51496469       0.86308494
N       -1.06997861      -0.61505124      -0.09364589
C       -2.39958528      -0.46593454       0.43849648
C       -0.67907257       0.41088548      -1.06001701
H        3.29160320       1.43665632       0.42160301
H        3.29906302      -0.20538159      -0.37558089
H        1.54219111      -0.21720049       1.01741679
H        1.17178099      -0.79817680      -1.52574157
H        0.06164578      -1.43850978       1.44870858
H       -0.15289511       0.32810208       1.55359720
H       -2.55008977       0.50196252       0.94766462
H       -2.59002036      -1.26301816       1.15971285
H       -3.13084034      -0.54665694      -0.36852434
H       -0.82988195       1.44474750      -0.71141578
H       -1.18223845       0.25476393      -2.01667413
18
Frame=13 idx=009236 GeodesicLength=0.7925555923803508 rxn_smarts="[C:1]([O:2][C:3]1([H:11])[C:4]([H:12])([H:13])[N:5]([C:6]([H:14])([H:15])[H:16])[C:7]1([H:17])[H:18])([H:8])([H:9])[H:10]>>[C-:1]([O+:2]=[C:3]([C:7]([N:5]([C:4]([H:10])([H:12])[H:13])[C:6]([H:14])([H:15])[H:16])([H:17])[H:18])[H:11])([H:8])[H:9]"
C        2.71395093       0.59560780       0.07718098
O        1.70232477       1.00054140      -0.75347780
C        0.77833699       0.08122880      -1.02937246
C        0.02976600      -0.51954253       0.86175150
N       -1.07642657      -0.61871160      -0.09178977
C       -2.40605761      -0.46386081       0.43763859
C       -0.67885439       0.40790224      -1.05582042
H        3.29126127       1.44642176       0.41590659
H        3.31232872      -0.19535057      -0.38105646
H        1.55736589      -0.21311441       1.04167618
H        1.17226917      -0.79862607      -1.53684919
H        0.05852292      -1.44444370       1.44508658
H       -0.15801121       0.32204686       1.55414508
H       -2.55323560       0.50425401       0.94743579
H       -2.60180282      -1.26084612       1.15752783
H       -3.13538656      -0.53977022      -0.37155535
H       -0.82415146       1.44198609      -0.70577497
H       -1.18220044       0.25427707      -2.01265269
18
Frame=14 idx=009236 GeodesicLength=0.8534550674802548 rxn_smarts="[C:1]([O:2][C:3]1([H:11])[C:4]([H:12])([H:13])[N:5]([C:6]([H:14])([H:15])[H:16])[C:7]1([H:17])[H:18])([H:8])([H:9])[H:10]>>[C-:1]([O+:2]=[C:3]([C:7]([N:5]([C:4]([H:10])([H:12])[H:13])[C:6]([H:14])([H:15])[H:16])([H:17])[H:18])[H:11])([H:8])[H:9]"
C        2.72055776       0.60083483       0.07123911
O        1.70746402       0.99450761      -0.75976673
C        0.77788877       0.07122258      -1.02413821
C        0.02435394      -0.52426299       0.86041494
N       -1.08291489      -0.62240101      -0.08995780
C       -2.41252852      -0.46172922       0.43675554
C       -0.67857448       0.40484050      -1.05161467
H        3.29073453       1.45613598       0.41009415
H        3.32552458      -0.18526956      -0.38651688
H        1.57275433      -0.20844201       1.06642656
H        1.17254628      -0.79883800      -1.54817675
H        0.05554596      -1.45055128       1.44135973
H       -0.16307180       0.31582260       1.55473800
H       -2.55631703       0.50659105       0.94720064
H       -2.61365060      -1.25859016       1.15528632
H       -3.13989825      -0.53276213      -0.37460825
H       -0.81831536       1.43911519      -0.70010911
H       -1.18209924       0.25377603      -2.00862657
18
Frame=15 idx=009236 GeodesicLength=0.9143434738627421 rxn_smarts="[C:1]([O:2][C:3]1([H:11])[C:4]([H:12])([H:13])[N:5]([C:6]([H:14])([H:15])[H:16])[C:7]1([H:17])[H:18])([H:8])([H:9])[H:10]>>[C-:1]([O+:2]=[C:3]([C:7]([N:5]([C:4]([H:10])([H:12])[H:13])[C:6]([H:14])([H:15])[H:16])([H:17])[H:18])[H:11])([H:8])[H:9]"
C        2.72704494       0.60599963       0.06530079
O        1.71256740       0.98828620      -0.76607977
C        0.77748284       0.06103812      -1.01889247
C        0.01887188      -0.52913896       0.85907105
N       -1.08944737      -0.62612276      -0.08815426
C       -2.41899907      -0.45953600       0.43584533
C       -0.67823125       0.40169647      -1.04739986
H        3.29001876       1.46580220       0.40416073
H        3.33865223      -0.17513115      -0.39196756
H        1.58837522      -0.20315578       1.09167781
H        1.17260396      -0.79881138      -1.55970851
H        0.05270906      -1.45684350       1.43752429
H       -0.16806974       0.30941661       1.55537368
H       -2.55932841       0.50897540       0.94696159
H       -2.62557015      -1.25624691       1.15298286
H       -3.14437674      -0.52562067      -0.37768432
H       -0.81236985       1.43612961      -0.69441527
H       -1.18193369       0.25326290      -2.00459610
18
Frame=16 idx=009236 GeodesicLength=0.9752167866112523 rxn_smarts="[C:1]([O:2][C:3]1([H:11])[C:4]([H:12])([H:13])[N:5]([C:6]([H:14])([H:15])[H:16])[C:7]1([H:17])[H:18])([H:8])([H:9])[H:10]>>[C-:1]([O+:2]=[C:3]([C:7]([N:5]([C:4]([H:10])([H:12])[H:13])[C:6]([H:14])([H:15])[H:16])([H:17])[H:18])[H:11])([H:8])[H:9]"
C        2.73341159       0.61110314       0.05936527
O        1.71763087       0.98187167      -0.77241125
C        0.77711906       0.05066550      -1.01363931
C        0.01331584      -0.53418528       0.85771447
N       -1.09602781      -0.62988033      -0.08638399
C       -2.42546982      -0.45727671       0.43490620
C       -0.67782290       0.39846635      -1.04317613
H        3.28910797       1.47542531       0.39810097
H        3.35171215      -0.16492791      -0.39741245
H        1.60424588      -0.19722374       1.11744108
H        1.17243396      -0.79854737      -1.57142713
H        0.05000563      -1.46333324       1.43357459
H       -0.17299668       0.30281358       1.55604958
H       -2.56226246       0.51140888       0.94672242
H       -2.63756769      -1.25381266       1.15061144
H       -3.14882298      -0.51833158      -0.38078422
H       -0.80631007       1.43302380      -0.68868979
H       -1.18170252       0.25274060      -2.00056174
