21
Frame=0 idx=011599 GeodesicLength=0.0 rxn_smarts="[C:1]([C:2]([C:3]([C:4]([C:5]([C:6]([O:7][H:21])([H:19])[H:20])([H:17])[H:18])([H:15])[H:16])([H:13])[H:14])([H:11])[H:12])([H:8])([H:9])[H:10]>>[C:1]([H:8])([H:9])([H:10])[H:14].[C:2](=[C:3]([C:4]([C:5]([C:6]([O:7][H:21])([H:19])[H:20])([H:17])[H:18])([H:15])[H:16])[H:13])([H:11])[H:12]"
C       -2.68373898      -0.40709370       1.16097728
C       -2.12699956       0.33167867      -0.73413889
C       -0.84966476       0.97078854      -0.74202407
C        0.42505517       0.21432515      -0.97810472
C        1.40086906       0.23796984       0.20014436
C        2.69587423      -0.48847433      -0.09178021
O        3.52824937      -0.39886678       1.05112302
H       -3.74157672      -0.57806976       0.96652149
H       -2.56098910       0.29469513       1.99179422
H       -2.16276819      -1.34471928       1.35817627
H       -2.22017109      -0.66049927      -1.16068510
H       -3.01169365       0.94837764      -0.81673505
H       -0.82422309       2.04601317      -0.62218794
H       -1.57181745       0.41657808       0.39150915
H        0.93335718       0.61609641      -1.86442419
H        0.18509620      -0.82702776      -1.22599100
H        1.63104480       1.27372891       0.46597260
H        0.93307271      -0.21407897       1.08014217
H        2.48545242      -1.53909745      -0.33697198
H        3.18464587      -0.03672957      -0.96613954
H        4.35092553      -0.85559475       0.87282213
21
Frame=1 idx=011599 GeodesicLength=0.10109661382890606 rxn_smarts="[C:1]([C:2]([C:3]([C:4]([C:5]([C:6]([O:7][H:21])([H:19])[H:20])([H:17])[H:18])([H:15])[H:16])([H:13])[H:14])([H:11])[H:12])([H:8])([H:9])[H:10]>>[C:1]([H:8])([H:9])([H:10])[H:14].[C:2](=[C:3]([C:4]([C:5]([C:6]([O:7][H:21])([H:19])[H:20])([H:17])[H:18])([H:15])[H:16])[H:13])([H:11])[H:12]"
C       -2.70394837      -0.39904086       1.16640530
C       -2.12561588       0.32635195      -0.74065084
C       -0.84725989       0.96154236      -0.72724465
C        0.42793792       0.21001895      -0.97573001
C        1.40726634       0.23443542       0.19934365
C        2.70430125      -0.48576122      -0.09881130
O        3.53860198      -0.39771655       1.04277325
H       -3.76024124      -0.57730107       0.96849110
H       -2.59912147       0.30617931       1.99684575
H       -2.18718624      -1.33562695       1.37953003
H       -2.21379693      -0.66325217      -1.17512079
H       -3.00297610       0.94955380      -0.85251180
H       -0.81928416       2.03652985      -0.60202488
H       -1.56706293       0.41149719       0.42038943
H        0.92872605       0.61979598      -1.86247698
H        0.19209771      -0.83128786      -1.22706310
H        1.63455528       1.27009168       0.46822062
H        0.94339240      -0.22201464       1.07916849
H        2.49752122      -1.53612446      -0.34803228
H        3.18910843      -0.02799961      -0.97225763
H        4.36298464      -0.84987111       0.86075662
21
Frame=2 idx=011599 GeodesicLength=0.2017530164274559 rxn_smarts="[C:1]([C:2]([C:3]([C:4]([C:5]([C:6]([O:7][H:21])([H:19])[H:20])([H:17])[H:18])([H:15])[H:16])([H:13])[H:14])([H:11])[H:12])([H:8])([H:9])[H:10]>>[C:1]([H:8])([H:9])([H:10])[H:14].[C:2](=[C:3]([C:4]([C:5]([C:6]([O:7][H:21])([H:19])[H:20])([H:17])[H:18])([H:15])[H:16])[H:13])([H:11])[H:12]"
C       -2.72426265      -0.39053212       1.17169371
C       -2.12435901       0.32077903      -0.74750653
C       -0.84508629       0.95163573      -0.71199600
C        0.43071675       0.20556146      -0.97316492
C        1.41360995       0.23070335       0.19867236
C        2.71278293      -0.48283906      -0.10596444
O        3.54907335      -0.39644436       1.03425447
H       -3.77917365      -0.57550903       0.97088887
H       -2.63674005       0.31797639       2.00143135
H       -2.21262779      -1.32632862       1.40065504
H       -2.20726689      -0.66615226      -1.18997234
H       -2.99318594       0.95061396      -0.88885656
H       -0.81468003       2.02639998      -0.58166384
H       -1.56193051       0.40584823       0.45030454
H        0.92378630       0.62363089      -1.86018681
H        0.19919219      -0.83565811      -1.22818820
H        1.63779351       1.26622423       0.47084780
H        0.95385399      -0.23046677       1.07822253
H        2.50985442      -1.53289374      -0.35947431
H        3.19343953      -0.01875017      -0.97837777
H        4.37520989      -0.84379902       0.84838107
21
Frame=3 idx=011599 GeodesicLength=0.30210306252079 rxn_smarts="[C:1]([C:2]([C:3]([C:4]([C:5]([C:6]([O:7][H:21])([H:19])[H:20])([H:17])[H:18])([H:15])[H:16])([H:13])[H:14])([H:11])[H:12])([H:8])([H:9])[H:10]>>[C:1]([H:8])([H:9])([H:10])[H:14].[C:2](=[C:3]([C:4]([C:5]([C:6]([O:7][H:21])([H:19])[H:20])([H:17])[H:18])([H:15])[H:16])[H:13])([H:11])[H:12]"
C       -2.74465876      -0.38152920       1.17681656
C       -2.12324028       0.31493883      -0.75477150
C       -0.84317955       0.94099488      -0.69622456
C        0.43337113       0.20093486      -0.97038446
C        1.41989636       0.22676898       0.19813980
C        2.72131379      -0.47968789      -0.11324616
O        3.55967561      -0.39501756       1.02554543
H       -3.79838301      -0.57254743       0.97369134
H       -2.67376486       0.33009436       2.00558249
H       -2.23915975      -1.31683474       1.42148220
H       -2.20058011      -0.66922328      -1.20528500
H       -2.98225272       0.95155572      -0.92581779
H       -0.81044702       2.01555909      -0.56106333
H       -1.55636282       0.39955984       0.48137157
H        0.91849215       0.62760015      -1.85751987
H        0.20638134      -0.84015324      -1.22935446
H        1.64074642       1.26212027       0.47386128
H        0.96447958      -0.23944470       1.07731660
H        2.52245462      -1.52938312      -0.37130165
H        3.19761137      -0.00895954      -0.98450879
H        4.38760650      -0.83734630       0.83567028
21
Frame=4 idx=011599 GeodesicLength=0.4022861082912933 rxn_smarts="[C:1]([C:2]([C:3]([C:4]([C:5]([C:6]([O:7][H:21])([H:19])[H:20])([H:17])[H:18])([H:15])[H:16])([H:13])[H:14])([H:11])[H:12])([H:8])([H:9])[H:10]>>[C:1]([H:8])([H:9])([H:10])[H:14].[C:2](=[C:3]([C:4]([C:5]([C:6]([O:7][H:21])([H:19])[H:20])([H:17])[H:18])([H:15])[H:16])[H:13])([H:11])[H:12]"
C       -2.76509978      -0.37198704       1.18174709
C       -2.12226194       0.30880902      -0.76251901
C       -0.84158399       0.92952994      -0.67987749
C        0.43587568       0.19611317      -0.96736284
C        1.42611718       0.22262212       0.19775542
C        2.72988323      -0.47628327      -0.12066304
O        3.57041451      -0.39339459       1.01662453
H       -3.81787302      -0.56824439       0.97686677
H       -2.71009886       0.34254282       2.00934033
H       -2.26685491      -1.30716102       1.44193042
H       -2.19373668      -0.67248761      -1.22111428
H       -2.97008267       0.95238804      -0.96343952
H       -0.80662332       2.00392648      -0.54018125
H       -1.55029174       0.39254823       0.51372997
H        0.91278971       0.63169681      -1.85443934
H        0.21366603      -0.84479501      -1.23055134
H        1.64339230       1.25776555       0.47727068
H        0.97528920      -0.24896511       1.07645909
H        2.53532241      -1.52556138      -0.38352109
H        3.20158464       0.00140077      -0.99065427
H        4.40017202      -0.83046353       0.82259917
21
Frame=5 idx=011599 GeodesicLength=0.5024257984440039 rxn_smarts="[C:1]([C:2]([C:3]([C:4]([C:5]([C:6]([O:7][H:21])([H:19])[H:20])([H:17])[H:18])([H:15])[H:16])([H:13])[H:14])([H:11])[H:12])([H:8])([H:9])[H:10]>>[C:1]([H:8])([H:9])([H:10])[H:14].[C:2](=[C:3]([C:4]([C:5]([C:6]([O:7][H:21])([H:19])[H:20])([H:17])[H:18])([H:15])[H:16])[H:13])([H:11])[H:12]"
C       -2.78550222      -0.36185093       1.18645593
C       -2.12144746       0.30237696      -0.77086542
C       -0.84035668       0.91714101      -0.66290679
C        0.43819435       0.19106853      -0.96407081
C        1.43224453       0.21824847       0.19753888
C        2.73847339      -0.47260284      -0.12821321
O        3.58128253      -0.39154314       1.00748436
H       -3.83760010      -0.56244890       0.98040809
H       -2.74559303       0.35534449       2.01273643
H       -2.29571070      -1.29730000       1.46190879
H       -2.18674704      -0.67597104      -1.23753699
H       -2.95662366       0.95314113      -1.00176565
H       -0.80325935       1.99141120      -0.51898386
H       -1.54366012       0.38474369       0.54750150
H        0.90662121       0.63591668      -1.85089832
H        0.22103870      -0.84960579      -1.23177057
H        1.64567998       1.25314370       0.48110788
H        0.98628017      -0.25906327       1.07566571
H        2.54846093      -1.52140646      -0.39613963
H        3.20532186       0.01236907      -0.99680945
H        4.41290270      -0.82311257       0.80915313
21
Frame=6 idx=011599 GeodesicLength=0.602619548324385 rxn_smarts="[C:1]([C:2]([C:3]([C:4]([C:5]([C:6]([O:7][H:21])([H:19])[H:20])([H:17])[H:18])([H:15])[H:16])([H:13])[H:14])([H:11])[H:12])([H:8])([H:9])[H:10]>>[C:1]([H:8])([H:9])([H:10])[H:14].[C:2](=[C:3]([C:4]([C:5]([C:6]([O:7][H:21])([H:19])[H:20])([H:17])[H:18])([H:15])[H:16])[H:13])([H:11])[H:12]"
C       -2.80577386      -0.35106761       1.19091766
C       -2.12079838       0.29562450      -0.77991200
C       -0.83956107       0.90371547      -0.64526995
C        0.44028843       0.18576527      -0.96048696
C        1.43824950       0.21362427       0.19750089
C        2.74705091      -0.46861710      -0.13589522
O        3.59225675      -0.38942282       0.99811620
H       -3.85750442      -0.55498794       0.98427521
H       -2.78012037       0.36851504       2.01582717
H       -2.32573671      -1.28724585       1.48133088
H       -2.17961563      -0.67969475      -1.25462843
H       -2.94175061       0.95384654      -1.04082758
H       -0.80040547       1.97791062      -0.49744338
H       -1.53638828       0.37607293       0.58284306
H        0.89992336       0.64024551      -1.84685548
H        0.22849080      -0.85461292      -1.23301428
H        1.64755677       1.24822251       0.48539654
H        0.99745217      -0.26977809       1.07493550
H        2.56185722      -1.51687443      -0.40917108
H        3.20876087       0.02398834      -1.00295926
H        4.42576803      -0.81522948       0.79532051
21
Frame=7 idx=011599 GeodesicLength=0.7028984364790603 rxn_smarts="[C:1]([C:2]([C:3]([C:4]([C:5]([C:6]([O:7][H:21])([H:19])[H:20])([H:17])[H:18])([H:15])[H:16])([H:13])[H:14])([H:11])[H:12])([H:8])([H:9])[H:10]>>[C:1]([H:8])([H:9])([H:10])[H:14].[C:2](=[C:3]([C:4]([C:5]([C:6]([O:7][H:21])([H:19])[H:20])([H:17])[H:18])([H:15])[H:16])[H:13])([H:11])[H:12]"
C       -2.82576629      -0.33959340       1.19510877
C       -2.12033782       0.28855969      -0.78979491
C       -0.83926996       0.88913946      -0.62694376
C        0.44210745       0.18016329      -0.95659011
C        1.44408096       0.20872722       0.19765981
C        2.75557308      -0.46430436      -0.14369374
O        3.60329517      -0.38699859       0.98853284
H       -3.87746692      -0.54573972       0.98845507
H       -2.81348674       0.38205772       2.01866184
H       -2.35683983      -1.27697998       1.50009280
H       -2.17236729      -0.68366049      -1.27249148
H       -2.92539798       0.95457349      -1.08063925
H       -0.79811639       1.96332279      -0.47555944
H       -1.52841562       0.36650219       0.61987761
H        0.89262965       0.64465882      -1.84226754
H        0.23599863      -0.85984729      -1.23427940
H        1.64894608       1.24297472       0.49016632
H        1.00877464      -0.28114846       1.07427565
H        2.57549158      -1.51193769      -0.42261097
H        3.21183858       0.03629493      -1.00907473
H        4.43872901      -0.80676435       0.78111464
21
Frame=8 idx=011599 GeodesicLength=0.8033561809328845 rxn_smarts="[C:1]([C:2]([C:3]([C:4]([C:5]([C:6]([O:7][H:21])([H:19])[H:20])([H:17])[H:18])([H:15])[H:16])([H:13])[H:14])([H:11])[H:12])([H:8])([H:9])[H:10]>>[C:1]([H:8])([H:9])([H:10])[H:14].[C:2](=[C:3]([C:4]([C:5]([C:6]([O:7][H:21])([H:19])[H:20])([H:17])[H:18])([H:15])[H:16])[H:13])([H:11])[H:12]"
C       -2.84529401      -0.32736954       1.19900965
C       -2.12006311       0.28117607      -0.80068073
C       -0.83957636       0.87327271      -0.60790007
C        0.44358887       0.17421231      -0.95235788
C        1.44967348       0.20351526       0.19803870
C        2.76397519      -0.45963292      -0.15159583
O        3.61433175      -0.38423399       0.97874737
H       -3.89732894      -0.53457062       0.99291112
H       -2.84550507       0.39599649       2.02131650
H       -2.38888559      -1.26647399       1.51809825
H       -2.16502328      -0.68788420      -1.29124842
H       -2.90742391       0.95540036      -1.12124350
H       -0.79645112       1.94751437      -0.45331874
H       -1.51967877       0.35604321       0.65877723
H        0.88465650       0.64912482      -1.83708666
H        0.24353469      -0.86534558      -1.23557118
H        1.64974174       1.23734415       0.49546871
H        1.02021437      -0.29324600       1.07368911
H        2.58933440      -1.50654750      -0.43647522
H        3.21445868       0.04934738      -1.01512160
H        4.45172047      -0.79764282       0.76654319
21
Frame=9 idx=011599 GeodesicLength=0.9045331391413258 rxn_smarts="[C:1]([C:2]([C:3]([C:4]([C:5]([C:6]([O:7][H:21])([H:19])[H:20])([H:17])[H:18])([H:15])[H:16])([H:13])[H:14])([H:11])[H:12])([H:8])([H:9])[H:10]>>[C:1]([H:8])([H:9])([H:10])[H:14].[C:2](=[C:3]([C:4]([C:5]([C:6]([O:7][H:21])([H:19])[H:20])([H:17])[H:18])([H:15])[H:16])[H:13])([H:11])[H:12]"
C       -2.86417126      -0.31430901       1.20251626
C       -2.12002099       0.27364515      -0.81281493
C       -0.84059302       0.85591390      -0.58799148
C        0.44462474       0.16780107      -0.94768379
C        1.45497764       0.19791594       0.19868478
C        2.77222670      -0.45460569      -0.15962132
O        3.62539292      -0.38110157       0.96869114
H       -3.91671701      -0.52184139       0.99732253
H       -2.87663553       0.41043221       2.02364306
H       -2.42153068      -1.25537143       1.53546993
H       -2.15759997      -0.69224117      -1.31106296
H       -2.88787108       0.95645159      -1.16261396
H       -0.79540524       1.93030861      -0.43066439
H       -1.50988879       0.34491759       0.69994025
H        0.87585270       0.65353483      -1.83120308
H        0.25099359      -0.87120852      -1.23676818
H        1.64986177       1.23125697       0.50136576
H        1.03179727      -0.30617574       1.07321961
H        2.60338795      -1.50071207      -0.45079615
H        3.21652890       0.06317695      -1.02111934
H        4.46478941      -0.78778824       0.75148627
21
Frame=10 idx=011599 GeodesicLength=1.0057031641473186 rxn_smarts="[C:1]([C:2]([C:3]([C:4]([C:5]([C:6]([O:7][H:21])([H:19])[H:20])([H:17])[H:18])([H:15])[H:16])([H:13])[H:14])([H:11])[H:12])([H:8])([H:9])[H:10]>>[C:1]([H:8])([H:9])([H:10])[H:14].[C:2](=[C:3]([C:4]([C:5]([C:6]([O:7][H:21])([H:19])[H:20])([H:17])[H:18])([H:15])[H:16])[H:13])([H:11])[H:12]"
C       -2.88197785      -0.30047453       1.20574200
C       -2.12019051       0.26592796      -0.82630389
C       -0.84242757       0.83702224      -0.56747829
C        0.44515388       0.16093272      -0.94268604
C        1.45981633       0.19192538       0.19958212
C        2.78014819      -0.44919835      -0.16765144
O        3.63618893      -0.37758551       0.95856769
H       -3.93540427      -0.50724617       1.00202593
H       -2.90590124       0.42522323       2.02592955
H       -2.45440148      -1.24394600       1.55192017
H       -2.15019572      -0.69671626      -1.33211591
H       -2.86652388       0.95788234      -1.20475195
H       -0.79509143       1.91166154      -0.40779869
H       -1.49919999       0.33311688       0.74319618
H        0.86622116       0.65788620      -1.82467728
H        0.25835501      -0.87741928      -1.23803063
H        1.64909414       1.22468866       0.50786744
H        1.04326978      -0.31993449       1.07279916
H        2.61749735      -1.49437326      -0.46548305
H        3.21793046       0.07779997      -1.02689097
H        4.47763872      -0.77717328       0.73623791
21
Frame=11 idx=011599 GeodesicLength=1.1067019480568414 rxn_smarts="[C:1]([C:2]([C:3]([C:4]([C:5]([C:6]([O:7][H:21])([H:19])[H:20])([H:17])[H:18])([H:15])[H:16])([H:13])[H:14])([H:11])[H:12])([H:8])([H:9])[H:10]>>[C:1]([H:8])([H:9])([H:10])[H:14].[C:2](=[C:3]([C:4]([C:5]([C:6]([O:7][H:21])([H:19])[H:20])([H:17])[H:18])([H:15])[H:16])[H:13])([H:11])[H:12]"
C       -2.89829527      -0.28593461       1.20872175
C       -2.12061555       0.25816172      -0.84133611
C       -0.84519692       0.81654761      -0.54651086
C        0.44507227       0.15356582      -0.93740168
C        1.46403031       0.18552469       0.20073955
C        2.78758800      -0.44343468      -0.17559550
O        3.64651573      -0.37369157       0.94850519
H       -3.95293132      -0.49105708       1.00707898
H       -2.93301389       0.44027642       2.02825368
H       -2.48684424      -1.23215166       1.56740360
H       -2.14290901      -0.70114844      -1.35463386
H       -2.84336288       0.95989204      -1.24761136
H       -0.79555311       1.89152963      -0.38489045
H       -1.48754773       0.32092909       0.78857357
H        0.85570800       0.66209407      -1.81752378
H        0.26550943      -0.88401113      -1.23937702
H        1.64726880       1.21761806       0.51497792
H        1.05443067      -0.33451905       1.07241393
H        2.63151840      -1.48755300      -0.48043817
H        3.21855373       0.09317054      -1.03232381
H        4.49007459      -0.76580846       0.72097448
21
Frame=12 idx=011599 GeodesicLength=1.207395409790721 rxn_smarts="[C:1]([C:2]([C:3]([C:4]([C:5]([C:6]([O:7][H:21])([H:19])[H:20])([H:17])[H:18])([H:15])[H:16])([H:13])[H:14])([H:11])[H:12])([H:8])([H:9])[H:10]>>[C:1]([H:8])([H:9])([H:10])[H:14].[C:2](=[C:3]([C:4]([C:5]([C:6]([O:7][H:21])([H:19])[H:20])([H:17])[H:18])([H:15])[H:16])[H:13])([H:11])[H:12]"
C       -2.91265798      -0.27079777       1.21152433
C       -2.12132073       0.25051221      -0.85810214
C       -0.84902278       0.79446186      -0.52529127
C        0.44426833       0.14565491      -0.93189360
C        1.46744079       0.17868944       0.20215322
C        2.79436360      -0.43735183      -0.18334507
O        3.65612137      -0.36944087       0.93866433
H       -3.96877492      -0.47367674       1.01256205
H       -2.95771075       0.45546116       2.03072137
H       -2.51806789      -1.21996162       1.58192360
H       -2.13583538      -0.70532686      -1.37888222
H       -2.81833443       0.96274198      -1.29112927
H       -0.79682268       1.86989770      -0.36218528
H       -1.47487349       0.30877892       0.83609091
H        0.84426845       0.66604745      -1.80978985
H        0.27233006      -0.89102172      -1.24083770
H        1.64419795       1.21000850       0.52268249
H        1.06504579      -0.34991735       1.07203582
H        2.64527055      -1.48027293      -0.49554192
H        3.21826477       0.10921741      -1.03728035
H        4.50184937      -0.75370386       0.70592055
21
Frame=13 idx=011599 GeodesicLength=1.3076438889316382 rxn_smarts="[C:1]([C:2]([C:3]([C:4]([C:5]([C:6]([O:7][H:21])([H:19])[H:20])([H:17])[H:18])([H:15])[H:16])([H:13])[H:14])([H:11])[H:12])([H:8])([H:9])[H:10]>>[C:1]([H:8])([H:9])([H:10])[H:14].[C:2](=[C:3]([C:4]([C:5]([C:6]([O:7][H:21])([H:19])[H:20])([H:17])[H:18])([H:15])[H:16])[H:13])([H:11])[H:12]"
C       -2.92455340      -0.25524455       1.21422227
C       -2.12233794       0.24320915      -0.87679262
C       -0.85402666       0.77080805      -0.50407514
C        0.44262103       0.13716885      -0.92623407
C        1.46985032       0.17142402       0.20381909
C        2.80027163      -0.43102748      -0.19076991
O        3.66473019      -0.36487429       0.92922967
H       -3.98231136      -0.45578254       1.01854781
H       -2.97980885       0.47059218       2.03340299
H       -2.54704291      -1.20734123       1.59553740
H       -2.12908041      -0.70895743      -1.40515990
H       -2.79147569       0.96673325      -1.33519373
H       -0.79891173       1.84681488      -0.33998004
H       -1.46114363       0.29731641       0.88572366
H        0.83187006       0.66960533      -1.80155573
H        0.27865737      -0.89848346      -1.24241030
H        1.63970200       1.20187019       0.53092420
H        1.07483955      -0.36604500       1.07166231
H        2.65852558      -1.47261498      -0.51060747
H        3.21693662       0.12578554      -1.04163351
H        4.51268823      -0.74095689       0.69134300
21
Frame=14 idx=011599 GeodesicLength=1.4073733594862385 rxn_smarts="[C:1]([C:2]([C:3]([C:4]([C:5]([C:6]([O:7][H:21])([H:19])[H:20])([H:17])[H:18])([H:15])[H:16])([H:13])[H:14])([H:11])[H:12])([H:8])([H:9])[H:10]>>[C:1]([H:8])([H:9])([H:10])[H:14].[C:2](=[C:3]([C:4]([C:5]([C:6]([O:7][H:21])([H:19])[H:20])([H:17])[H:18])([H:15])[H:16])[H:13])([H:11])[H:12]"
C       -2.93346975      -0.23951659       1.21693423
C       -2.12368693       0.23653112      -0.89757096
C       -0.86032331       0.74568583      -0.48316834
C        0.44001115       0.12808698      -0.92052765
C        1.47105345       0.16372981       0.20571256
C        2.80508529      -0.42455916      -0.19772672
O        3.67202670      -0.36006525       0.92041371
H       -3.99289748      -0.43823703       1.02514171
H       -2.99920881       0.48545560       2.03635970
H       -2.57263540      -1.19428513       1.60840830
H       -2.12272236      -0.71168324      -1.43376074
H       -2.76278842       0.97219019      -1.37970499
H       -0.80181103       1.82239261      -0.31863919
H       -1.44628875       0.28734292       0.93741029
H        0.81850740       0.67261816      -1.79294424
H        0.28431071      -0.90642234      -1.24410880
H        1.63360792       1.19320266       0.53961695
H        1.08350404      -0.38279950       1.07126738
H        2.67101771      -1.46467561      -0.52542905
H        3.21443709       0.14268204      -1.04523584
H        4.52227077      -0.72767408       0.67755166
21
Frame=15 idx=011599 GeodesicLength=1.5065796184501181 rxn_smarts="[C:1]([C:2]([C:3]([C:4]([C:5]([C:6]([O:7][H:21])([H:19])[H:20])([H:17])[H:18])([H:15])[H:16])([H:13])[H:14])([H:11])[H:12])([H:8])([H:9])[H:10]>>[C:1]([H:8])([H:9])([H:10])[H:14].[C:2](=[C:3]([C:4]([C:5]([C:6]([O:7][H:21])([H:19])[H:20])([H:17])[H:18])([H:15])[H:16])[H:13])([H:11])[H:12]"
C       -2.93891507      -0.22392082       1.21978378
C       -2.12538630       0.23080285      -0.92057323
C       -0.86801633       0.71927271      -0.46291116
C        0.43632301       0.11840688      -0.91488637
C        1.47084742       0.15563692       0.20780322
C        2.80857759      -0.41808077      -0.20406503
O        3.67769703      -0.35510873       0.91243491
H       -3.99987053      -0.42215525       1.03244383
H       -3.01594301       0.49979907       2.03960464
H       -2.59357021      -1.18080232       1.62077616
H       -2.11682437      -0.71308508      -1.46497538
H       -2.73233016       0.97945943      -1.42452913
H       -0.80548942       1.79681395      -0.29855730
H       -1.43026132       0.27987712       0.99104718
H        0.80419655       0.67491930      -1.78411238
H        0.28909367      -0.91485793      -1.24591939
H        1.62577115       1.18405006       0.54863084
H        1.09071472      -0.40001437       1.07084741
H        2.68245583      -1.45660494      -0.53975378
H        3.21065571       0.15964072      -1.04796372
H        4.53027404      -0.71404879       0.66487490
21
Frame=16 idx=011599 GeodesicLength=1.6054319814037168 rxn_smarts="[C:1]([C:2]([C:3]([C:4]([C:5]([C:6]([O:7][H:21])([H:19])[H:20])([H:17])[H:18])([H:15])[H:16])([H:13])[H:14])([H:11])[H:12])([H:8])([H:9])[H:10]>>[C:1]([H:8])([H:9])([H:10])[H:14].[C:2](=[C:3]([C:4]([C:5]([C:6]([O:7][H:21])([H:19])[H:20])([H:17])[H:18])([H:15])[H:16])[H:13])([H:11])[H:12]"
C       -2.94046350      -0.20880254       1.22291097
C       -2.12743895       0.22637593      -0.94589314
C       -0.87719252       0.69181131      -0.44366171
C        0.43145412       0.10814780      -0.90943821
C        1.46904264       0.14718114       0.21004688
C        2.81052978      -0.41175094      -0.20964219
O        3.68143139      -0.35013783       0.90550859
H       -4.00261900      -0.40883666       1.04055086
H       -3.03020700       0.51338014       2.04309229
H       -2.60853407      -1.16692306       1.63299618
H       -2.11141389      -0.71271706      -1.49904124
H       -2.70013965       0.98886268      -1.46955112
H       -0.80989749       1.77032582      -0.28013378
H       -1.41298480       0.27609489       1.04652912
H        0.78898206       0.67635578      -1.77524591
H        0.29280622      -0.92379607      -1.24783365
H        1.61607545       1.17446245       0.55781671
H        1.09614472      -0.41751034       1.07039005
H        2.69254149      -1.44857762      -0.55333228
H        3.20550464       0.17636576      -1.04970611
H        4.53637835      -0.70031157       0.65363769
