16
Frame=0 idx=003243 GeodesicLength=0.0 rxn_smarts="[C:1]([C@@:2]1([H:10])[C:3]([H:11])([H:12])[C:4]([H:13])([H:14])[O:5][C:6]1([H:15])[H:16])([H:7])([H:8])[H:9]>>[C:1]([H:7])([H:8])([H:9])[H:12].[C:2]1([H:10])=[C:3]([H:11])[C:4]([H:13])([H:14])[O:5][C:6]1([H:15])[H:16]"
C        1.96977483      -0.33517835      -0.14444124
C        0.19784662       0.71565241       0.19816349
C       -0.68387502       0.63672431      -0.92732588
C       -1.75587874      -0.37052808      -0.60113986
O       -1.30507809      -1.00037707       0.59883677
C       -0.45037973      -0.11183417       1.27472184
H        2.48384068      -0.06558944      -1.07132943
H        2.52309949       0.04125739       0.71337100
H        1.81486042      -1.41259233      -0.07243230
H        0.73958216       1.61660751       0.45454994
H       -0.76763108       1.41551728      -1.66788322
H        0.64960449       0.03131275      -0.79050486
H       -1.89414656      -1.16704758      -1.33733707
H       -2.73526543       0.10511443      -0.43595052
H       -1.01552836       0.58995627       1.90871442
H        0.22917429      -0.68899529       1.89998698
16
Frame=1 idx=003243 GeodesicLength=0.10525075429953032 rxn_smarts="[C:1]([C@@:2]1([H:10])[C:3]([H:11])([H:12])[C:4]([H:13])([H:14])[O:5][C:6]1([H:15])[H:16])([H:7])([H:8])[H:9]>>[C:1]([H:7])([H:8])([H:9])[H:12].[C:2]1([H:10])=[C:3]([H:11])[C:4]([H:13])([H:14])[O:5][C:6]1([H:15])[H:16]"
C        1.98493610      -0.32626703      -0.14376373
C        0.19408681       0.70514959       0.19481933
C       -0.68065314       0.61809986      -0.93453816
C       -1.77265761      -0.36270500      -0.59627523
O       -1.34248178      -0.98295053       0.61507002
C       -0.45559422      -0.11455975       1.27619810
H        2.51284750      -0.02889481      -1.05404597
H        2.52433017       0.04022898       0.72759457
H        1.85721229      -1.40825020      -0.08877487
H        0.71849290       1.61742371       0.44853166
H       -0.76335049       1.39579635      -1.67720655
H        0.66117789      -0.00107799      -0.81434041
H       -1.92223182      -1.16521637      -1.32391204
H       -2.74324190       0.13399114      -0.44312447
H       -0.99588975       0.58974907       1.92811398
H        0.22301705      -0.71051700       1.88565378
16
Frame=2 idx=003243 GeodesicLength=0.20965491181152762 rxn_smarts="[C:1]([C@@:2]1([H:10])[C:3]([H:11])([H:12])[C:4]([H:13])([H:14])[O:5][C:6]1([H:15])[H:16])([H:7])([H:8])[H:9]>>[C:1]([H:7])([H:8])([H:9])[H:12].[C:2]1([H:10])=[C:3]([H:11])[C:4]([H:13])([H:14])[O:5][C:6]1([H:15])[H:16]"
C        1.99950817      -0.31710672      -0.14330800
C        0.19011569       0.69492961       0.19202997
C       -0.67707657       0.59868364      -0.94149317
C       -1.78909113      -0.35452672      -0.59138923
O       -1.38009574      -0.96372728       0.63173206
C       -0.46101259      -0.11729569       1.27797137
H        2.53967101       0.00845260      -1.03643286
H        2.52536553       0.03902048       0.74101293
H        1.90030940      -1.40282206      -0.10519946
H        0.69708953       1.61821969       0.44262907
H       -0.75827565       1.37488678      -1.68677638
H        0.67320600      -0.03456961      -0.83821192
H       -1.94996966      -1.16324609      -1.30991606
H       -2.75031239       0.16324017      -0.45125075
H       -0.97544124       0.58871533       1.94803403
H        0.21600961      -0.73285412       1.87056838
16
Frame=3 idx=003243 GeodesicLength=0.31334476860019783 rxn_smarts="[C:1]([C@@:2]1([H:10])[C:3]([H:11])([H:12])[C:4]([H:13])([H:14])[O:5][C:6]1([H:15])[H:16])([H:7])([H:8])[H:9]>>[C:1]([H:7])([H:8])([H:9])[H:12].[C:2]1([H:10])=[C:3]([H:11])[C:4]([H:13])([H:14])[O:5][C:6]1([H:15])[H:16]"
C        2.01341245      -0.30774124      -0.14310925
C        0.18590559       0.68509441       0.18986619
C       -0.67311895       0.57847027      -0.94812069
C       -1.80510419      -0.34600711      -0.58649235
O       -1.41783359      -0.94258627       0.64879740
C       -0.46664036      -0.12002196       1.28007638
H        2.56421772       0.04631796      -1.01857410
H        2.52620948       0.03762965       0.75355927
H        1.94402995      -1.39626383      -0.12169935
H        0.67537050       1.61908248       0.43689483
H       -0.75241392       1.35277388      -1.69650520
H        0.68573948      -0.06915406      -0.86215502
H       -1.97724445      -1.16115563      -1.29533058
H       -2.75640440       0.19277217      -0.46041893
H       -0.95418522       0.58675744       1.96851586
H        0.20805991      -0.75596817       1.85469555
16
Frame=4 idx=003243 GeodesicLength=0.4164641781495738 rxn_smarts="[C:1]([C@@:2]1([H:10])[C:3]([H:11])([H:12])[C:4]([H:13])([H:14])[O:5][C:6]1([H:15])[H:16])([H:7])([H:8])[H:9]>>[C:1]([H:7])([H:8])([H:9])[H:12].[C:2]1([H:10])=[C:3]([H:11])[C:4]([H:13])([H:14])[O:5][C:6]1([H:15])[H:16]"
C        2.02656097      -0.29822838      -0.14321201
C        0.18142935       0.67576190       0.18840123
C       -0.66875272       0.55747552      -0.95433076
C       -1.82061056      -0.33717556      -0.58159668
O       -1.45559432      -0.91940441       0.66623770
C       -0.47247972      -0.12270670       1.28255306
H        2.58640593       0.08453620      -1.00054221
H        2.52685241       0.03603181       0.76517031
H        1.98822375      -1.38853453      -0.13829155
H        0.65334341       1.62011317       0.43138699
H       -0.74578957       1.32947351      -1.70627785
H        0.69883316      -0.10480821      -0.88623781
H       -2.00390716      -1.15898585      -1.28013681
H       -2.76144848       0.22245719      -0.47072563
H       -0.93213333       0.58377836       1.98959594
H        0.19906689      -0.77978401       1.83800607
16
Frame=5 idx=003243 GeodesicLength=0.5191708282711112 rxn_smarts="[C:1]([C@@:2]1([H:10])[C:3]([H:11])([H:12])[C:4]([H:13])([H:14])[O:5][C:6]1([H:15])[H:16])([H:7])([H:8])[H:9]>>[C:1]([H:7])([H:8])([H:9])[H:12].[C:2]1([H:10])=[C:3]([H:11])[C:4]([H:13])([H:14])[O:5][C:6]1([H:15])[H:16]"
C        2.03885714      -0.28862299      -0.14368366
C        0.17665328       0.66707878       0.18773780
C       -0.66392717       0.53571121      -0.96002174
C       -1.83551142      -0.32806260      -0.57671392
O       -1.49326885      -0.89406747       0.68401381
C       -0.47853495      -0.12531735       1.28545513
H        2.60615433       0.12295974      -0.98243780
H        2.52728476       0.03417805       0.77576216
H        2.03270242      -1.37961986      -0.15500257
H        0.63101484       1.62143501       0.42618954
H       -0.73839478       1.30498706      -1.71598919
H        0.71254025      -0.14149838      -0.91054237
H       -2.02979037      -1.15678784      -1.26430649
H       -2.76536672       0.25215338      -0.48227059
H       -0.90934370       0.57966307       2.01131482
H        0.18893095      -0.80418980       1.82049507
16
Frame=6 idx=003243 GeodesicLength=0.6215137120080715 rxn_smarts="[C:1]([C@@:2]1([H:10])[C:3]([H:11])([H:12])[C:4]([H:13])([H:14])[O:5][C:6]1([H:15])[H:16])([H:7])([H:8])[H:9]>>[C:1]([H:7])([H:8])([H:9])[H:12].[C:2]1([H:10])=[C:3]([H:11])[C:4]([H:13])([H:14])[O:5][C:6]1([H:15])[H:16]"
C        2.05022201      -0.27900578      -0.14457145
C        0.17155944       0.65916618       0.18793313
C       -0.65863615       0.51323774      -0.96508029
C       -1.84971879      -0.31871432      -0.57184775
O       -1.53071425      -0.86645698       0.70207884
C       -0.48480657      -0.12779843       1.28881936
H        2.62344451       0.16138841      -0.96431428
H        2.52747715       0.03200326       0.78529606
H        2.07728371      -1.36949732      -0.17187642
H        0.60839731       1.62315644       0.42134652
H       -0.73027891       1.27938156      -1.72548835
H        0.72691496      -0.17914714      -0.93518430
H       -2.05472059      -1.15462448      -1.24781018
H       -2.76811310       0.28165931      -0.49514073
H       -0.88586157       0.57431678       2.03367454
H        0.17755083      -0.82906523       1.80216532
16
Frame=7 idx=003243 GeodesicLength=0.7235707824361142 rxn_smarts="[C:1]([C@@:2]1([H:10])[C:3]([H:11])([H:12])[C:4]([H:13])([H:14])[O:5][C:6]1([H:15])[H:16])([H:7])([H:8])[H:9]>>[C:1]([H:7])([H:8])([H:9])[H:12].[C:2]1([H:10])=[C:3]([H:11])[C:4]([H:13])([H:14])[O:5][C:6]1([H:15])[H:16]"
C        2.06055474      -0.26947174      -0.14594890
C        0.16612309       0.65218113       0.18907895
C       -0.65284398       0.49012406      -0.96937585
C       -1.86311980      -0.30919377      -0.56699907
O       -1.56775580      -0.83648375       0.72036741
C       -0.49130224      -0.13008347       1.29270226
H        2.63826535       0.19963572      -0.94624382
H        2.52739017       0.02938435       0.79371195
H        2.12172715      -1.35818058      -0.18900680
H        0.58551763       1.62540774       0.41693298
H       -0.72146974       1.25273170      -1.73462352
H        0.74201377      -0.21764636      -0.96031357
H       -2.07847898      -1.15257661      -1.23060829
H       -2.76963143       0.31073402      -0.50941857
H       -0.86182386       0.56765667       2.05667041
H        0.16483392      -0.85421910       1.78307442
16
Frame=8 idx=003243 GeodesicLength=0.8253833216960237 rxn_smarts="[C:1]([C@@:2]1([H:10])[C:3]([H:11])([H:12])[C:4]([H:13])([H:14])[O:5][C:6]1([H:15])[H:16])([H:7])([H:8])[H:9]>>[C:1]([H:7])([H:8])([H:9])[H:12].[C:2]1([H:10])=[C:3]([H:11])[C:4]([H:13])([H:14])[O:5][C:6]1([H:15])[H:16]"
C        2.06976379      -0.26013332      -0.14789336
C        0.16032830       0.64626744       0.19125480
C       -0.64652459       0.46647524      -0.97276424
C       -1.87560305      -0.29957764      -0.56217084
O       -1.60418853      -0.80409451       0.73879336
C       -0.49803348      -0.13209781       1.29715539
H        2.65062651       0.23746273      -0.92828606
H        2.52697745       0.02618960       0.80094547
H        2.16579876      -1.34569232      -0.20647929
H        0.56240884       1.62831326       0.41303088
H       -0.71201365       1.22516907      -1.74320583
H        0.75790755      -0.25685485      -0.98611810
H       -2.10085137      -1.15074311      -1.21268511
H       -2.76989146       0.33909734      -0.52515943
H       -0.83739697       0.55961375       2.08026359
H        0.15069190      -0.87939487       1.76331879
16
Frame=9 idx=003243 GeodesicLength=0.927391293459456 rxn_smarts="[C:1]([C@@:2]1([H:10])[C:3]([H:11])([H:12])[C:4]([H:13])([H:14])[O:5][C:6]1([H:15])[H:16])([H:7])([H:8])[H:9]>>[C:1]([H:7])([H:8])([H:9])[H:12].[C:2]1([H:10])=[C:3]([H:11])[C:4]([H:13])([H:14])[O:5][C:6]1([H:15])[H:16]"
C        2.07767883      -0.25101776      -0.15049155
C        0.15411349       0.64149089       0.19450145
C       -0.63961270       0.44235148      -0.97515244
C       -1.88704947      -0.28985251      -0.55729946
O       -1.64000559      -0.76918433       0.75736997
C       -0.50503369      -0.13382650       1.30217906
H        2.66070265       0.27500486      -0.91031024
H        2.52584383       0.02225107       0.80703666
H        2.20943024      -1.33204335      -0.22443090
H        0.53904676       1.63191443       0.40965377
H       -0.70184916       1.19674395      -1.75115018
H        0.77455531      -0.29694329      -1.01306578
H       -2.12167548      -1.14914156      -1.19384684
H       -2.76865545       0.36658081      -0.54231327
H       -0.81265090       0.55014366       2.10434046
H        0.13516132      -0.90447186       1.74297928
16
Frame=10 idx=003243 GeodesicLength=1.0290644975230907 rxn_smarts="[C:1]([C@@:2]1([H:10])[C:3]([H:11])([H:12])[C:4]([H:13])([H:14])[O:5][C:6]1([H:15])[H:16])([H:7])([H:8])[H:9]>>[C:1]([H:7])([H:8])([H:9])[H:12].[C:2]1([H:10])=[C:3]([H:11])[C:4]([H:13])([H:14])[O:5][C:6]1([H:15])[H:16]"
C        2.08425203      -0.24239821      -0.15384483
C        0.14752819       0.63809866       0.19894923
C       -0.63210675       0.41799049      -0.97633336
C       -1.89729931      -0.28026703      -0.55243511
O       -1.67472099      -0.73192503       0.77584142
C       -0.51230960      -0.13504480       1.30790217
H        2.66841258       0.31171196      -0.89245922
H        2.52423091       0.01724370       0.81182038
H        2.25206250      -1.31741065      -0.24308085
H        0.51557907       1.63643539       0.40695481
H       -0.69117401       1.16777075      -1.75814071
H        0.79212538      -0.33726443      -1.04119285
H       -2.14052386      -1.14802116      -1.17423504
H       -2.76609066       0.39264270      -0.56096959
H       -0.78806417       0.53935463       2.12887024
H        0.11809870      -0.92891698       1.72235330
16
Frame=11 idx=003243 GeodesicLength=1.1303491265615744 rxn_smarts="[C:1]([C@@:2]1([H:10])[C:3]([H:11])([H:12])[C:4]([H:13])([H:14])[O:5][C:6]1([H:15])[H:16])([H:7])([H:8])[H:9]>>[C:1]([H:7])([H:8])([H:9])[H:12].[C:2]1([H:10])=[C:3]([H:11])[C:4]([H:13])([H:14])[O:5][C:6]1([H:15])[H:16]"
C        2.08941710      -0.23444884      -0.15804871
C        0.14058922       0.63622066       0.20465488
C       -0.62398276       0.39360673      -0.97616521
C       -1.90622496      -0.27096471      -0.54756046
O       -1.70807108      -0.69250879       0.79403739
C       -0.51988753      -0.13561642       1.31437884
H        2.67390335       0.34738295      -0.87468535
H        2.52206630       0.01087025       0.81524540
H        2.29337879      -1.30196201      -0.26263024
H        0.49210919       1.64198057       0.40501217
H       -0.68008784       1.13852151      -1.76397041
H        0.81065323      -0.37752960      -1.07083556
H       -2.15710427      -1.14753009      -1.15385989
H       -2.76222450       0.41689343      -0.58104253
H       -0.76406755       0.52740692       2.15372767
H        0.09953330      -0.95232257       1.70174200
16
Frame=12 idx=003243 GeodesicLength=1.2312101165358926 rxn_smarts="[C:1]([C@@:2]1([H:10])[C:3]([H:11])([H:12])[C:4]([H:13])([H:14])[O:5][C:6]1([H:15])[H:16])([H:7])([H:8])[H:9]>>[C:1]([H:7])([H:8])([H:9])[H:12].[C:2]1([H:10])=[C:3]([H:11])[C:4]([H:13])([H:14])[O:5][C:6]1([H:15])[H:16]"
C        2.09311877      -0.22734945      -0.16320564
C        0.13331621       0.63597478       0.21168343
C       -0.61519970       0.36942854      -0.97451817
C       -1.91370706      -0.26211086      -0.54266407
O       -1.73978686      -0.65124805       0.81176012
C       -0.52780614      -0.13538524       1.32167348
H        2.67733815       0.38178666      -0.85692946
H        2.51928264       0.00280110       0.81724412
H        2.33305729      -1.28589854      -0.28329979
H        0.46873140       1.64865848       0.40390742
H       -0.66867822       1.10930525      -1.76841732
H        0.83017866      -0.41739925      -1.10237951
H       -2.17113147      -1.14781411      -1.13277207
H       -2.75709489       0.43893796      -0.60240495
H       -0.74117464       0.51454381       2.17878617
H        0.07955585      -0.97423107       1.68153624
16
Frame=13 idx=003243 GeodesicLength=1.3316226649247096 rxn_smarts="[C:1]([C@@:2]1([H:10])[C:3]([H:11])([H:12])[C:4]([H:13])([H:14])[O:5][C:6]1([H:15])[H:16])([H:7])([H:8])[H:9]>>[C:1]([H:7])([H:8])([H:9])[H:12].[C:2]1([H:10])=[C:3]([H:11])[C:4]([H:13])([H:14])[O:5][C:6]1([H:15])[H:16]"
C        2.09532298      -0.22126692      -0.16941095
C        0.12574334       0.63743404       0.22008280
C       -0.60570958       0.34567428      -0.97128728
C       -1.91965531      -0.25384934      -0.53773213
O       -1.76969045      -0.60854439       0.82880311
C       -0.53610092      -0.13421461       1.32984171
H        2.67889039       0.41474249      -0.83912196
H        2.51582849      -0.00727392       0.81775623
H        2.37086917      -1.26940870      -0.30529846
H        0.44554989       1.65653253       0.40371134
H       -0.65700280       1.08041205      -1.77130347
H        0.85073405      -0.45656003      -1.13621367
H       -2.18238895      -1.14898966      -1.11102827
H       -2.75075789       0.45844520      -0.62488310
H       -0.71993236       0.50107803       2.20393541
H        0.05829996      -0.99421106       1.66214867
16
Frame=14 idx=003243 GeodesicLength=1.431556812939208 rxn_smarts="[C:1]([C@@:2]1([H:10])[C:3]([H:11])([H:12])[C:4]([H:13])([H:14])[O:5][C:6]1([H:15])[H:16])([H:7])([H:8])[H:9]>>[C:1]([H:7])([H:8])([H:9])[H:12].[C:2]1([H:10])=[C:3]([H:11])[C:4]([H:13])([H:14])[O:5][C:6]1([H:15])[H:16]"
C        2.09602234      -0.21637468      -0.17676201
C        0.11790024       0.64065044       0.22988912
C       -0.59547475       0.32257092      -0.96639061
C       -1.92400211      -0.24634814      -0.53275992
O       -1.79757399      -0.56490600       0.84497280
C       -0.54482686      -0.13194897       1.33894264
H        2.67875640       0.44598361      -0.82116068
H        2.51163646      -0.01967856       0.81671265
H        2.40658091      -1.25269190      -0.32881621
H        0.42265879       1.66566135       0.40447838
H       -0.64513299       1.05216887      -1.77244947
H        0.87236462      -0.49460514      -1.17275261
H       -2.19069086      -1.15116770      -1.08878381
H       -2.74329270       0.47509921      -0.64824688
H       -0.70093341       0.48740483       2.22905144
H        0.03600792      -1.01181814       1.64407516
16
Frame=15 idx=003243 GeodesicLength=1.5310721846027993 rxn_smarts="[C:1]([C@@:2]1([H:10])[C:3]([H:11])([H:12])[C:4]([H:13])([H:14])[O:5][C:6]1([H:15])[H:16])([H:7])([H:8])[H:9]>>[C:1]([H:7])([H:8])([H:9])[H:12].[C:2]1([H:10])=[C:3]([H:11])[C:4]([H:13])([H:14])[O:5][C:6]1([H:15])[H:16]"
C        2.09522733      -0.21281209      -0.18533862
C        0.10980989       0.64563322       0.24111757
C       -0.58444915       0.30030376      -0.95977793
C       -1.92671661      -0.23973320      -0.52774352
O       -1.82336769      -0.52086018       0.86010687
C       -0.55402957      -0.12846668       1.34901913
H        2.67712835       0.47533329      -0.80293787
H        2.50663457      -0.03468596       0.81405498
H        2.44006277      -1.23592112      -0.35399693
H        0.40012321       1.67606420       0.40623749
H       -0.63309105       1.02482689      -1.77174703
H        0.89511339      -0.53119842      -1.21239803
H       -2.19593059      -1.15441064      -1.06618183
H       -2.73477401       0.48869136      -0.67225776
H       -0.68469274       0.47393971       2.25407264
H        0.01295188      -1.02670414       1.62777082
16
Frame=16 idx=003243 GeodesicLength=1.6303024700947515 rxn_smarts="[C:1]([C@@:2]1([H:10])[C:3]([H:11])([H:12])[C:4]([H:13])([H:14])[O:5][C:6]1([H:15])[H:16])([H:7])([H:8])[H:9]>>[C:1]([H:7])([H:8])([H:9])[H:12].[C:2]1([H:10])=[C:3]([H:11])[C:4]([H:13])([H:14])[O:5][C:6]1([H:15])[H:16]"
C        2.09297656      -0.21070335      -0.19520445
C        0.10148332       0.65235989       0.25375678
C       -0.57259674       0.27901072      -0.95142866
C       -1.92780365      -0.23411394      -0.52267173
O       -1.84711036      -0.47689699       0.87409371
C       -0.56375223      -0.12366148       1.36010325
H        2.67419697       0.50264423      -0.78429554
H        2.50073935      -0.05256402       0.80975265
H        2.47128073      -1.21923016      -0.38096560
H        0.37795761       1.68775056       0.40897285
H       -0.62088413       0.99857274      -1.76913581
H        0.91904730      -0.56597908      -1.25554950
H       -2.19806990      -1.15877008      -1.04333739
H       -2.72526693       0.49909050      -0.69669822
H       -0.67160298       0.46111145       2.27898293
H       -0.01059492      -1.03862099       1.61362472
