15
Frame=0 idx=008902 GeodesicLength=0.0 rxn_smarts="[C:1]([n:2]1[c:3]([H:11])[c:4]([H:12])[c:5]([H:13])[c:6]1[N:7]([H:14])[H:15])([H:8])([H:9])[H:10]>>[C:1]([N+:2]1([H:11])[C-:3]=[C:4]([H:12])[C:5]([H:13])=[C:6]1[N:7]([H:14])[H:15])([H:8])([H:9])[H:10]"
C       -1.22889048      -1.31208686       0.60919363
N       -0.06044339      -0.64966351       0.05025396
C        1.34633261      -1.16853822       0.35592834
C        2.07494594      -0.04717808       0.01862692
C        1.27110667       1.08766785      -0.28275120
C       -0.03382793       0.70935294      -0.26182748
N       -1.22274344       1.36845076      -0.60172198
H       -2.10177414      -1.12488512      -0.01564536
H       -1.01332378      -2.37734059       0.65731489
H       -1.40721790      -0.94790133       1.62093512
H        0.46386998      -1.36652431      -0.70373918
H        3.15599706      -0.04537453       0.01050062
H        1.61947359       2.08194640      -0.52641790
H       -1.81286392       1.57807105       0.19168611
H       -1.05064091       2.21400355      -1.12233643
15
Frame=1 idx=008902 GeodesicLength=0.046726426009941695 rxn_smarts="[C:1]([n:2]1[c:3]([H:11])[c:4]([H:12])[c:5]([H:13])[c:6]1[N:7]([H:14])[H:15])([H:8])([H:9])[H:10]>>[C:1]([N+:2]1([H:11])[C-:3]=[C:4]([H:12])[C:5]([H:13])=[C:6]1[N:7]([H:14])[H:15])([H:8])([H:9])[H:10]"
C       -1.22702850      -1.31049729       0.61088857
N       -0.06037837      -0.65310571       0.04200611
C        1.34230381      -1.16536386       0.35087929
C        2.07427905      -0.04424675       0.02547446
C        1.26900308       1.09037515      -0.27768758
C       -0.03448073       0.70786253      -0.26765695
N       -1.22430420       1.36771617      -0.60372606
H       -2.10447649      -1.11586594      -0.00521318
H       -1.01935586      -2.37759423       0.65249352
H       -1.39375040      -0.94935148       1.62570904
H        0.46806764      -1.38568918      -0.71265103
H        3.15522110      -0.04393664       0.01493089
H        1.61678490       2.08566933      -0.51780329
H       -1.80842277       1.58400422       0.19237397
H       -1.05346226       2.21002369      -1.13001776
15
Frame=2 idx=008902 GeodesicLength=0.09345198824077158 rxn_smarts="[C:1]([n:2]1[c:3]([H:11])[c:4]([H:12])[c:5]([H:13])[c:6]1[N:7]([H:14])[H:15])([H:8])([H:9])[H:10]>>[C:1]([N+:2]1([H:11])[C-:3]=[C:4]([H:12])[C:5]([H:13])=[C:6]1[N:7]([H:14])[H:15])([H:8])([H:9])[H:10]"
C       -1.22510922      -1.30886273       0.61256931
N       -0.06032942      -0.65647184       0.03382321
C        1.33830173      -1.16224832       0.34552874
C        2.07352839      -0.04133447       0.03235872
C        1.26682829       1.09312013      -0.27241869
C       -0.03512298       0.70647224      -0.27332920
N       -1.22583386       1.36700555      -0.60577963
H       -2.10695480      -1.10681833       0.00521099
H       -1.02542255      -2.37771449       0.64778394
H       -1.38027134      -0.95082471       1.63033451
H        0.47232520      -1.40516688      -0.72128427
H        3.15435371      -0.04254865       0.01904569
H        1.61403134       2.08941179      -0.50899443
H       -1.80407817       1.58991691       0.19282190
H       -1.05624634       2.20606381      -1.13767080
15
Frame=3 idx=008902 GeodesicLength=0.1401830260247861 rxn_smarts="[C:1]([n:2]1[c:3]([H:11])[c:4]([H:12])[c:5]([H:13])[c:6]1[N:7]([H:14])[H:15])([H:8])([H:9])[H:10]>>[C:1]([N+:2]1([H:11])[C-:3]=[C:4]([H:12])[C:5]([H:13])=[C:6]1[N:7]([H:14])[H:15])([H:8])([H:9])[H:10]"
C       -1.22313385      -1.30718490       0.61423298
N       -0.06029888      -0.65976013       0.02569623
C        1.33432720      -1.15918939       0.33986439
C        2.07269538      -0.03844668       0.03926835
C        1.26458206       1.09589969      -0.26695253
C       -0.03575549       0.70518532      -0.27884300
N       -1.22733544       1.36632587      -0.60787509
H       -2.10921674      -1.09774085       0.01562707
H       -1.03152073      -2.37770350       0.64317606
H       -1.36677491      -0.95232848       1.63481559
H        0.47664272      -1.42497136      -0.72963461
H        3.15339548      -0.04119114       0.02290028
H        1.61122071       2.09315863      -0.50003886
H       -1.79983576       1.59581059       0.19304374
H       -1.05899176       2.20213635      -1.14528059
15
Frame=4 idx=008902 GeodesicLength=0.18691677288122024 rxn_smarts="[C:1]([n:2]1[c:3]([H:11])[c:4]([H:12])[c:5]([H:13])[c:6]1[N:7]([H:14])[H:15])([H:8])([H:9])[H:10]>>[C:1]([N+:2]1([H:11])[C-:3]=[C:4]([H:12])[C:5]([H:13])=[C:6]1[N:7]([H:14])[H:15])([H:8])([H:9])[H:10]"
C       -1.22110039      -1.30546701       0.61587173
N       -0.06028894      -0.66296822       0.01761969
C        1.33038184      -1.15618185       0.33388272
C        2.07177732      -0.03558506       0.04621100
C        1.26226386       1.09871308      -0.26128421
C       -0.03637921       0.70400703      -0.28418915
N       -1.22881061       1.36568435      -0.60999927
H       -2.11126292      -1.08863046       0.02603133
H       -1.03764888      -2.37756508       0.63865144
H       -1.35325662      -0.95387381       1.63914709
H        0.48101876      -1.44511120      -0.73769371
H        3.15234248      -0.03984932       0.02653950
H        1.60836004       2.09688789      -0.49101683
H       -1.79569934       1.60168704       0.19305817
H       -1.06169738       2.19825261      -1.15282951
15
Frame=5 idx=008902 GeodesicLength=0.23365626097774145 rxn_smarts="[C:1]([n:2]1[c:3]([H:11])[c:4]([H:12])[c:5]([H:13])[c:6]1[N:7]([H:14])[H:15])([H:8])([H:9])[H:10]>>[C:1]([N+:2]1([H:11])[C-:3]=[C:4]([H:12])[C:5]([H:13])=[C:6]1[N:7]([H:14])[H:15])([H:8])([H:9])[H:10]"
C       -1.21900890      -1.30370940       0.61748364
N       -0.06030234      -0.66609466       0.00958443
C        1.32646618      -1.15322126       0.32757491
C        2.07077366      -0.03275428       0.05317901
C        1.25987216       1.10155702      -0.25542083
C       -0.03699552       0.70293993      -0.28936859
N       -1.23026145       1.36508553      -0.61214963
H       -2.11309788      -1.07948540       0.03642657
H       -1.04380376      -2.37730038       0.63420171
H       -1.33970717      -0.95546385       1.64333065
H        0.48545214      -1.46560272      -0.74545217
H        3.15119285      -0.03851216       0.02999218
H        1.60545439       2.10059402      -0.48194238
H       -1.79167244       1.60754789       0.19287346
H       -1.06436195       2.19441972      -1.16031296
15
Frame=6 idx=008902 GeodesicLength=0.2804025725762193 rxn_smarts="[C:1]([n:2]1[c:3]([H:11])[c:4]([H:12])[c:5]([H:13])[c:6]1[N:7]([H:14])[H:15])([H:8])([H:9])[H:10]>>[C:1]([N+:2]1([H:11])[C-:3]=[C:4]([H:12])[C:5]([H:13])=[C:6]1[N:7]([H:14])[H:15])([H:8])([H:9])[H:10]"
C       -1.21685900      -1.30191262       0.61906677
N       -0.06034213      -0.66913962       0.00157591
C        1.32258061      -1.15030411       0.32092710
C        2.06968352      -0.02995993       0.06015948
C        1.25740764       1.10442633      -0.24937891
C       -0.03760654       0.70198352      -0.29439212
N       -1.23169184       1.36453427      -0.61432510
H       -2.11472892      -1.07030307       0.04681961
H       -1.04998247      -2.37690983       0.62982401
H       -1.32611596      -0.95710069       1.64736911
H        0.48994248      -1.48646676      -0.75290033
H        3.14994691      -0.03716633       0.03329742
H        1.60250718       2.10427592      -0.47281734
H       -1.78775571       1.61339583       0.19249935
H       -1.06698578       2.19064708      -1.16772497
15
Frame=7 idx=008902 GeodesicLength=0.3271534195583001 rxn_smarts="[C:1]([n:2]1[c:3]([H:11])[c:4]([H:12])[c:5]([H:13])[c:6]1[N:7]([H:14])[H:15])([H:8])([H:9])[H:10]>>[C:1]([N+:2]1([H:11])[C-:3]=[C:4]([H:12])[C:5]([H:13])=[C:6]1[N:7]([H:14])[H:15])([H:8])([H:9])[H:10]"
C       -1.21464824      -1.30007637       0.62061848
N       -0.06041162      -0.67210245      -0.00641749
C        1.31872540      -1.14742626       0.31392721
C        2.06850471      -0.02720675       0.06714738
C        1.25486927       1.10731676      -0.24316883
C       -0.03821462       0.70113913      -0.29926578
N       -1.23310474       1.36403487      -0.61652412
H       -2.11615673      -1.06108092       0.05721621
H       -1.05618366      -2.37639288       0.62551294
H       -1.31247070      -0.95878617       1.65126029
H        0.49448873      -1.50772090      -0.76002489
H        3.14860171      -0.03580379       0.03648186
H        1.59952020       2.10793116      -0.46364467
H       -1.78395009       1.61923313       0.19194415
H       -1.06956962       2.18694144      -1.17506272
15
Frame=8 idx=008902 GeodesicLength=0.37391309779405163 rxn_smarts="[C:1]([n:2]1[c:3]([H:11])[c:4]([H:12])[c:5]([H:13])[c:6]1[N:7]([H:14])[H:15])([H:8])([H:9])[H:10]>>[C:1]([N+:2]1([H:11])[C-:3]=[C:4]([H:12])[C:5]([H:13])=[C:6]1[N:7]([H:14])[H:15])([H:8])([H:9])[H:10]"
C       -1.21237585      -1.29820143       0.62213572
N       -0.06051435      -0.67498222      -0.01440949
C        1.31490018      -1.14458271       0.30656191
C        2.06723644      -0.02449894       0.07413420
C        1.25225551       1.11022397      -0.23680529
C       -0.03882201       0.70040749      -0.30399902
N       -1.23450460       1.36359307      -0.61874250
H       -2.11738872      -1.05181774       0.06761752
H       -1.06240420      -2.37575025       0.62126270
H       -1.29876232      -0.96052367       1.65500458
H        0.49909435      -1.52938735      -0.76680951
H        3.14715532      -0.03441254       0.03958391
H        1.59650109       2.11155616      -0.45443971
H       -1.78025495       1.62506256       0.19122234
H       -1.07211590       2.18331361      -1.18231737
15
Frame=9 idx=008902 GeodesicLength=0.4206838184082288 rxn_smarts="[C:1]([n:2]1[c:3]([H:11])[c:4]([H:12])[c:5]([H:13])[c:6]1[N:7]([H:14])[H:15])([H:8])([H:9])[H:10]>>[C:1]([N+:2]1([H:11])[C-:3]=[C:4]([H:12])[C:5]([H:13])=[C:6]1[N:7]([H:14])[H:15])([H:8])([H:9])[H:10]"
C       -1.21003905      -1.29628998       0.62361005
N       -0.06065554      -0.67777709      -0.02241602
C        1.31110402      -1.14177000       0.29880897
C        2.06587209      -0.02183857       0.08112668
C        1.24956629       1.11314637      -0.23029296
C       -0.03943268       0.69979246      -0.30859325
N       -1.23589569       1.36321889      -0.62096345
H       -2.11842426      -1.04250978       0.07802891
H       -1.06864392      -2.37498391       0.61705404
H       -1.28497517      -0.96232374       1.65859380
H        0.50376259      -1.55148332      -0.77324070
H        3.14560139      -0.03297513       0.04268119
H        1.59345750       2.11512781      -0.44528863
H       -1.77666699       1.63088837       0.19036136
H       -1.07463057       2.17977763      -1.18947000
15
Frame=10 idx=008902 GeodesicLength=0.4674637761090005 rxn_smarts="[C:1]([n:2]1[c:3]([H:11])[c:4]([H:12])[c:5]([H:13])[c:6]1[N:7]([H:14])[H:15])([H:8])([H:9])[H:10]>>[C:1]([N+:2]1([H:11])[C-:3]=[C:4]([H:12])[C:5]([H:13])=[C:6]1[N:7]([H:14])[H:15])([H:8])([H:9])[H:10]"
C       -1.20763577      -1.29434575       0.62503039
N       -0.06083945      -0.68048520      -0.03045424
C        1.30733509      -1.13898245       0.29065149
C        2.06440788      -0.01922839       0.08812566
C        1.24679917       1.11608005      -0.22365001
C       -0.04004973       0.69929731      -0.31305613
N       -1.23728571       1.36292337      -0.62316749
H       -2.11926541      -1.03315289       0.08845013
H       -1.07490093      -2.37409658       0.61287109
H       -1.27109883      -0.96419907       1.66201952
H        0.50849840      -1.57402595      -0.77930116
H        3.14394013      -0.03147419       0.04586230
H        1.59040260       2.11862280      -0.43628217
H       -1.77318259       1.63671496       0.18939544
H       -1.07712485       2.17635199      -1.19649482
15
Frame=11 idx=008902 GeodesicLength=0.5144362046841667 rxn_smarts="[C:1]([n:2]1[c:3]([H:11])[c:4]([H:12])[c:5]([H:13])[c:6]1[N:7]([H:14])[H:15])([H:8])([H:9])[H:10]>>[C:1]([N+:2]1([H:11])[C-:3]=[C:4]([H:12])[C:5]([H:13])=[C:6]1[N:7]([H:14])[H:15])([H:8])([H:9])[H:10]"
C       -1.20519815      -1.29234121       0.62644121
N       -0.06107045      -0.68309164      -0.03844272
C        1.30360636      -1.13625064       0.28214120
C        2.06283084      -0.01662392       0.09526025
C        1.24399404       1.11902053      -0.21695353
C       -0.04066610       0.69892758      -0.31737759
N       -1.23868762       1.36271749      -0.62529845
H       -2.11993122      -1.02376834       0.09886260
H       -1.08111039      -2.37317994       0.60865571
H       -1.25715975      -0.96615384       1.66535019
H        0.51327437      -1.59694761      -0.78517240
H        3.14216974      -0.02994106       0.04914736
H        1.58733713       2.12202820      -0.42749398
H       -1.76976976       1.64257963       0.18833762
H       -1.07961907       2.17302478      -1.20345746
15
Frame=12 idx=008902 GeodesicLength=0.5612523628920187 rxn_smarts="[C:1]([n:2]1[c:3]([H:11])[c:4]([H:12])[c:5]([H:13])[c:6]1[N:7]([H:14])[H:15])([H:8])([H:9])[H:10]>>[C:1]([N+:2]1([H:11])[C-:3]=[C:4]([H:12])[C:5]([H:13])=[C:6]1[N:7]([H:14])[H:15])([H:8])([H:9])[H:10]"
C       -1.20262683      -1.29031412       0.62779580
N       -0.06135271      -0.68565335      -0.04662836
C        1.29988108      -1.13350091       0.27307383
C        2.06117069      -0.01416356       0.10211380
C        1.24105441       1.12194109      -0.21014659
C       -0.04130378       0.69861949      -0.32173955
N       -1.24007267       1.36253173      -0.62762584
H       -2.12040486      -1.01424904       0.10946811
H       -1.08744677      -2.37198911       0.60461076
H       -1.24294600      -0.96812053       1.66848060
H        0.51810462      -1.62049471      -0.79047386
H        3.14031100      -0.02833427       0.05242483
H        1.58416023       2.12555377      -0.41805448
H       -1.76646034       1.64841481       0.18707435
H       -1.08206806       2.16975870      -1.21037340
15
Frame=13 idx=008902 GeodesicLength=0.6080846129571507 rxn_smarts="[C:1]([n:2]1[c:3]([H:11])[c:4]([H:12])[c:5]([H:13])[c:6]1[N:7]([H:14])[H:15])([H:8])([H:9])[H:10]>>[C:1]([N+:2]1([H:11])[C-:3]=[C:4]([H:12])[C:5]([H:13])=[C:6]1[N:7]([H:14])[H:15])([H:8])([H:9])[H:10]"
C       -1.19995334      -1.28820861       0.62916028
N       -0.06169440      -0.68815622      -0.05494403
C        1.29618407      -1.13079591       0.26342605
C        2.05940276      -0.01181219       0.10879023
C        1.23804430       1.12481419      -0.20340118
C       -0.04195368       0.69839548      -0.32613069
N       -1.24147407       1.36240375      -0.63005096
H       -2.12070436      -1.00461615       0.12024690
H       -1.09379608      -2.37064317       0.60067079
H       -1.22846600      -0.97007878       1.67150631
H        0.52294446      -1.64462863      -0.79536482
H        3.13834515      -0.02667685       0.05579394
H        1.58084746       2.12918000      -0.40795331
H       -1.76322261       1.65427648       0.18559369
H       -1.08450366       2.16654662      -1.21734321
15
Frame=14 idx=008902 GeodesicLength=0.6548701476382477 rxn_smarts="[C:1]([n:2]1[c:3]([H:11])[c:4]([H:12])[c:5]([H:13])[c:6]1[N:7]([H:14])[H:15])([H:8])([H:9])[H:10]>>[C:1]([N+:2]1([H:11])[C-:3]=[C:4]([H:12])[C:5]([H:13])=[C:6]1[N:7]([H:14])[H:15])([H:8])([H:9])[H:10]"
C       -1.19717792      -1.28601441       0.63052354
N       -0.06212044      -0.69059260      -0.06344136
C        1.29252016      -1.12815749       0.25313066
C        2.05750259      -0.00956795       0.11533373
C        1.23495753       1.12764037      -0.19671675
C       -0.04263093       0.69826294      -0.33056258
N       -1.24290227       1.36236341      -0.63253296
H       -2.12082048      -0.99488907       0.13119963
H       -1.10013528      -2.36916364       0.59679797
H       -1.21369135      -0.97204661       1.67441586
H        0.52780230      -1.66937340      -0.79979190
H        3.13625897      -0.02494127       0.05941338
H        1.57741678       2.13285561      -0.39739692
H       -1.76003809       1.66018676       0.18394536
H       -1.08694159       2.16343735      -1.22431765
15
Frame=15 idx=008902 GeodesicLength=0.7016554929396729 rxn_smarts="[C:1]([n:2]1[c:3]([H:11])[c:4]([H:12])[c:5]([H:13])[c:6]1[N:7]([H:14])[H:15])([H:8])([H:9])[H:10]>>[C:1]([N+:2]1([H:11])[C-:3]=[C:4]([H:12])[C:5]([H:13])=[C:6]1[N:7]([H:14])[H:15])([H:8])([H:9])[H:10]"
C       -1.19429001      -1.28375098       0.63186091
N       -0.06262627      -0.69296518      -0.07212132
C        1.28887494      -1.12555083       0.24219653
C        2.05546921      -0.00743060       0.12176001
C        1.23178501       1.13042097      -0.19008520
C       -0.04333417       0.69821963      -0.33504357
N       -1.24435670       1.36240453      -0.63507866
H       -2.12074625      -0.98504181       0.14232677
H       -1.10649141      -2.36752785       0.59299203
H       -1.19861023      -0.97404210       1.67717655
H        0.53269723      -1.69473722      -0.80373172
H        3.13405715      -0.02313586       0.06329562
H        1.57386931       2.13656999      -0.38644252
H       -1.75690763       1.66613352       0.18216265
H       -1.08939017       2.16043379      -1.23126807
15
Frame=16 idx=008902 GeodesicLength=0.7485744003213142 rxn_smarts="[C:1]([n:2]1[c:3]([H:11])[c:4]([H:12])[c:5]([H:13])[c:6]1[N:7]([H:14])[H:15])([H:8])([H:9])[H:10]>>[C:1]([N+:2]1([H:11])[C-:3]=[C:4]([H:12])[C:5]([H:13])=[C:6]1[N:7]([H:14])[H:15])([H:8])([H:9])[H:10]"
C       -1.19122581      -1.28138855       0.63314078
N       -0.06326339      -0.69524968      -0.08115314
C        1.28524801      -1.12296862       0.23027356
C        2.05322361      -0.00546252       0.12802873
C        1.22849228       1.13311547      -0.18360031
C       -0.04409016       0.69829687      -0.33965494
N       -1.24586970       1.36258283      -0.63769071
H       -2.12040658      -0.97502665       0.15373705
H       -1.11286481      -2.36565910       0.58926788
H       -1.18302910      -0.97607632       1.67969576
H        0.53765806      -1.72102727      -0.80689171
H        3.13167513      -0.02121192       0.06772675
H        1.57017146       2.14031422      -0.37497889
H       -1.75382969       1.67213909       0.18025042
H       -1.09188932       2.15762217      -1.23815123
