12
Frame=0 idx=003459 GeodesicLength=0.0 rxn_smarts="[N:1]([C:2](=[O:3])[N:4]1[C:5]([H:9])([H:10])[C:6]1([H:11])[H:12])([H:7])[H:8]>>[H:7][H:10].[N:1](=[C:2]=[O:3])[H:8].[N:4]1=[C:5]([H:9])[C:6]1([H:11])[H:12]"
N        1.57988362      -0.51331230       0.42928285
C        1.23263348      -0.61408230      -0.79547335
O        1.61395523      -0.79023458      -1.90821279
N       -0.42495277      -0.33431099      -0.70393686
C       -1.24995166      -0.28867730       0.26473272
C       -1.14999735       0.93755640      -0.52569614
H        0.43581713      -0.03843065       1.43123631
H        2.57736570      -0.52114888       0.57981317
H       -1.81406136      -0.97630530       0.87254163
H       -0.31840597       0.18792500       1.72781509
H       -1.87920460       1.18486472      -1.28857421
H       -0.60308144       1.76615622      -0.08352838
12
Frame=1 idx=003459 GeodesicLength=0.10803601887698021 rxn_smarts="[N:1]([C:2](=[O:3])[N:4]1[C:5]([H:9])([H:10])[C:6]1([H:11])[H:12])([H:7])[H:8]>>[H:7][H:10].[N:1](=[C:2]=[O:3])[H:8].[N:4]1=[C:5]([H:9])[C:6]1([H:11])[H:12]"
N        1.59404086      -0.50939545       0.42303098
C        1.23998430      -0.64844119      -0.79633960
O        1.61488089      -0.90320927      -1.89587918
N       -0.42956332      -0.32139549      -0.70782866
C       -1.26213971      -0.28504498       0.26012757
C       -1.14579148       0.95270023      -0.51016098
H        0.45810211      -0.04872963       1.43038709
H        2.58745520      -0.39155271       0.55633152
H       -1.85635905      -0.98431335       0.82464383
H       -0.32727472       0.14711762       1.72958872
H       -1.86826926       1.22151862      -1.27213546
H       -0.60506583       1.77074560      -0.04176584
12
Frame=2 idx=003459 GeodesicLength=0.2156745387049045 rxn_smarts="[N:1]([C:2](=[O:3])[N:4]1[C:5]([H:9])([H:10])[C:6]1([H:11])[H:12])([H:7])[H:8]>>[H:7][H:10].[N:1](=[C:2]=[O:3])[H:8].[N:4]1=[C:5]([H:9])[C:6]1([H:11])[H:12]"
N        1.61117572      -0.49864139       0.41606804
C        1.24823152      -0.68352208      -0.79493431
O        1.61517146      -1.01742420      -1.87552845
N       -0.43231631      -0.30763248      -0.71149778
C       -1.27312274      -0.28216328       0.25507138
C       -1.14116631       0.96741288      -0.49366244
H        0.48183740      -0.05796265       1.42967214
H        2.58739007      -0.26531447       0.52476061
H       -1.89771924      -0.99102378       0.77317173
H       -0.33530243       0.10421406       1.73009004
H       -1.85602935       1.25765407      -1.25482410
H       -0.60814979       1.77440331       0.00161315
12
Frame=3 idx=003459 GeodesicLength=0.3236281032712436 rxn_smarts="[N:1]([C:2](=[O:3])[N:4]1[C:5]([H:9])([H:10])[C:6]1([H:11])[H:12])([H:7])[H:8]>>[H:7][H:10].[N:1](=[C:2]=[O:3])[H:8].[N:4]1=[C:5]([H:9])[C:6]1([H:11])[H:12]"
N        1.63015148      -0.48485597       0.40828456
C        1.25775258      -0.71712663      -0.79211489
O        1.61607216      -1.13042478      -1.84764744
N       -0.43355441      -0.29288123      -0.71542985
C       -1.28297536      -0.27997058       0.24948693
C       -1.13696673       0.98160384      -0.47661939
H        0.50749162      -0.06484576       1.42864741
H        2.57843822      -0.14635140       0.48775735
H       -1.93674746      -0.99627557       0.71954398
H       -0.34187560       0.06097574       1.72880100
H       -1.84422805       1.29267927      -1.23656722
H       -0.61355844       1.77747307       0.04585756
12
Frame=4 idx=003459 GeodesicLength=0.43184257177895513 rxn_smarts="[N:1]([C:2](=[O:3])[N:4]1[C:5]([H:9])([H:10])[C:6]1([H:11])[H:12])([H:7])[H:8]>>[H:7][H:10].[N:1](=[C:2]=[O:3])[H:8].[N:4]1=[C:5]([H:9])[C:6]1([H:11])[H:12]"
N        1.65078263      -0.46773579       0.39974728
C        1.26831939      -0.75006318      -0.78733060
O        1.61699708      -1.24141532      -1.81185146
N       -0.43345949      -0.27729476      -0.71935646
C       -1.29196830      -0.27845968       0.24344697
C       -1.13317615       0.99526282      -0.45892824
H        0.53500944      -0.06897029       1.42732954
H        2.56253509      -0.03456894       0.44457593
H       -1.97431691      -0.99984179       0.66301047
H       -0.34705531       0.01661222       1.72568693
H       -1.83246654       1.32676319      -1.21752731
H       -0.62120093       1.77971152       0.09119694
12
Frame=5 idx=003459 GeodesicLength=0.5400311643624928 rxn_smarts="[N:1]([C:2](=[O:3])[N:4]1[C:5]([H:9])([H:10])[C:6]1([H:11])[H:12])([H:7])[H:8]>>[H:7][H:10].[N:1](=[C:2]=[O:3])[H:8].[N:4]1=[C:5]([H:9])[C:6]1([H:11])[H:12]"
N        1.67223074      -0.45042185       0.39032807
C        1.27969116      -0.78182901      -0.78129286
O        1.61876854      -1.34790583      -1.76956970
N       -0.43247170      -0.26122966      -0.72335504
C       -1.30012755      -0.27747191       0.23709700
C       -1.12987926       1.00823838      -0.44094348
H        0.56447639      -0.07038437       1.42539841
H        2.53928937       0.06919084       0.39779760
H       -2.00935040      -1.00145924       0.60519399
H       -0.35036300      -0.02740830       1.72041088
H       -1.82132942       1.35961477      -1.19769275
H       -0.63093486       1.78106619       0.13662788
12
Frame=6 idx=003459 GeodesicLength=0.6484497900311336 rxn_smarts="[N:1]([C:2](=[O:3])[N:4]1[C:5]([H:9])([H:10])[C:6]1([H:11])[H:12])([H:7])[H:8]>>[H:7][H:10].[N:1](=[C:2]=[O:3])[H:8].[N:4]1=[C:5]([H:9])[C:6]1([H:11])[H:12]"
N        1.69449232      -0.43183652       0.37993015
C        1.29210877      -0.81167060      -0.77430183
O        1.62082267      -1.45016089      -1.72075370
N       -0.43074719      -0.24440974      -0.72744683
C       -1.30771989      -0.27710988       0.23033268
C       -1.12761647       1.02058640      -0.42259926
H        0.59577634      -0.06829241       1.42276309
H        2.51195545       0.16267206       0.34814645
H       -2.04222110      -1.00133136       0.54566057
H       -0.35197557      -0.07125674       1.71293232
H       -1.81133957       1.39121556      -1.17710678
H       -0.64353575       1.78159412       0.18244313
12
Frame=7 idx=003459 GeodesicLength=0.7569086579011232 rxn_smarts="[N:1]([C:2](=[O:3])[N:4]1[C:5]([H:9])([H:10])[C:6]1([H:11])[H:12])([H:7])[H:8]>>[H:7][H:10].[N:1](=[C:2]=[O:3])[H:8].[N:4]1=[C:5]([H:9])[C:6]1([H:11])[H:12]"
N        1.71725057      -0.41269195       0.36848463
C        1.30537677      -0.83978730      -0.76659173
O        1.62307656      -1.54749438      -1.66609775
N       -0.42857179      -0.22696720      -0.73160605
C       -1.31493784      -0.27731910       0.22314029
C       -1.12640404       1.03229167      -0.40396960
H        0.62871323      -0.06297734       1.41933312
H        2.48161290       0.24618804       0.29661078
H       -2.07280140      -0.99940643       0.48491600
H       -0.35199019      -0.11462260       1.70318825
H       -1.80253064       1.42166572      -1.15580341
H       -0.65879414       1.78112087       0.22839548
12
Frame=8 idx=003459 GeodesicLength=0.8655725914413471 rxn_smarts="[N:1]([C:2](=[O:3])[N:4]1[C:5]([H:9])([H:10])[C:6]1([H:11])[H:12])([H:7])[H:8]>>[H:7][H:10].[N:1](=[C:2]=[O:3])[H:8].[N:4]1=[C:5]([H:9])[C:6]1([H:11])[H:12]"
N        1.74039662      -0.39331801       0.35577497
C        1.31938436      -0.86648827      -0.75846699
O        1.62551430      -1.64027087      -1.60579053
N       -0.42615492      -0.20901207      -0.73589821
C       -1.32195491      -0.27805212       0.21544400
C       -1.12604686       1.04340350      -0.38499601
H        0.66318864      -0.05493197       1.41502385
H        2.44850710       0.32116298       0.24362266
H       -2.10126575      -0.99557924       0.42311367
H       -0.35057240      -0.15764547       1.69119284
H       -1.79470656       1.45130408      -1.13361116
H       -0.67628962       1.77942747       0.27459090
12
Frame=9 idx=003459 GeodesicLength=0.9743387504888557 rxn_smarts="[N:1]([C:2](=[O:3])[N:4]1[C:5]([H:9])([H:10])[C:6]1([H:11])[H:12])([H:7])[H:8]>>[H:7][H:10].[N:1](=[C:2]=[O:3])[H:8].[N:4]1=[C:5]([H:9])[C:6]1([H:11])[H:12]"
N        1.76373219      -0.37424955       0.34176838
C        1.33390258      -0.89225583      -0.74998938
O        1.62841475      -1.72772699      -1.54075382
N       -0.42372557      -0.19077664      -0.74026193
C       -1.32891309      -0.27921094       0.20732047
C       -1.12641751       1.05387422      -0.36576545
H        0.69912786      -0.04439174       1.40975376
H        2.41282426       0.38801155       0.18988421
H       -2.12762293      -0.98977333       0.36081652
H       -0.34795485      -0.20000947       1.67707925
H       -1.78773973       1.48015621      -1.11058605
H       -0.69562796       1.77635252       0.32073404
12
Frame=10 idx=003459 GeodesicLength=1.0832277035420277 rxn_smarts="[N:1]([C:2](=[O:3])[N:4]1[C:5]([H:9])([H:10])[C:6]1([H:11])[H:12])([H:7])[H:8]>>[H:7][H:10].[N:1](=[C:2]=[O:3])[H:8].[N:4]1=[C:5]([H:9])[C:6]1([H:11])[H:12]"
N        1.78717182      -0.35532117       0.32640200
C        1.34895268      -0.91709919      -0.74126020
O        1.63152813      -1.80999726      -1.47113559
N       -0.42139154      -0.17211973      -0.74472510
C       -1.33597023      -0.28084866       0.19863102
C       -1.12769250       1.06372348      -0.34619914
H        0.73644943      -0.03102516       1.40339267
H        2.37629316       0.44653798       0.13569726
H       -2.15206077      -0.98209231       0.29795917
H       -0.34447153      -0.24184091       1.66086288
H       -1.78180849       1.50831221      -1.08661173
H       -0.71700017       1.77177074       0.36698675
12
Frame=11 idx=003459 GeodesicLength=1.192193974962191 rxn_smarts="[N:1]([C:2](=[O:3])[N:4]1[C:5]([H:9])([H:10])[C:6]1([H:11])[H:12])([H:7])[H:8]>>[H:7][H:10].[N:1](=[C:2]=[O:3])[H:8].[N:4]1=[C:5]([H:9])[C:6]1([H:11])[H:12]"
N        1.81059291      -0.33669117       0.30959830
C        1.36441911      -0.94128552      -0.73231289
O        1.63489484      -1.88706959      -1.39719499
N       -0.41927082      -0.15304044      -0.74930035
C       -1.34325190      -0.28293412       0.18928110
C       -1.12982767       1.07296319      -0.32624869
H        0.77511123      -0.01483908       1.39580818
H        2.33952899       0.49727077       0.08125924
H       -2.17466818      -0.97257982       0.23470866
H       -0.34047721      -0.28322965       1.64261155
H       -1.77684012       1.53592612      -1.06157393
H       -0.74021117       1.76550930       0.41336383
12
Frame=12 idx=003459 GeodesicLength=1.301237385838774 rxn_smarts="[N:1]([C:2](=[O:3])[N:4]1[C:5]([H:9])([H:10])[C:6]1([H:11])[H:12])([H:7])[H:8]>>[H:7][H:10].[N:1](=[C:2]=[O:3])[H:8].[N:4]1=[C:5]([H:9])[C:6]1([H:11])[H:12]"
N        1.83391730      -0.31851063       0.29132552
C        1.38017163      -0.96518538      -0.72301191
O        1.63864829      -1.95887545      -1.31926063
N       -0.41744727      -0.13355660      -0.75396896
C       -1.35087908      -0.28543216       0.17918788
C       -1.13274494       1.08159010      -0.30585017
H        0.81512143       0.00426945       1.38688007
H        2.30292583       0.54075153       0.02656093
H       -2.19560003      -0.96124113       0.17117035
H       -0.33636473      -0.32433392       1.62241685
H       -1.77268774       1.56313685      -1.03535875
H       -0.76506069       1.75738735       0.45990881
12
Frame=13 idx=003459 GeodesicLength=1.410296662462833 rxn_smarts="[N:1]([C:2](=[O:3])[N:4]1[C:5]([H:9])([H:10])[C:6]1([H:11])[H:12])([H:7])[H:8]>>[H:7][H:10].[N:1](=[C:2]=[O:3])[H:8].[N:4]1=[C:5]([H:9])[C:6]1([H:11])[H:12]"
N        1.85709734      -0.30098777       0.27169313
C        1.39610117      -0.98913594      -0.71305460
O        1.64284042      -2.02517905      -1.23797577
N       -0.41596332      -0.11365480      -0.75866604
C       -1.35895425      -0.28833669       0.16826779
C       -1.13645778       1.08956544      -0.28495721
H        0.85650599       0.02670353       1.37648118
H        2.26720659       0.57719070      -0.02835345
H       -2.21503465      -0.94807144       0.10746634
H       -0.33256297      -0.36528703       1.60039052
H       -1.76930826       1.58995407      -1.00790226
H       -0.79147027       1.74723898       0.50661036
12
Frame=14 idx=003459 GeodesicLength=1.519404940259759 rxn_smarts="[N:1]([C:2](=[O:3])[N:4]1[C:5]([H:9])([H:10])[C:6]1([H:11])[H:12])([H:7])[H:8]>>[H:7][H:10].[N:1](=[C:2]=[O:3])[H:8].[N:4]1=[C:5]([H:9])[C:6]1([H:11])[H:12]"
N        1.88009526      -0.28412041       0.25054866
C        1.41214222      -1.01325901      -0.70238455
O        1.64745394      -2.08637623      -1.15297021
N       -0.41483807      -0.09319331      -0.76340306
C       -1.36756339      -0.29163866       0.15633135
C       -1.14093102       1.09690859      -0.26338079
H        0.89939892       0.05280504       1.36432837
H        2.23281786       0.60708964      -0.08376808
H       -2.23310221      -0.93308728       0.04333029
H       -0.32945022      -0.40653686       1.57649115
H       -1.76660933       1.61659994      -0.97887828
H       -0.81941396       1.73480853       0.55375515
12
Frame=15 idx=003459 GeodesicLength=1.6285735173129465 rxn_smarts="[N:1]([C:2](=[O:3])[N:4]1[C:5]([H:9])([H:10])[C:6]1([H:11])[H:12])([H:7])[H:8]>>[H:7][H:10].[N:1](=[C:2]=[O:3])[H:8].[N:4]1=[C:5]([H:9])[C:6]1([H:11])[H:12]"
N        1.90290241      -0.26798598       0.22784911
C        1.42819370      -1.03780447      -0.69067975
O        1.65254024      -2.14252471      -1.06417593
N       -0.41406821      -0.07207650      -0.76812986
C       -1.37679723      -0.29532850       0.14319710
C       -1.14612331       1.10358595      -0.24094577
H        0.94397482       0.08308038       1.35012069
H        2.20009947       0.63078774      -0.14004448
H       -2.24995555      -0.91621684      -0.02143611
H       -0.32747796      -0.44852230       1.55069022
H       -1.76444963       1.64321353      -0.94799831
H       -0.84883874       1.71979172       0.60155309
12
Frame=16 idx=003459 GeodesicLength=1.7378173248168605 rxn_smarts="[N:1]([C:2](=[O:3])[N:4]1[C:5]([H:9])([H:10])[C:6]1([H:11])[H:12])([H:7])[H:8]>>[H:7][H:10].[N:1](=[C:2]=[O:3])[H:8].[N:4]1=[C:5]([H:9])[C:6]1([H:11])[H:12]"
N        1.92552376      -0.25264228       0.20353033
C        1.44417113      -1.06295584      -0.67757155
O        1.65808837      -2.19367569      -0.97132257
N       -0.41362794      -0.05016573      -0.77278041
C       -1.38674864      -0.29940610       0.12862932
C       -1.15201687       1.10953859      -0.21742268
H        0.99048043       0.11820366       1.33343110
H        2.16942710       0.64851410      -0.19763648
H       -2.26573258      -0.89734598      -0.08713303
H       -0.32714454      -0.49180139       1.52288560
H       -1.76270012       1.66993358      -0.91487473
H       -0.87972011       1.70180308       0.65026510
