17
Frame=0 idx=007091 GeodesicLength=0.0 rxn_smarts="[C:1]([C@@:2]([O:3][H:12])([C:4]([C:5]([C:6](=[O:7])[H:17])([H:15])[H:16])([H:13])[H:14])[H:11])([H:8])([H:9])[H:10]>>[C:1]([C@@:2]([O:3][H:12])(/[C:4](=[C:5](\[C:6](=[O:7])[H:17])[H:15])[H:14])[H:11])([H:8])([H:9])[H:10].[H:13][H:16]"
C       -2.17011044      -0.63724148      -0.08608467
C       -0.82214083      -0.04405455      -0.44398406
O       -0.93226964       1.34090857      -0.45545071
C        0.27707689      -0.49959140       0.54356370
C        1.72220489      -0.31223841       0.23168657
C        2.21378548       0.75395130      -0.52202709
O        1.58051603       1.70457591      -1.01984757
H       -2.14345815      -1.72856069      -0.09060729
H       -2.49350039      -0.29245720       0.90037396
H       -2.91167370      -0.30403021      -0.81065402
H       -0.48228463      -0.43607425      -1.41329796
H       -0.04374697       1.68208692      -0.74408340
H       -0.25217307       0.20558874       1.54644920
H        0.10723131      -1.46113478       1.02595824
H        2.40420917      -1.04282751       0.64006803
H        0.64043466       0.35067904       1.38140024
H        3.30589945       0.72041998      -0.68346313
17
Frame=1 idx=007091 GeodesicLength=0.142565387928184 rxn_smarts="[C:1]([C@@:2]([O:3][H:12])([C:4]([C:5]([C:6](=[O:7])[H:17])([H:15])[H:16])([H:13])[H:14])[H:11])([H:8])([H:9])[H:10]>>[C:1]([C@@:2]([O:3][H:12])(/[C:4](=[C:5](\[C:6](=[O:7])[H:17])[H:15])[H:14])[H:11])([H:8])([H:9])[H:10].[H:13][H:16]"
C       -2.17411946      -0.63441753      -0.07971234
C       -0.82348349      -0.05600181      -0.45716761
O       -0.94085472       1.32611614      -0.52306786
C        0.27384052      -0.49734386       0.53461919
C        1.71594436      -0.30699286       0.23147573
C        2.21772332       0.76572276      -0.51498430
O        1.59664876       1.73290744      -0.98875929
H       -2.15240223      -1.72542170      -0.04702443
H       -2.49461796      -0.25580412       0.89518325
H       -2.91743401      -0.32777463      -0.81418776
H       -0.49514156      -0.47196423      -1.42030948
H       -0.04251577       1.68890621      -0.73192416
H       -0.24511868       0.21290177       1.55931722
H        0.10940919      -1.46598068       1.00606728
H        2.39143981      -1.07243742       0.58395045
H        0.66701453       0.34696137       1.41884277
H        3.31366739       0.74062313      -0.65231867
17
Frame=2 idx=007091 GeodesicLength=0.2850011386149209 rxn_smarts="[C:1]([C@@:2]([O:3][H:12])([C:4]([C:5]([C:6](=[O:7])[H:17])([H:15])[H:16])([H:13])[H:14])[H:11])([H:8])([H:9])[H:10]>>[C:1]([C@@:2]([O:3][H:12])(/[C:4](=[C:5](\[C:6](=[O:7])[H:17])[H:15])[H:14])[H:11])([H:8])([H:9])[H:10].[H:13][H:16]"
C       -2.17828422      -0.62925938      -0.07294698
C       -0.82422882      -0.07016628      -0.47208755
O       -0.94533821       1.30690258      -0.59783116
C        0.27090615      -0.49669726       0.52443556
C        1.71003955      -0.30190838       0.23078374
C        2.22074317       0.77938332      -0.50644889
O        1.61049059       1.76303747      -0.95250611
H       -2.16362349      -1.71847789       0.00008499
H       -2.49419729      -0.21365583       0.88824048
H       -2.92331667      -0.35002500      -0.81659243
H       -0.50849486      -0.51386771      -1.42693218
H       -0.04462427       1.69412951      -0.71868764
H       -0.23618701       0.21938069       1.57131915
H        0.11203593      -1.47228333       0.98482058
H        2.37822856      -1.09822407       0.52535339
H        0.69587238       0.33826241       1.45829959
H        3.31997849       0.76346917      -0.61930455
17
Frame=3 idx=007091 GeodesicLength=0.4272549155045501 rxn_smarts="[C:1]([C@@:2]([O:3][H:12])([C:4]([C:5]([C:6](=[O:7])[H:17])([H:15])[H:16])([H:13])[H:14])[H:11])([H:8])([H:9])[H:10]>>[C:1]([C@@:2]([O:3][H:12])(/[C:4](=[C:5](\[C:6](=[O:7])[H:17])[H:15])[H:14])[H:11])([H:8])([H:9])[H:10].[H:13][H:16]"
C       -2.18253502      -0.62107846      -0.06587605
C       -0.82419376      -0.08695007      -0.48881887
O       -0.94441009       1.28234955      -0.67971357
C        0.26839302      -0.49809938       0.51298710
C        1.70454435      -0.29679163       0.22985083
C        2.22253230       0.79605548      -0.49497451
O        1.62107901       1.79547273      -0.90959519
H       -2.17745106      -1.70664927       0.05069902
H       -2.49164672      -0.16526221       0.87911241
H       -2.92929916      -0.36961854      -0.81769323
H       -0.52249199      -0.56247817      -1.43276839
H       -0.05132130       1.69675573      -0.70675692
H       -0.22510140       0.22423434       1.58270999
H        0.11532325      -1.48067661       0.96181845
H        2.36542347      -1.11918253       0.46514305
H        0.72696080       0.32337240       1.50021404
H        3.32419432       0.78854664      -0.58633819
17
Frame=4 idx=007091 GeodesicLength=0.5694584759546806 rxn_smarts="[C:1]([C@@:2]([O:3][H:12])([C:4]([C:5]([C:6](=[O:7])[H:17])([H:15])[H:16])([H:13])[H:14])[H:11])([H:8])([H:9])[H:10]>>[C:1]([C@@:2]([O:3][H:12])(/[C:4](=[C:5](\[C:6](=[O:7])[H:17])[H:15])[H:14])[H:11])([H:8])([H:9])[H:10].[H:13][H:16]"
C       -2.18681570      -0.60913403      -0.05839550
C       -0.82339949      -0.10675711      -0.50740333
O       -0.93695742       1.25149775      -0.76846798
C        0.26640227      -0.50200677       0.50012301
C        1.69947926      -0.29161305       0.22862756
C        2.22267237       0.81628902      -0.47991833
O        1.62731265       1.83016043      -0.85930027
H       -2.19426825      -1.68873049       0.10498761
H       -2.48611630      -0.10991912       0.86757622
H       -2.93555374      -0.38532481      -0.81704741
H       -0.53776635      -0.61836901      -1.43736653
H       -0.06338959       1.69542997      -0.69912106
H       -0.21125688       0.22677838       1.59366849
H        0.11948363      -1.49171560       0.93671123
H        2.35360279      -1.13503646       0.40317235
H        0.76044276       0.30120273       1.54458077
H        3.32612801       0.81724817      -0.55242684
17
Frame=5 idx=007091 GeodesicLength=0.7112632491310467 rxn_smarts="[C:1]([C@@:2]([O:3][H:12])([C:4]([C:5]([C:6](=[O:7])[H:17])([H:15])[H:16])([H:13])[H:14])[H:11])([H:8])([H:9])[H:10]>>[C:1]([C@@:2]([O:3][H:12])(/[C:4](=[C:5](\[C:6](=[O:7])[H:17])[H:15])[H:14])[H:11])([H:8])([H:9])[H:10].[H:13][H:16]"
C       -2.19073689      -0.59296148      -0.05067464
C       -0.82181702      -0.12944482      -0.52739584
O       -0.92273009       1.21400339      -0.86116180
C        0.26488901      -0.50865209       0.48597497
C        1.69454949      -0.28626929       0.22754862
C        2.22043378       0.84017149      -0.46045126
O        1.62788341       1.86611173      -0.80181138
H       -2.21320638      -1.66378057       0.16201330
H       -2.47688018      -0.04809293       0.85340098
H       -2.94179460      -0.39597440      -0.81445146
H       -0.55464007      -0.68026855      -1.44028467
H       -0.08088536       1.68954796      -0.70077648
H       -0.19425153       0.22565112       1.60515904
H        0.12459201      -1.50575389       0.90909306
H        2.34347876      -1.14477781       0.34060304
H        0.79611485       0.27122871       1.59139538
H        3.32500080       0.84926142      -0.51818090
17
Frame=6 idx=007091 GeodesicLength=0.8531258865671211 rxn_smarts="[C:1]([C@@:2]([O:3][H:12])([C:4]([C:5]([C:6](=[O:7])[H:17])([H:15])[H:16])([H:13])[H:14])[H:11])([H:8])([H:9])[H:10]>>[C:1]([C@@:2]([O:3][H:12])(/[C:4](=[C:5](\[C:6](=[O:7])[H:17])[H:15])[H:14])[H:11])([H:8])([H:9])[H:10].[H:13][H:16]"
C       -2.19399411      -0.57229262      -0.04283402
C       -0.81969274      -0.15508021      -0.54871706
O       -0.90162028       1.16948703      -0.95708690
C        0.26383264      -0.51815877       0.47053670
C        1.68973612      -0.28067779       0.22677855
C        2.21533208       0.86745505      -0.43687918
O        1.62159968       1.90210764      -0.73887410
H       -2.23417644      -1.63117800       0.22107349
H       -2.46292336       0.01978303       0.83643062
H       -2.94809661      -0.40062885      -0.80972878
H       -0.57389344      -0.74782160      -1.44110439
H       -0.10304842       1.67814041      -0.71179212
H       -0.17351244       0.22077125       1.61727490
H        0.13071505      -1.52277984       0.87927003
H        2.33491893      -1.14867301       0.27718176
H        0.83419797       0.23324388       1.64021049
H        3.32062537       0.88630241      -0.48173999
17
Frame=7 idx=007091 GeodesicLength=0.9951049811125291 rxn_smarts="[C:1]([C@@:2]([O:3][H:12])([C:4]([C:5]([C:6](=[O:7])[H:17])([H:15])[H:16])([H:13])[H:14])[H:11])([H:8])([H:9])[H:10]>>[C:1]([C@@:2]([O:3][H:12])(/[C:4](=[C:5](\[C:6](=[O:7])[H:17])[H:15])[H:14])[H:11])([H:8])([H:9])[H:10].[H:13][H:16]"
C       -2.19622384      -0.54728700      -0.03520779
C       -0.81725834      -0.18315233      -0.57080319
O       -0.87457484       1.11851807      -1.05324276
C        0.26310145      -0.53043029       0.45409839
C        1.68479638      -0.27480413       0.22689736
C        2.20682517       0.89739857      -0.40950993
O        1.60762856       1.93660898      -0.67302878
H       -2.25601875      -1.59101662       0.28058355
H       -2.44381834       0.09207378       0.81671305
H       -2.95425641      -0.39859830      -0.80305078
H       -0.59582806      -0.81886245      -1.43961978
H       -0.12855132       1.66140934      -0.73400756
H       -0.14887635       0.21103422       1.63098961
H        0.13778959      -1.54270238       0.84745151
H        2.32808393      -1.14636655       0.21423103
H        0.87469561       0.18816753       1.69046668
H        3.31248553       0.92800957      -0.44296062
17
Frame=8 idx=007091 GeodesicLength=1.137408857053768 rxn_smarts="[C:1]([C@@:2]([O:3][H:12])([C:4]([C:5]([C:6](=[O:7])[H:17])([H:15])[H:16])([H:13])[H:14])[H:11])([H:8])([H:9])[H:10]>>[C:1]([C@@:2]([O:3][H:12])(/[C:4](=[C:5](\[C:6](=[O:7])[H:17])[H:15])[H:14])[H:11])([H:8])([H:9])[H:10].[H:13][H:16]"
C       -2.19699539      -0.51826316      -0.02817263
C       -0.81475599      -0.21312939      -0.59320623
O       -0.84262950       1.06187257      -1.14752859
C        0.26253391      -0.54523793       0.43696438
C        1.67946648      -0.26861877       0.22843538
C        2.19444089       0.92916379      -0.37901283
O        1.58556730       1.96850054      -0.60676732
H       -2.27768543      -1.54368200       0.33917025
H       -2.41918921       0.16722766       0.79431994
H       -2.95990396      -0.38971283      -0.79489168
H       -0.62068977      -0.89146374      -1.43582984
H       -0.15591782       1.63966319      -0.76701454
H       -0.12051510       0.19537195       1.64714649
H        0.14572288      -1.56522178       0.81401691
H        2.32270740      -1.13790059       0.15298043
H        0.91774210       0.13760436       1.74152853
H        3.30010123       0.97382611      -0.40213863
17
Frame=9 idx=007091 GeodesicLength=1.2798041675067153 rxn_smarts="[C:1]([C@@:2]([O:3][H:12])([C:4]([C:5]([C:6](=[O:7])[H:17])([H:15])[H:16])([H:13])[H:14])[H:11])([H:8])([H:9])[H:10]>>[C:1]([C@@:2]([O:3][H:12])(/[C:4](=[C:5](\[C:6](=[O:7])[H:17])[H:15])[H:14])[H:11])([H:8])([H:9])[H:10].[H:13][H:16]"
C       -2.19592790      -0.48568662      -0.02193769
C       -0.81238633      -0.24431156      -0.61541077
O       -0.80725506       1.00049504      -1.23793238
C        0.26193079      -0.56219687       0.41933072
C        1.67332388      -0.26220066       0.23160459
C        2.17771442       0.96173343      -0.34629695
O        1.55541619       1.99683215      -0.54251745
H       -2.29782877      -1.48974226       0.39586571
H       -2.38912104       0.24384275       0.76930688
H       -2.96454287      -0.37416021      -0.78558632
H       -0.64837895      -0.96355816      -1.42976400
H       -0.18349189       1.61343262      -0.81051375
H       -0.08887455       0.17248365       1.66648507
H        0.15441572      -1.58984926       0.77907148
H        2.31842760      -1.12338036       0.09451271
H        0.96368615       0.08334135       1.79273915
H        3.28289260       1.02292496      -0.35895700
17
Frame=10 idx=007091 GeodesicLength=1.4225813835064691 rxn_smarts="[C:1]([C@@:2]([O:3][H:12])([C:4]([C:5]([C:6](=[O:7])[H:17])([H:15])[H:16])([H:13])[H:14])[H:11])([H:8])([H:9])[H:10]>>[C:1]([C@@:2]([O:3][H:12])(/[C:4](=[C:5](\[C:6](=[O:7])[H:17])[H:15])[H:14])[H:11])([H:8])([H:9])[H:10].[H:13][H:16]"
C       -2.19278505      -0.45021006      -0.01697780
C       -0.81035319      -0.27618277      -0.63718712
O       -0.76932396       0.93564346      -1.32345380
C        0.26108860      -0.58089000       0.40163901
C        1.66615567      -0.25547150       0.23705792
C        2.15652200       0.99453186      -0.31194851
O        1.51776201       2.02157263      -0.48159792
H       -2.31608860      -1.43059618       0.44875174
H       -2.35360529       0.31991477       0.74232274
H       -2.96783889      -0.35194869      -0.77592143
H       -0.67874319      -1.03368941      -1.42186812
H       -0.21021184       1.58313366      -0.86186179
H       -0.05465080       0.14199052       1.68931956
H        0.16361952      -1.61603141       0.74342960
H        2.31472565      -1.10339993       0.04064595
H        1.01298827       0.02775913       1.84396172
H        3.26073909       1.07387393      -0.31631174
17
Frame=11 idx=007091 GeodesicLength=1.565881243267366 rxn_smarts="[C:1]([C@@:2]([O:3][H:12])([C:4]([C:5]([C:6](=[O:7])[H:17])([H:15])[H:16])([H:13])[H:14])[H:11])([H:8])([H:9])[H:10]>>[C:1]([C@@:2]([O:3][H:12])(/[C:4](=[C:5](\[C:6](=[O:7])[H:17])[H:15])[H:14])[H:11])([H:8])([H:9])[H:10].[H:13][H:16]"
C       -2.18745771      -0.41207145      -0.01327785
C       -0.80888112      -0.30842244      -0.65837797
O       -0.72982883       0.86780940      -1.40388796
C        0.25988607      -0.60113471       0.38389009
C        1.65765372      -0.24856776       0.24473949
C        2.13061113       1.02713772      -0.27648162
O        1.47292298       2.04277322      -0.42476556
H       -2.33193591      -1.36671876       0.49786635
H       -2.31274612       0.39506128       0.71351407
H       -2.96955631      -0.32334445      -0.76614804
H       -0.71189436      -1.10112343      -1.41229618
H       -0.23499955       1.54902918      -0.92053626
H       -0.01817014       0.10282444       1.71572151
H        0.17331376      -1.64358382       0.70697184
H        2.31123440      -1.07845851      -0.00833353
H        1.06652198      -0.02770459       1.89496193
H        3.23332601       1.12649469      -0.27356031
17
Frame=12 idx=007091 GeodesicLength=1.7099021062799196 rxn_smarts="[C:1]([C@@:2]([O:3][H:12])([C:4]([C:5]([C:6](=[O:7])[H:17])([H:15])[H:16])([H:13])[H:14])[H:11])([H:8])([H:9])[H:10]>>[C:1]([C@@:2]([O:3][H:12])(/[C:4](=[C:5](\[C:6](=[O:7])[H:17])[H:15])[H:14])[H:11])([H:8])([H:9])[H:10].[H:13][H:16]"
C       -2.17974784      -0.37147974      -0.01095108
C       -0.80808818      -0.34080393      -0.67892195
O       -0.68921239       0.79747367      -1.47918271
C        0.25820393      -0.62283245       0.36614531
C        1.64751909      -0.24153563       0.25486437
C        2.09969328       1.05927062      -0.24012570
O        1.42116270       2.06060318      -0.37214634
H       -2.34517728      -1.29872018       0.54275571
H       -2.26644079       0.46865569       0.68327508
H       -2.96928450      -0.28831635      -0.75665429
H       -0.74782449      -1.16531082      -1.40134901
H       -0.25725850       1.51124960      -0.98502255
H        0.02015539       0.05416824       1.74545182
H        0.18344398      -1.67236239       0.66965321
H        2.30759793      -1.04909185      -0.05161191
H        1.12493028      -0.08117634       1.94569711
H        3.20032737       1.18020866      -0.23187709
17
Frame=13 idx=007091 GeodesicLength=1.8550727582136672 rxn_smarts="[C:1]([C@@:2]([O:3][H:12])([C:4]([C:5]([C:6](=[O:7])[H:17])([H:15])[H:16])([H:13])[H:14])[H:11])([H:8])([H:9])[H:10]>>[C:1]([C@@:2]([O:3][H:12])(/[C:4](=[C:5](\[C:6](=[O:7])[H:17])[H:15])[H:14])[H:11])([H:8])([H:9])[H:10].[H:13][H:16]"
C       -2.16944373      -0.32838962      -0.00992798
C       -0.80814598      -0.37324946      -0.69884570
O       -0.64785702       0.72471424      -1.54965489
C        0.25598328      -0.64610767       0.34825777
C        1.63544104      -0.23450073       0.26747894
C        2.06335755       1.09078663      -0.20292567
O        1.36242723       2.07519192      -0.32366014
H       -2.35552987      -1.22665271       0.58377435
H       -2.21438005       0.54078485       0.65168453
H       -2.96666541      -0.24681483      -0.74758038
H       -0.78683551      -1.22608272      -1.38919952
H       -0.27646643       1.46972129      -1.05461315
H        0.06035110      -0.00500280       1.77798971
H        0.19408753      -1.70251806       0.63099641
H        2.30355377      -1.01574700      -0.08893586
H        1.18887663      -0.13116390       1.99613129
H        3.16124586       1.23503055      -0.19096970
17
Frame=14 idx=007091 GeodesicLength=2.0019418086348617 rxn_smarts="[C:1]([C@@:2]([O:3][H:12])([C:4]([C:5]([C:6](=[O:7])[H:17])([H:15])[H:16])([H:13])[H:14])[H:11])([H:8])([H:9])[H:10]>>[C:1]([C@@:2]([O:3][H:12])(/[C:4](=[C:5](\[C:6](=[O:7])[H:17])[H:15])[H:14])[H:11])([H:8])([H:9])[H:10].[H:13][H:16]"
C       -2.15626379      -0.28282528      -0.01020321
C       -0.80918828      -0.40562587      -0.71817436
O       -0.60595308       0.64979567      -1.61535790
C        0.25317218      -0.67114546       0.33009382
C        1.62107189      -0.22759322       0.28284223
C        2.02117391       1.12144918      -0.16483731
O        1.29669666       2.08656257      -0.27906296
H       -2.36273096      -1.15074137       0.62094017
H       -2.15621968       0.61116790       0.61902566
H       -2.96120896      -0.19865694      -0.73911157
H       -0.82910850      -1.28305915      -1.37616992
H       -0.29232486       1.42443761      -1.12809799
H        0.10253476      -0.07565912       1.81258620
H        0.20532921      -1.73424651       0.59039172
H        2.29889276      -0.97893417      -0.11953030
H        1.25852814      -0.17548093       2.04632279
H        3.11559860       1.29055510      -0.15165708
17
Frame=15 idx=007091 GeodesicLength=2.1513302847971705 rxn_smarts="[C:1]([C@@:2]([O:3][H:12])([C:4]([C:5]([C:6](=[O:7])[H:17])([H:15])[H:16])([H:13])[H:14])[H:11])([H:8])([H:9])[H:10]>>[C:1]([C@@:2]([O:3][H:12])(/[C:4](=[C:5](\[C:6](=[O:7])[H:17])[H:15])[H:14])[H:11])([H:8])([H:9])[H:10].[H:13][H:16]"
C       -2.13985205      -0.23478749      -0.01166444
C       -0.81138031      -0.43779162      -0.73696177
O       -0.56374163       0.57298053      -1.67634229
C        0.24975263      -0.69820811       0.31140747
C        1.60402558      -0.22103968       0.30117824
C        1.97270238       1.15092456      -0.12581115
O        1.22392407       2.09458426      -0.23813158
H       -2.36626281      -1.07103338       0.65463071
H       -2.09151814       0.67966012       0.58546364
H       -2.95237976      -0.14379614      -0.73125968
H       -0.87492435      -1.33584613      -1.36260479
H       -0.30460347       1.37539850      -1.20443777
H        0.14721572      -0.15878213       1.84820497
H        0.21732936      -1.76780944       0.54693333
H        2.29337937      -0.93920328      -0.14282396
H        1.33347421      -0.21166078       2.09634840
H        3.06285920       1.34641021      -0.11412933
17
Frame=16 idx=007091 GeodesicLength=2.304347068105309 rxn_smarts="[C:1]([C@@:2]([O:3][H:12])([C:4]([C:5]([C:6](=[O:7])[H:17])([H:15])[H:16])([H:13])[H:14])[H:11])([H:8])([H:9])[H:10]>>[C:1]([C@@:2]([O:3][H:12])(/[C:4](=[C:5](\[C:6](=[O:7])[H:17])[H:15])[H:14])[H:11])([H:8])([H:9])[H:10].[H:13][H:16]"
C       -2.11981973      -0.18442568      -0.01414143
C       -0.81489188      -0.46949946      -0.75525465
O       -0.52155122       0.49479027      -1.73250156
C        0.24572713      -0.72750087       0.29192398
C        1.58390049      -0.21516797       0.32269156
C        1.91765715       1.17868835      -0.08591854
O        1.14431331       2.09900094      -0.20067619
H       -2.36535861      -0.98771371       0.68530889
H       -2.01995082       0.74591470       0.55118358
H       -2.93962146      -0.08246756      -0.72391683
H       -0.92444861      -1.38385961      -1.34895056
H       -0.31323804       1.32280715      -1.28235830
H        0.19528974      -0.25506179       1.88350718
H        0.23027185      -1.80334495       0.49957142
H        2.28673483      -0.89726462      -0.15821321
H        1.41232544      -0.23679009       2.14634937
H        3.00266044       1.40189490      -0.07860472
