12
Frame=0 idx=003827 GeodesicLength=0.0 rxn_smarts="[C:1]([C@@:2]1([H:10])[N:3]([H:11])[C@:4]1([C:5]#[N:6])[H:12])([H:7])([H:8])[H:9]>>[C:1]([C:2]([N:3]([C+:4]=[C:5]=[N-:6])[H:11])([H:10])[H:12])([H:7])([H:8])[H:9]"
C       -1.09571639       0.75799045       0.18568476
C       -0.45440130      -0.57122439       0.48803060
N        0.08438279      -1.32595806      -0.66471099
C        1.29410166      -1.01783588       0.04890770
C        1.94118025       0.19654483      -0.41699633
N        2.58048406       1.08326213      -0.78365120
H       -0.42805733       1.39972000      -0.39214867
H       -2.00960591       0.60075189      -0.39065314
H       -1.35980211       1.27845224       1.10615522
H       -1.02037219      -1.24202981       1.13298034
H       -0.02841916      -0.73180441      -1.48441891
H        0.49622562      -0.42786899       1.17082059
12
Frame=1 idx=003827 GeodesicLength=0.0661401535629493 rxn_smarts="[C:1]([C@@:2]1([H:10])[N:3]([H:11])[C@:4]1([C:5]#[N:6])[H:12])([H:7])([H:8])[H:9]>>[C:1]([C:2]([N:3]([C+:4]=[C:5]=[N-:6])[H:11])([H:10])[H:12])([H:7])([H:8])[H:9]"
C       -1.10499536       0.75818197       0.18901613
C       -0.45685667      -0.56819421       0.49047007
N        0.09083310      -1.31630200      -0.66009288
C        1.29407030      -1.00320056       0.05301172
C        1.95499940       0.19711388      -0.42539501
N        2.60757129       1.06695842      -0.80834347
H       -0.43808886       1.40808782      -0.38034348
H       -2.01376052       0.59942290      -0.39503037
H       -1.38046616       1.27208481       1.10991250
H       -1.03035296      -1.24408192       1.12348379
H       -0.02492296      -0.73266145      -1.48649828
H        0.50196940      -0.43740968       1.18980928
12
Frame=2 idx=003827 GeodesicLength=0.13219666456249307 rxn_smarts="[C:1]([C@@:2]1([H:10])[N:3]([H:11])[C@:4]1([C:5]#[N:6])[H:12])([H:7])([H:8])[H:9]>>[C:1]([C:2]([N:3]([C+:4]=[C:5]=[N-:6])[H:11])([H:10])[H:12])([H:7])([H:8])[H:9]"
C       -1.11448481       0.75840755       0.19236758
C       -0.45940165      -0.56502821       0.49294722
N        0.09745302      -1.30630237      -0.65534938
C        1.29405488      -0.98771894       0.05728949
C        1.96900511       0.19780738      -0.43406243
N        2.63499295       1.04981780      -0.83330195
H       -0.44849927       1.41657888      -0.36836622
H       -2.01798763       0.59811842      -0.39944549
H       -1.40138897       1.26554949       1.11359850
H       -1.04017610      -1.24609733       1.11379122
H       -0.02131257      -0.73351988      -1.48848559
H        0.50774503      -0.44761278       1.20901704
12
Frame=3 idx=003827 GeodesicLength=0.19807346260497857 rxn_smarts="[C:1]([C@@:2]1([H:10])[N:3]([H:11])[C@:4]1([C:5]#[N:6])[H:12])([H:7])([H:8])[H:9]>>[C:1]([C:2]([N:3]([C+:4]=[C:5]=[N-:6])[H:11])([H:10])[H:12])([H:7])([H:8])[H:9]"
C       -1.12411053       0.75868894       0.19570675
C       -0.46202644      -0.56172752       0.49545713
N        0.10421761      -1.29600580      -0.65046280
C        1.29403484      -0.97142183       0.06172985
C        1.98323995       0.19848825      -0.44305378
N        2.66237699       1.03210879      -0.85830816
H       -0.45921958       1.42515227      -0.35631914
H       -2.02224916       0.59688402      -0.40387553
H       -1.42239852       1.25892935       1.11717233
H       -1.04985028      -1.24803600       1.10391778
H       -0.01760076      -0.73446563      -1.49037623
H        0.51358589      -0.45859482       1.22841180
12
Frame=4 idx=003827 GeodesicLength=0.26379011559829363 rxn_smarts="[C:1]([C@@:2]1([H:10])[N:3]([H:11])[C@:4]1([C:5]#[N:6])[H:12])([H:7])([H:8])[H:9]>>[C:1]([C:2]([N:3]([C+:4]=[C:5]=[N-:6])[H:11])([H:10])[H:12])([H:7])([H:8])[H:9]"
C       -1.13389762       0.75902817       0.19903851
C       -0.46473547      -0.55827921       0.49800543
N        0.11114280      -1.28538331      -0.64542073
C        1.29400414      -0.95423226       0.06634771
C        1.99771664       0.19915431      -0.45237621
N        2.68978361       1.01376499      -0.88339525
H       -0.47028127       1.43382221      -0.34418476
H       -2.02655943       0.59571014      -0.40832731
H       -1.44353713       1.25221342       1.12063909
H       -1.05936441      -1.24989918       1.09386185
H       -0.01377512      -0.73549284      -1.49215611
H        0.51950325      -0.47040644       1.24796779
12
Frame=5 idx=003827 GeodesicLength=0.32935830804415334 rxn_smarts="[C:1]([C@@:2]1([H:10])[N:3]([H:11])[C@:4]1([C:5]#[N:6])[H:12])([H:7])([H:8])[H:9]>>[C:1]([C:2]([N:3]([C+:4]=[C:5]=[N-:6])[H:11])([H:10])[H:12])([H:7])([H:8])[H:9]"
C       -1.14386111       0.75942852       0.20236023
C       -0.46752943      -0.55466822       0.50059706
N        0.11823001      -1.27441788      -0.64021025
C        1.29394760      -0.93608143       0.07114074
C        2.01245221       0.19976945      -0.46206984
N        2.71723414       0.99477989      -0.90850694
H       -0.48171191       1.44258906      -0.33197652
H       -2.03093368       0.59458686      -0.41279439
H       -1.46481165       1.24540847       1.12399504
H       -1.06870065      -1.25167293       1.08363565
H       -0.00984138      -0.73661822      -1.49381386
H        0.52552584      -0.48310358       1.26764309
12
Frame=6 idx=003827 GeodesicLength=0.39479170679708714 rxn_smarts="[C:1]([C@@:2]1([H:10])[N:3]([H:11])[C@:4]1([C:5]#[N:6])[H:12])([H:7])([H:8])[H:9]>>[C:1]([C:2]([N:3]([C+:4]=[C:5]=[N-:6])[H:11])([H:10])[H:12])([H:7])([H:8])[H:9]"
C       -1.15402526       0.75989295       0.20567439
C       -0.47041175      -0.55087845       0.50323912
N        0.12549282      -1.26307768      -0.63481595
C        1.29385208      -0.91688224       0.07612259
C        2.02747136       0.20031121      -0.47214038
N        2.74476320       0.97509829      -0.93365932
H       -0.49354504       1.45146481      -0.31968531
H       -2.03538658       0.59350427      -0.41728175
H       -1.48625685       1.23850705       1.12724202
H       -1.07784581      -1.25335349       1.07324167
H       -0.00578589      -0.73783758      -1.49533181
H        0.53167772      -0.49674912       1.28739471
12
Frame=7 idx=003827 GeodesicLength=0.460072847243381 rxn_smarts="[C:1]([C@@:2]1([H:10])[N:3]([H:11])[C@:4]1([C:5]#[N:6])[H:12])([H:7])([H:8])[H:9]>>[C:1]([C:2]([N:3]([C+:4]=[C:5]=[N-:6])[H:11])([H:10])[H:12])([H:7])([H:8])[H:9]"
C       -1.16438090       0.76043500       0.20897252
C       -0.47338058      -0.54689566       0.50593829
N        0.13294008      -1.25135054      -0.62921705
C        1.29369925      -0.89658097       0.08131162
C        2.04281974       0.20068178      -0.48257736
N        2.77223022       0.95478845      -0.95884485
H       -0.50576771       1.46045492      -0.30731920
H       -2.03990170       0.59247729      -0.42180431
H       -1.50786291       1.23152575       1.13036703
H       -1.08679965      -1.25492518       1.06268195
H       -0.00158535      -0.73917091      -1.49668589
H        0.53798950      -0.51143994       1.30717727
12
Frame=8 idx=003827 GeodesicLength=0.5252452371613033 rxn_smarts="[C:1]([C@@:2]1([H:10])[N:3]([H:11])[C@:4]1([C:5]#[N:6])[H:12])([H:7])([H:8])[H:9]>>[C:1]([C:2]([N:3]([C+:4]=[C:5]=[N-:6])[H:11])([H:10])[H:12])([H:7])([H:8])[H:9]"
C       -1.17499174       0.76104762       0.21226378
C       -0.47644141      -0.54269239       0.50870350
N        0.14057951      -1.23918152      -0.62340420
C        1.29346704      -0.87503919       0.08669775
C        2.05851165       0.20087899      -0.49342279
N        2.79984503       0.93370226      -0.98401794
H       -0.51848007       1.46956829      -0.29488317
H       -2.04454219       0.59145930      -0.42633759
H       -1.52969204       1.22444783       1.13338219
H       -1.09551839      -1.25638122       1.05197800
H        0.00275061      -0.74060072      -1.49786410
H        0.54451202      -0.52720926       1.32690457
12
Frame=9 idx=003827 GeodesicLength=0.5903392315457755 rxn_smarts="[C:1]([C@@:2]1([H:10])[N:3]([H:11])[C@:4]1([C:5]#[N:6])[H:12])([H:7])([H:8])[H:9]>>[C:1]([C:2]([N:3]([C+:4]=[C:5]=[N-:6])[H:11])([H:10])[H:12])([H:7])([H:8])[H:9]"
C       -1.18591398       0.76172837       0.21555635
C       -0.47959707      -0.53823943       0.51154465
N        0.14843071      -1.22650576      -0.61736587
C        1.29313251      -0.85211296       0.09228504
C        2.07457743       0.20087771      -0.50467089
N        2.82772992       0.91168525      -1.00918941
H       -0.53176728       1.47882427      -0.28236803
H       -2.04935376       0.59041490      -0.43087482
H       -1.55181374       1.21724989       1.13629733
H       -1.10396494      -1.25772070       1.04114110
H        0.00723857      -0.74209401      -1.49884473
H        0.55130162      -0.54410753       1.34648929
12
Frame=10 idx=003827 GeodesicLength=0.6553763065895251 rxn_smarts="[C:1]([C@@:2]1([H:10])[N:3]([H:11])[C@:4]1([C:5]#[N:6])[H:12])([H:7])([H:8])[H:9]>>[C:1]([C:2]([N:3]([C+:4]=[C:5]=[N-:6])[H:11])([H:10])[H:12])([H:7])([H:8])[H:9]"
C       -1.19720330       0.76247520       0.21885589
C       -0.48284872      -0.53350364       0.51447175
N        0.15650564      -1.21325837      -0.61109137
C        1.29266476      -0.82765541       0.09806819
C        2.09106037       0.20061790      -0.51632232
N        2.85598311       0.88860714      -1.03432247
H       -0.54571949       1.48823578      -0.26978070
H       -2.05438825       0.58930545      -0.43540043
H       -1.57428334       1.20991679       1.13912023
H       -1.11209500      -1.25893456       1.03019190
H        0.01188940      -0.74362277      -1.49960799
H        0.55843484      -0.56218351       1.36581732
12
Frame=11 idx=003827 GeodesicLength=0.72039653761126 rxn_smarts="[C:1]([C@@:2]1([H:10])[N:3]([H:11])[C@:4]1([C:5]#[N:6])[H:12])([H:7])([H:8])[H:9]>>[C:1]([C:2]([N:3]([C+:4]=[C:5]=[N-:6])[H:11])([H:10])[H:12])([H:7])([H:8])[H:9]"
C       -1.20894920       0.76327732       0.22217734
C       -0.48619783      -0.52844259       0.51749544
N        0.16482321      -1.19934060      -0.60457832
C        1.29202872      -0.80146817       0.10403148
C        2.10799889       0.20007214      -0.52836614
N        2.88481831       0.86420441      -1.05939028
H       -0.56048039       1.49782467      -0.25711791
H       -2.05972938       0.58806626      -0.43988766
H       -1.59719678       1.20240849       1.14187212
H       -1.11984202      -1.26002324       1.01915427
H        0.01671472      -0.74512213      -1.50013631
H        0.56601176      -0.58145654       1.38474596
12
Frame=12 idx=003827 GeodesicLength=0.7854105992555332 rxn_smarts="[C:1]([C@@:2]1([H:10])[N:3]([H:11])[C@:4]1([C:5]#[N:6])[H:12])([H:7])([H:8])[H:9]>>[C:1]([C:2]([N:3]([C+:4]=[C:5]=[N-:6])[H:11])([H:10])[H:12])([H:7])([H:8])[H:9]"
C       -1.22121145       0.76413182       0.22552367
C       -0.48964239      -0.52301396       0.52062620
N        0.17338351      -1.18467589      -0.59782212
C        1.29117528      -0.77339177       0.11015162
C        2.12546929       0.19910159      -0.54078463
N        2.91428186       0.83836692      -1.08429123
H       -0.57615500       1.50759756      -0.24440878
H       -2.06544147       0.58664897      -0.44430994
H       -1.62059625       1.19471508       1.14456128
H       -1.12714696      -1.26096804       1.00806544
H        0.02172351      -0.74655464      -1.50041251
H        0.57416007      -0.60195763       1.40310099
12
Frame=13 idx=003827 GeodesicLength=0.8504498173801814 rxn_smarts="[C:1]([C@@:2]1([H:10])[N:3]([H:11])[C@:4]1([C:5]#[N:6])[H:12])([H:7])([H:8])[H:9]>>[C:1]([C:2]([N:3]([C+:4]=[C:5]=[N-:6])[H:11])([H:10])[H:12])([H:7])([H:8])[H:9]"
C       -1.23410222       0.76502098       0.22891242
C       -0.49317846      -0.51716009       0.52387065
N        0.18219384      -1.16913720      -0.59083591
C        1.29004893      -0.74319519       0.11637784
C        2.14353402       0.19761142      -0.55354505
N        2.94460408       0.81078400      -1.10890903
H       -0.59293664       1.51756836      -0.23167503
H       -2.07164498       0.58496278      -0.44861098
H       -1.64457637       1.18679255       1.14721772
H       -1.13390820      -1.26175911       0.99696912
H        0.02691798      -0.74782809      -1.50042644
H        0.58304802      -0.62366042       1.42065469
12
Frame=14 idx=003827 GeodesicLength=0.9155369928290833 rxn_smarts="[C:1]([C@@:2]1([H:10])[N:3]([H:11])[C@:4]1([C:5]#[N:6])[H:12])([H:7])([H:8])[H:9]>>[C:1]([C:2]([N:3]([C+:4]=[C:5]=[N-:6])[H:11])([H:10])[H:12])([H:7])([H:8])[H:9]"
C       -1.24770888       0.76593677       0.23235065
C       -0.49680497      -0.51082982       0.52723960
N        0.19123630      -1.15262501      -0.58363109
C        1.28857791      -0.71070341       0.12265640
C        2.16232506       0.19536841      -0.56658127
N        2.97585757       0.78132970      -1.13309798
H       -0.61097525       1.52774651      -0.21896041
H       -2.07844413       0.58293958      -0.45274505
H       -1.66919488       1.17862410       1.14986199
H       -1.14004560      -1.26237960       0.98592780
H        0.03230341      -0.74887003      -1.50017117
H        0.59287347      -0.64653721       1.43715052
12
Frame=15 idx=003827 GeodesicLength=0.9804869350410852 rxn_smarts="[C:1]([C@@:2]1([H:10])[N:3]([H:11])[C@:4]1([C:5]#[N:6])[H:12])([H:7])([H:8])[H:9]>>[C:1]([C:2]([N:3]([C+:4]=[C:5]=[N-:6])[H:11])([H:10])[H:12])([H:7])([H:8])[H:9]"
C       -1.26186334       0.76693607       0.23575982
C       -0.50045751      -0.50397872       0.53073099
N        0.20049230      -1.13517149      -0.57619386
C        1.28672076      -0.67600716       0.12898258
C        2.18209023       0.19159362      -0.57961460
N        3.00668303       0.75067547      -1.15660840
H       -0.63004369       1.53811002      -0.20636438
H       -2.08566202       0.58066726      -0.45681122
H       -1.69426421       1.17031910       1.15239442
H       -1.14553502      -1.26272024       0.97498804
H        0.03799141      -0.74974143      -1.49961891
H        0.60384806      -0.67068249       1.45235551
12
Frame=16 idx=003827 GeodesicLength=1.0456237489238507 rxn_smarts="[C:1]([C@@:2]1([H:10])[N:3]([H:11])[C@:4]1([C:5]#[N:6])[H:12])([H:7])([H:8])[H:9]>>[C:1]([C:2]([N:3]([C+:4]=[C:5]=[N-:6])[H:11])([H:10])[H:12])([H:7])([H:8])[H:9]"
C       -1.27710259       0.76788107       0.23929788
C       -0.50417844      -0.49647772       0.53434470
N        0.20995921      -1.11632019      -0.56865726
C        1.28434653      -0.63840151       0.13512682
C        2.20281721       0.18664629      -0.59267905
N        3.03918981       0.71710128      -1.17936530
H       -0.65099141       1.54873749      -0.19376884
H       -2.09385020       0.57776374      -0.46054596
H       -1.72034269       1.16153391       1.15504281
H       -1.15005263      -1.26288497       0.96424718
H        0.04385645      -0.74996454      -1.49883308
H        0.61634875      -0.69561486       1.46579011
