14
Frame=0 idx=005770 GeodesicLength=0.0 rxn_smarts="[O:1]([C@@:2]1([H:8])[C@@:3]2([H:9])[C:4]([H:10])([H:11])[C:5]([H:12])([H:13])[C@@:6]12[H:14])[H:7]>>[O:1]([C@@:2]1([H:8])[C@:3]([C:4][H:10])([H:9])[C@:6]1([C:5]([H:11])([H:12])[H:13])[H:14])[H:7]"
O        1.23280444      -1.42647209      -0.23482830
C        0.87717685      -0.49749341       0.73740582
C        0.54717490       0.92942780       0.39199684
C        0.16040678       1.27226730      -1.01273188
C       -1.37943027      -0.21252249      -0.45880760
C       -0.53835524      -0.04333663       0.79136815
H        2.11312642      -1.21766831      -0.55395997
H        1.34302309      -0.65357122       1.70729086
H        0.87333719       1.73430014       1.04019975
H        0.66045003       0.59009603      -1.71948166
H       -1.15924907       0.68594762      -1.18516634
H       -2.43245076       0.01186072      -0.28646065
H       -1.26469910      -1.16541224      -0.96971121
H       -1.03331529      -0.00742327       1.75288613
14
Frame=1 idx=005770 GeodesicLength=0.05849973273535157 rxn_smarts="[O:1]([C@@:2]1([H:8])[C@@:3]2([H:9])[C:4]([H:10])([H:11])[C:5]([H:12])([H:13])[C@@:6]12[H:14])[H:7]>>[O:1]([C@@:2]1([H:8])[C@:3]([C:4][H:10])([H:9])[C@:6]1([C:5]([H:11])([H:12])[H:13])[H:14])[H:7]"
O        1.23307305      -1.43075403      -0.23035951
C        0.87569423      -0.49980807       0.73862025
C        0.54939255       0.92961375       0.38928774
C        0.16269169       1.26510946      -1.01422538
C       -1.37634907      -0.20916939      -0.46128871
C       -0.53783247      -0.04580063       0.79118226
H        2.11623663      -1.22632707      -0.54444136
H        1.34437388      -0.64988077       1.70809246
H        0.87457102       1.73324745       1.03945567
H        0.65791208       0.58358568      -1.72407169
H       -1.18300727       0.71817695      -1.18268095
H       -2.43291297      -0.01138349      -0.27843387
H       -1.25214964      -1.15451898      -0.98408332
H       -1.03169371      -0.00209085       1.75294642
14
Frame=2 idx=005770 GeodesicLength=0.11685001305439124 rxn_smarts="[O:1]([C@@:2]1([H:8])[C@@:3]2([H:9])[C:4]([H:10])([H:11])[C:5]([H:12])([H:13])[C@@:6]12[H:14])[H:7]>>[O:1]([C@@:2]1([H:8])[C@:3]([C:4][H:10])([H:9])[C@:6]1([C:5]([H:11])([H:12])[H:13])[H:14])[H:7]"
O        1.23318556      -1.43492329      -0.22603464
C        0.87421120      -0.50208023       0.73975878
C        0.55151293       0.92977132       0.38650933
C        0.16439812       1.25786710      -1.01567240
C       -1.37333628      -0.20588341      -0.46370950
C       -0.53733246      -0.04837895       0.79104179
H        2.11915701      -1.23494055      -0.53499133
H        1.34580497      -0.64613100       1.70870848
H        0.87567963       1.73220682       1.03857966
H        0.65547016       0.57745981      -1.72852523
H       -1.20597430       0.74974018      -1.17947403
H       -2.43271565      -0.03408697      -0.27137710
H       -1.24002420      -1.14376199      -0.99779173
H       -1.03003669       0.00314116       1.75297793
14
Frame=3 idx=005770 GeodesicLength=0.17518598873349386 rxn_smarts="[O:1]([C@@:2]1([H:8])[C@@:3]2([H:9])[C:4]([H:10])([H:11])[C:5]([H:12])([H:13])[C@@:6]12[H:14])[H:7]>>[O:1]([C@@:2]1([H:8])[C@:3]([C:4][H:10])([H:9])[C@:6]1([C:5]([H:11])([H:12])[H:13])[H:14])[H:7]"
O        1.23322853      -1.43903975      -0.22185634
C        0.87275062      -0.50434276       0.74084874
C        0.55351797       0.92992459       0.38366615
C        0.16555847       1.25060809      -1.01712661
C       -1.37040970      -0.20267771      -0.46605815
C       -0.53687445      -0.05106472       0.79098279
H        2.12198705      -1.24356183      -0.52563940
H        1.34733600      -0.64237433       1.70920526
H        0.87662540       1.73121108       1.03760005
H        0.65313955       0.57171893      -1.73293232
H       -1.22821558       0.78071112      -1.17569303
H       -2.43197489      -0.05618510      -0.26520652
H       -1.22828306      -1.13320186      -1.01085677
H       -1.02838590       0.00827425       1.75306614
14
Frame=4 idx=005770 GeodesicLength=0.23340337562486735 rxn_smarts="[O:1]([C@@:2]1([H:8])[C@@:3]2([H:9])[C:4]([H:10])([H:11])[C:5]([H:12])([H:13])[C@@:6]12[H:14])[H:7]>>[O:1]([C@@:2]1([H:8])[C@:3]([C:4][H:10])([H:9])[C@:6]1([C:5]([H:11])([H:12])[H:13])[H:14])[H:7]"
O        1.23319189      -1.44307916      -0.21781811
C        0.87130356      -0.50658405       0.74188013
C        0.55541705       0.93006810       0.38076404
C        0.16622772       1.24333076      -1.01855868
C       -1.36756206      -0.19957823      -0.46832874
C       -0.53644868      -0.05385322       0.79098258
H        2.12471031      -1.25216202      -0.51636299
H        1.34895256      -0.63859190       1.70956043
H        0.87742847       1.73024057       1.03652887
H        0.65089892       0.56633181      -1.73726419
H       -1.24975272       0.81110208      -1.17138706
H       -2.43073419      -0.07767089      -0.25987416
H       -1.21691071      -1.12286401      -1.02329528
H       -1.02672212       0.01331016       1.75317317
14
Frame=5 idx=005770 GeodesicLength=0.2916051744439532 rxn_smarts="[O:1]([C@@:2]1([H:8])[C@@:3]2([H:9])[C:4]([H:10])([H:11])[C:5]([H:12])([H:13])[C@@:6]12[H:14])[H:7]>>[O:1]([C@@:2]1([H:8])[C@:3]([C:4][H:10])([H:9])[C@:6]1([C:5]([H:11])([H:12])[H:13])[H:14])[H:7]"
O        1.23307041      -1.44703419      -0.21390462
C        0.86986024      -0.50879610       0.74284943
C        0.55722243       0.93019725       0.37779936
C        0.16646098       1.23603625      -1.01996248
C       -1.36477969      -0.19660333      -0.47052933
C       -0.53605066      -0.05673648       0.79102016
H        2.12732518      -1.26074367      -0.50711270
H        1.35063295      -0.63476889       1.70976580
H        0.87811135       1.72928217       1.03536111
H        0.64873218       0.56125469      -1.74150434
H       -1.27066422       0.84102531      -1.16660185
H       -2.42901132      -0.09861559      -0.25527695
H       -1.20587537      -1.11274641      -1.03516723
H       -1.02503445       0.01824900       1.75326363
14
Frame=6 idx=005770 GeodesicLength=0.3497836996208254 rxn_smarts="[O:1]([C@@:2]1([H:8])[C@@:3]2([H:9])[C:4]([H:10])([H:11])[C:5]([H:12])([H:13])[C@@:6]12[H:14])[H:7]>>[O:1]([C@@:2]1([H:8])[C@:3]([C:4][H:10])([H:9])[C@:6]1([C:5]([H:11])([H:12])[H:13])[H:14])[H:7]"
O        1.23290874      -1.45092613      -0.21011201
C        0.86843421      -0.51099243       0.74376953
C        0.55892938       0.93031968       0.37477578
C        0.16628512       1.22874870      -1.02135627
C       -1.36206935      -0.19376095      -0.47265781
C       -0.53568519      -0.05971004       0.79110693
H        2.12988114      -1.26932459      -0.49789508
H        1.35238745      -0.63092570       1.70985232
H        0.87866289       1.72834338       1.03411392
H        0.64662576       0.55647326      -1.74569651
H       -1.29098189       0.87053079      -1.16140520
H       -2.42689355      -0.11899269      -0.25136947
H       -1.19514686      -1.10287826      -1.04649612
H       -1.02333785       0.02309497       1.75336999
14
Frame=7 idx=005770 GeodesicLength=0.4079380456621051 rxn_smarts="[O:1]([C@@:2]1([H:8])[C@@:3]2([H:9])[C:4]([H:10])([H:11])[C:5]([H:12])([H:13])[C@@:6]12[H:14])[H:7]>>[O:1]([C@@:2]1([H:8])[C@:3]([C:4][H:10])([H:9])[C@:6]1([C:5]([H:11])([H:12])[H:13])[H:14])[H:7]"
O        1.23270815      -1.45474958      -0.20643144
C        0.86702054      -0.51316912       0.74463801
C        0.56054405       0.93043402       0.37169454
C        0.16574013       1.22146780      -1.02273023
C       -1.35942120      -0.19106696      -0.47471559
C       -0.53534767      -0.06276936       0.79123100
H        2.13237457      -1.27789552      -0.48869319
H        1.35420170      -0.62705642       1.70981415
H        0.87909332       1.72741739       1.03279009
H        0.64456265       0.55196007      -1.74983345
H       -1.31073639       0.89967678      -1.15582983
H       -2.42441133      -0.13882799      -0.24809728
H       -1.18470272      -1.09327267      -1.05730897
H       -1.02162580       0.02785158       1.75347218
14
Frame=8 idx=005770 GeodesicLength=0.4660815904262535 rxn_smarts="[O:1]([C@@:2]1([H:8])[C@@:3]2([H:9])[C:4]([H:10])([H:11])[C:5]([H:12])([H:13])[C@@:6]12[H:14])[H:7]>>[O:1]([C@@:2]1([H:8])[C@:3]([C:4][H:10])([H:9])[C@:6]1([C:5]([H:11])([H:12])[H:13])[H:14])[H:7]"
O        1.23248172      -1.45850536      -0.20285681
C        0.86561984      -0.51532639       0.74545808
C        0.56207077       0.93054100       0.36855730
C        0.16485947       1.21419739      -1.02408814
C       -1.35683033      -0.18853223      -0.47670827
C       -0.53503710      -0.06591114       0.79138645
H        2.13481904      -1.28645634      -0.47949152
H        1.35606950      -0.62316142       1.70965882
H        0.87940957       1.72650159       1.03139577
H        0.64252993       0.54769203      -1.75392046
H       -1.32996946       0.92852245      -1.14991453
H       -2.42159782      -0.15813566      -0.24540521
H       -1.17452618      -1.08394323      -1.06763619
H       -1.01989896       0.03251733       1.75356472
14
Frame=9 idx=005770 GeodesicLength=0.5241663128291603 rxn_smarts="[O:1]([C@@:2]1([H:8])[C@@:3]2([H:9])[C:4]([H:10])([H:11])[C:5]([H:12])([H:13])[C@@:6]12[H:14])[H:7]>>[O:1]([C@@:2]1([H:8])[C@:3]([C:4][H:10])([H:9])[C@:6]1([C:5]([H:11])([H:12])[H:13])[H:14])[H:7]"
O        1.23224274      -1.46219202      -0.19938230
C        0.86423302      -0.51746418       0.74623035
C        0.56350990       0.93064102       0.36536371
C        0.16366691       1.20694030      -1.02542919
C       -1.35429147      -0.18616876      -0.47863829
C       -0.53475196      -0.06913484       0.79156715
H        2.13722630      -1.29500217      -0.47027979
H        1.35798613      -0.61923913       1.70938819
H        0.87961402       1.72559313       1.02993339
H        0.64051205       0.54364558      -1.75796347
H       -1.34869637       0.95711051      -1.14367333
H       -2.41849592      -0.17691053      -0.24325948
H       -1.16459727      -1.07490825      -1.07749833
H       -1.01815807       0.03708935       1.75364141
14
Frame=10 idx=005770 GeodesicLength=0.5822898903776352 rxn_smarts="[O:1]([C@@:2]1([H:8])[C@@:3]2([H:9])[C:4]([H:10])([H:11])[C:5]([H:12])([H:13])[C@@:6]12[H:14])[H:7]>>[O:1]([C@@:2]1([H:8])[C@:3]([C:4][H:10])([H:9])[C@:6]1([C:5]([H:11])([H:12])[H:13])[H:14])[H:7]"
O        1.23199464      -1.46581612      -0.19599586
C        0.86285816      -0.51958285       0.74695755
C        0.56487095       0.93073104       0.36210987
C        0.16219560       1.19969355      -1.02675919
C       -1.35179851      -0.18397848      -0.48051466
C       -0.53449083      -0.07243257       0.79176563
H        2.13960332      -1.30355236      -0.46102601
H        1.35994229      -0.61528551       1.70900814
H        0.87971654       1.72468795       1.02839796
H        0.63849120       0.53980021      -1.76196972
H       -1.36697032       0.98554550      -1.13712384
H       -2.41512024      -0.19524506      -0.24159678
H       -1.15489048      -1.06614567      -1.08694357
H       -1.01640232       0.04158039       1.75369048
14
Frame=11 idx=005770 GeodesicLength=0.6404092827820114 rxn_smarts="[O:1]([C@@:2]1([H:8])[C@@:3]2([H:9])[C:4]([H:10])([H:11])[C:5]([H:12])([H:13])[C@@:6]12[H:14])[H:7]>>[O:1]([C@@:2]1([H:8])[C@:3]([C:4][H:10])([H:9])[C@:6]1([C:5]([H:11])([H:12])[H:13])[H:14])[H:7]"
O        1.23175217      -1.46938033      -0.19269256
C        0.86149811      -0.52168395       0.74764221
C        0.56615247       0.93081293       0.35879611
C        0.16046073       1.19245995      -1.02808006
C       -1.34934723      -0.18197231      -0.48234109
C       -0.53425226      -0.07580525       0.79197951
H        2.14196179      -1.31210536      -0.45172668
H        1.36193667      -0.61129964       1.70852464
H        0.87971411       1.72378804       1.02679377
H        0.63645274       0.53613635      -1.76594966
H       -1.38479955       1.01386724      -1.13027528
H       -2.41151018      -0.21312750      -0.24039233
H       -1.14538618      -1.05767727      -1.09599080
H       -1.01463339       0.04598710       1.75371222
14
Frame=12 idx=005770 GeodesicLength=0.6985306185484479 rxn_smarts="[O:1]([C@@:2]1([H:8])[C@@:3]2([H:9])[C:4]([H:10])([H:11])[C:5]([H:12])([H:13])[C@@:6]12[H:14])[H:7]>>[O:1]([C@@:2]1([H:8])[C@:3]([C:4][H:10])([H:9])[C@:6]1([C:5]([H:11])([H:12])[H:13])[H:14])[H:7]"
O        1.23152487      -1.47288542      -0.18946581
C        0.86015294      -0.52376737       0.74828604
C        0.56735643       0.93088574       0.35542126
C        0.15848276       1.18523665      -1.02939463
C       -1.34693274      -0.18015953      -0.48412238
C       -0.53403560      -0.07925185       0.79220400
H        2.14430828      -1.32065891      -0.44237125
H        1.36396377      -0.60727932       1.70794125
H        0.87960820       1.72289177       1.02512012
H        0.63438557       0.53263582      -1.76990845
H       -1.40220217       1.04213244      -1.12313798
H       -2.40768861      -0.23057741      -0.23961106
H       -1.13607067      -1.04951067      -1.10466137
H       -1.01285305       0.05030806       1.75370026
14
Frame=13 idx=005770 GeodesicLength=0.7566751548583579 rxn_smarts="[O:1]([C@@:2]1([H:8])[C@@:3]2([H:9])[C:4]([H:10])([H:11])[C:5]([H:12])([H:13])[C@@:6]12[H:14])[H:7]>>[O:1]([C@@:2]1([H:8])[C@:3]([C:4][H:10])([H:9])[C@:6]1([C:5]([H:11])([H:12])[H:13])[H:14])[H:7]"
O        1.23132848      -1.47633900      -0.18630954
C        0.85882521      -0.52583672       0.74889392
C        0.56848290       0.93095062       0.35198296
C        0.15627742       1.17802574      -1.03071367
C       -1.34455229      -0.17854576      -0.48586339
C       -0.53384215      -0.08277104       0.79243899
H        2.14665755      -1.32922049      -0.43295053
H        1.36602145      -0.60322783       1.70726857
H        0.87939604       1.72200173       1.02337581
H        0.63228061       0.52928446      -1.77386026
H       -1.41920071       1.07040567      -1.11572297
H       -2.40367617      -0.24761972      -0.23922002
H       -1.12693098      -1.04165130      -1.11297764
H       -1.01106737       0.05454364       1.75365777
14
Frame=14 idx=005770 GeodesicLength=0.8147833534438899 rxn_smarts="[O:1]([C@@:2]1([H:8])[C@@:3]2([H:9])[C:4]([H:10])([H:11])[C:5]([H:12])([H:13])[C@@:6]12[H:14])[H:7]>>[O:1]([C@@:2]1([H:8])[C@:3]([C:4][H:10])([H:9])[C@:6]1([C:5]([H:11])([H:12])[H:13])[H:14])[H:7]"
O        1.23114887      -1.47972041      -0.18321891
C        0.85750887      -0.52788142       0.74945814
C        0.56953727       0.93100114       0.34848385
C        0.15386269       1.17080863      -1.03201453
C       -1.34219607      -0.17714253      -0.48757153
C       -0.53366331      -0.08636307       0.79266773
H        2.14898869      -1.33776816      -0.42345070
H        1.36809959      -0.59912578       1.70648948
H        0.87909109       1.72110482       1.02156232
H        0.63011459       0.52606369      -1.77778258
H       -1.43578073       1.09871275      -1.10802594
H       -2.39949760      -0.26426875      -0.23919812
H       -1.11795109      -1.03411452      -1.12095294
H       -1.00926287       0.05869363       1.75355373
14
Frame=15 idx=005770 GeodesicLength=0.8729098570383681 rxn_smarts="[O:1]([C@@:2]1([H:8])[C@@:3]2([H:9])[C:4]([H:10])([H:11])[C:5]([H:12])([H:13])[C@@:6]12[H:14])[H:7]>>[O:1]([C@@:2]1([H:8])[C@:3]([C:4][H:10])([H:9])[C@:6]1([C:5]([H:11])([H:12])[H:13])[H:14])[H:7]"
O        1.23102077      -1.48305149      -0.18018455
C        0.85621161      -0.52991286       0.74999266
C        0.57051288       0.93104181       0.34492208
C        0.15125047       1.16359378      -1.03332427
C       -1.33986486      -0.17595773      -0.48924596
C       -0.53350636      -0.09002892       0.79290296
H        2.15132672      -1.34629949      -0.41389094
H        1.37020017      -0.59499135       1.70563147
H        0.87867459       1.72021280       1.01967947
H        0.62789398       0.52295761      -1.78170762
H       -1.45196366       1.12712479      -1.10007753
H       -2.39517013      -0.28052342      -0.23951566
H       -1.10912833      -1.02691329      -1.12859568
H       -1.00745787       0.06274777       1.75341356
14
Frame=16 idx=005770 GeodesicLength=0.9310325375807276 rxn_smarts="[O:1]([C@@:2]1([H:8])[C@@:3]2([H:9])[C:4]([H:10])([H:11])[C:5]([H:12])([H:13])[C@@:6]12[H:14])[H:7]>>[O:1]([C@@:2]1([H:8])[C@:3]([C:4][H:10])([H:9])[C@:6]1([C:5]([H:11])([H:12])[H:13])[H:14])[H:7]"
O        1.23094647      -1.48632605      -0.17720004
C        0.85493144      -0.53192828       0.75049809
C        0.57141041       0.93107047       0.34130199
C        0.14845853       1.15636893      -1.03463421
C       -1.33755326      -0.17500315      -0.49088938
C       -0.53336927      -0.09376993       0.79313998
H        2.15366191      -1.35478530      -0.40428520
H        1.37231628      -0.59081945       1.70469311
H        0.87814754       1.71932242       1.01773211
H        0.62561126       0.51994776      -1.78562855
H       -1.46773612       1.15567617      -1.09189932
H       -2.39071767      -0.29638455      -0.24014659
H       -1.10045563      -1.02006892      -1.13590959
H       -1.00565189       0.06669989       1.75322760
