12
Frame=0 idx=001046 GeodesicLength=0.0 rxn_smarts="[C:1]([C@@:2]1([H:10])[O:3][C@:4]1([C:5](=[O:6])[H:12])[H:11])([H:7])([H:8])[H:9]>>[C:1]([C@@:2]([O:3][H:11])([C+:4]=[C:5]([O-:6])[H:12])[H:10])([H:7])([H:8])[H:9]"
C       -1.27438088       0.57091715       0.38504482
C       -0.56456263      -0.71110028       0.07022834
O       -0.16333568      -0.79540812      -1.32915695
C        0.89540695      -0.78508765       0.00742690
C        1.71595136       0.42274234       0.03664441
O        2.08635596       0.90658351       1.07890190
H       -1.26387524       0.72937773       1.46454025
H       -0.78253352       1.42019576      -0.08871191
H       -2.31174701       0.52842664       0.05199595
H       -1.09514344      -1.60422862       0.39549978
H        0.70511929      -1.49650233      -1.12768501
H        2.05274489       0.81408392      -0.94472851
12
Frame=1 idx=001046 GeodesicLength=0.04511679201091551 rxn_smarts="[C:1]([C@@:2]1([H:10])[O:3][C@:4]1([C:5](=[O:6])[H:12])[H:11])([H:7])([H:8])[H:9]>>[C:1]([C@@:2]([O:3][H:11])([C+:4]=[C:5]([O-:6])[H:12])[H:10])([H:7])([H:8])[H:9]"
C       -1.27739743       0.57333305       0.38314683
C       -0.56543463      -0.70819701       0.07137824
O       -0.15609482      -0.79619261      -1.32493369
C        0.89402124      -0.78281702       0.00502817
C        1.71688303       0.42319106       0.03663177
O        2.11066623       0.88697677       1.07948312
H       -1.27112972       0.73197576       1.46268647
H       -0.78490605       1.42313777      -0.08889724
H       -2.31355199       0.52960796       0.04637682
H       -1.09481382      -1.60210644       0.39660811
H        0.71166573      -1.51461489      -1.12367089
H        2.03009223       0.83570561      -0.94383772
12
Frame=2 idx=001046 GeodesicLength=0.09011797649863373 rxn_smarts="[C:1]([C@@:2]1([H:10])[O:3][C@:4]1([C:5](=[O:6])[H:12])[H:11])([H:7])([H:8])[H:9]>>[C:1]([C@@:2]([O:3][H:11])([C+:4]=[C:5]([O-:6])[H:12])[H:10])([H:7])([H:8])[H:9]"
C       -1.28041542       0.57573527       0.38123723
C       -0.56630454      -0.70527441       0.07248073
O       -0.14896043      -0.79696822      -1.32073620
C        0.89263777      -0.78057575       0.00261929
C        1.71778638       0.42362832       0.03659645
O        2.13495201       0.86734576       1.07912980
H       -1.27833091       0.73455145       1.46080313
H       -0.78732999       1.42607081      -0.08911647
H       -2.31535700       0.53075282       0.04080046
H       -1.09445990      -1.59996312       0.39768818
H        0.71830892      -1.53246458      -1.11951139
H        2.00747311       0.85716164      -0.94199122
12
Frame=3 idx=001046 GeodesicLength=0.13508036617765393 rxn_smarts="[C:1]([C@@:2]1([H:10])[O:3][C@:4]1([C:5](=[O:6])[H:12])[H:11])([H:7])([H:8])[H:9]>>[C:1]([C@@:2]([O:3][H:11])([C+:4]=[C:5]([O-:6])[H:12])[H:10])([H:7])([H:8])[H:9]"
C       -1.28347646       0.57813005       0.37931086
C       -0.56717938      -0.70232806       0.07354878
O       -0.14191311      -0.79773817      -1.31655551
C        0.89125945      -0.77834825       0.00022335
C        1.71864901       0.42409619       0.03654449
O        2.15941137       0.84761131       1.07781353
H       -1.28557957       0.73710532       1.45889113
H       -0.78983176       1.42901727      -0.08935170
H       -2.31719302       0.53185731       0.03521835
H       -1.09409409      -1.59780798       0.39874332
H        0.72507965      -1.55007841      -1.11518161
H        1.98486792       0.87848344      -0.93920498
12
Frame=4 idx=001046 GeodesicLength=0.18002709593535776 rxn_smarts="[C:1]([C@@:2]1([H:10])[O:3][C@:4]1([C:5](=[O:6])[H:12])[H:11])([H:7])([H:8])[H:9]>>[C:1]([C@@:2]([O:3][H:11])([C+:4]=[C:5]([O-:6])[H:12])[H:10])([H:7])([H:8])[H:9]"
C       -1.28658238       0.58051958       0.37735070
C       -0.56805306      -0.69934968       0.07458185
O       -0.13494476      -0.79850306      -1.31237870
C        0.88988639      -0.77612958      -0.00215416
C        1.71946080       0.42459364       0.03648865
O        2.18409866       0.82768068       1.07551507
H       -1.29286777       0.73966041       1.45692129
H       -0.79243193       1.43196771      -0.08963689
H       -2.31906073       0.53291768       0.02962663
H       -1.09370264      -1.59562266       0.39978170
H        0.73199256      -1.56747871      -1.11065242
H        1.96220487       0.89974398      -0.93544373
12
Frame=5 idx=001046 GeodesicLength=0.22499362993476887 rxn_smarts="[C:1]([C@@:2]1([H:10])[O:3][C@:4]1([C:5](=[O:6])[H:12])[H:11])([H:7])([H:8])[H:9]>>[C:1]([C@@:2]([O:3][H:11])([C+:4]=[C:5]([O-:6])[H:12])[H:10])([H:7])([H:8])[H:9]"
C       -1.28976341       0.58290308       0.37533941
C       -0.56893048      -0.69633345       0.07559375
O       -0.12804722      -0.79925970      -1.30820300
C        0.88851757      -0.77389775      -0.00447901
C        1.72020483       0.42516617       0.03645578
O        2.20923934       0.80746054       1.07218906
H       -1.30027271       0.74220878       1.45488881
H       -0.79515126       1.43493896      -0.08996971
H       -2.32097913       0.53392085       0.02395505
H       -1.09329278      -1.59341187       0.40081124
H        0.73905701      -1.58467994      -1.10588518
H        1.93941824       0.92098434      -0.93069619
12
Frame=6 idx=001046 GeodesicLength=0.2699264939873292 rxn_smarts="[C:1]([C@@:2]1([H:10])[O:3][C@:4]1([C:5](=[O:6])[H:12])[H:11])([H:7])([H:8])[H:9]>>[C:1]([C@@:2]([O:3][H:11])([C+:4]=[C:5]([O-:6])[H:12])[H:10])([H:7])([H:8])[H:9]"
C       -1.29298871       0.58527984       0.37331414
C       -0.56981597      -0.69328730       0.07656846
O       -0.12121065      -0.79997221      -1.30404190
C        0.88714636      -0.77167902      -0.00676117
C        1.72090889       0.42576005       0.03643559
O        2.23451627       0.78717116       1.06778848
H       -1.30775899       0.74471125       1.45283366
H       -0.79793781       1.43793284      -0.09028568
H       -2.32291595       0.53489929       0.01825204
H       -1.09288643      -1.59118259       0.40179047
H        0.74627549      -1.60168901      -1.10090509
H        1.91666750       0.94205570      -0.92498901
12
Frame=7 idx=001046 GeodesicLength=0.3148630433802188 rxn_smarts="[C:1]([C@@:2]1([H:10])[O:3][C@:4]1([C:5](=[O:6])[H:12])[H:11])([H:7])([H:8])[H:9]>>[C:1]([C@@:2]([O:3][H:11])([C+:4]=[C:5]([O-:6])[H:12])[H:10])([H:7])([H:8])[H:9]"
C       -1.29629243       0.58764545       0.37123988
C       -0.57071152      -0.69019493       0.07751494
O       -0.11443400      -0.80064408      -1.29986737
C        0.88577479      -0.76943963      -0.00898203
C        1.72154835       0.42642196       0.03645180
O        2.26017835       0.76662097       1.06227230
H       -1.31536178       0.74719807       1.45070322
H       -0.80084587       1.44093541      -0.09063574
H       -2.32490681       0.53581387       0.01248358
H       -1.09247308      -1.58891015       0.40274042
H        0.75366220      -1.61850489      -1.09566009
H        1.89386179       0.96305796      -0.91826090
12
Frame=8 idx=001046 GeodesicLength=0.3597762438117069 rxn_smarts="[C:1]([C@@:2]1([H:10])[O:3][C@:4]1([C:5](=[O:6])[H:12])[H:11])([H:7])([H:8])[H:9]>>[C:1]([C@@:2]([O:3][H:11])([C+:4]=[C:5]([O-:6])[H:12])[H:10])([H:7])([H:8])[H:9]"
C       -1.29965680       0.59000511       0.36915331
C       -0.57162039      -0.68706956       0.07842153
O       -0.10771292      -0.80124639      -1.29570943
C        0.88439887      -0.76720531      -0.01114305
C        1.72213349       0.42712598       0.03650919
O        2.28599535       0.74602628       1.05562454
H       -1.32307065       0.74962998       1.44855421
H       -0.80384036       1.44397071      -0.09095263
H       -2.32693013       0.53670350       0.00667124
H       -1.09206764      -1.58662366       0.40361940
H        0.76121624      -1.63514711      -1.09017942
H        1.87115495       0.98383046      -0.91056888
12
Frame=9 idx=001046 GeodesicLength=0.40462058226544506 rxn_smarts="[C:1]([C@@:2]1([H:10])[O:3][C@:4]1([C:5](=[O:6])[H:12])[H:11])([H:7])([H:8])[H:9]>>[C:1]([C@@:2]([O:3][H:11])([C+:4]=[C:5]([O-:6])[H:12])[H:10])([H:7])([H:8])[H:9]"
C       -1.30307119       0.59235338       0.36707630
C       -0.57254833      -0.68391366       0.07927676
O       -0.10105134      -0.80175099      -1.29157648
C        0.88301467      -0.76497935      -0.01325237
C        1.72266658       0.42786101       0.03660657
O        2.31178613       0.72552450       1.04786307
H       -1.33085447       0.75198149       1.44640812
H       -0.80690672       1.44703239      -0.09120646
H       -2.32898143       0.53757816       0.00085431
H       -1.09168125      -1.58432529       0.40439864
H        0.76893459      -1.65160801      -1.08447665
H        1.84869275       1.00424638      -0.90197181
12
Frame=10 idx=001046 GeodesicLength=0.4493551347738127 rxn_smarts="[C:1]([C@@:2]1([H:10])[O:3][C@:4]1([C:5](=[O:6])[H:12])[H:11])([H:7])([H:8])[H:9]>>[C:1]([C@@:2]([O:3][H:11])([C+:4]=[C:5]([O-:6])[H:12])[H:10])([H:7])([H:8])[H:9]"
C       -1.30651311       0.59468825       0.36503562
C       -0.57349887      -0.68073409       0.08006818
O       -0.09445091      -0.80213568      -1.28748617
C        0.88162503      -0.76278089      -0.01532277
C        1.72317760       0.42858933       0.03672749
O        2.33732745       0.70529880       1.03904172
H       -1.33867891       0.75422144       1.44429738
H       -0.81000478       1.45011709      -0.09135479
H       -2.33104664       0.53846637      -0.00493249
H       -1.09133339      -1.58201905       0.40504734
H        0.77681151      -1.66789572      -1.07857440
H        1.82658503       1.02418414      -0.89254710
12
Frame=11 idx=001046 GeodesicLength=0.493928693386105 rxn_smarts="[C:1]([C@@:2]1([H:10])[O:3][C@:4]1([C:5](=[O:6])[H:12])[H:11])([H:7])([H:8])[H:9]>>[C:1]([C@@:2]([O:3][H:11])([C+:4]=[C:5]([O-:6])[H:12])[H:10])([H:7])([H:8])[H:9]"
C       -1.30994123       0.59701094       0.36305732
C       -0.57446608      -0.67754018       0.08077558
O       -0.08792584      -0.80238945      -1.28344885
C        0.88021740      -0.76062387      -0.01738439
C        1.72364947       0.42929214       0.03686193
O        2.36231797       0.68551154       1.02927152
H       -1.34645136       0.75634660       1.44224034
H       -0.81310507       1.45322125      -0.09137630
H       -2.33308551       0.53938300      -0.01061893
H       -1.09101114      -1.57971579       0.40553277
H        0.78483072      -1.68401816      -1.07250996
H        1.80497067       1.04352198      -0.88240102
12
Frame=12 idx=001046 GeodesicLength=0.5383997076407557 rxn_smarts="[C:1]([C@@:2]1([H:10])[O:3][C@:4]1([C:5](=[O:6])[H:12])[H:11])([H:7])([H:8])[H:9]>>[C:1]([C@@:2]([O:3][H:11])([C+:4]=[C:5]([O-:6])[H:12])[H:10])([H:7])([H:8])[H:9]"
C       -1.31339301       0.59932231       0.36112205
C       -0.57545881      -0.67432671       0.08141415
O       -0.08146442      -0.80251252      -1.27946417
C        0.87880416      -0.75849981      -0.01941364
C        1.72410240       0.42998191       0.03702656
O        2.38698418       0.66605583       1.01852100
H       -1.35425000       0.75835733       1.44022807
H       -0.81623011       1.45635081      -0.09128622
H       -2.33513880       0.54032567      -0.01626341
H       -1.09073544      -1.57741067       0.40587691
H        0.79301385      -1.69999451      -1.06624177
H        1.78376601       1.06235035      -0.87151951
12
Frame=13 idx=001046 GeodesicLength=0.5828012613882365 rxn_smarts="[C:1]([C@@:2]1([H:10])[O:3][C@:4]1([C:5](=[O:6])[H:12])[H:11])([H:7])([H:8])[H:9]>>[C:1]([C@@:2]([O:3][H:11])([C+:4]=[C:5]([O-:6])[H:12])[H:10])([H:7])([H:8])[H:9]"
C       -1.31688150       0.60162417       0.35920280
C       -0.57647439      -0.67108492       0.08199292
O       -0.07505954      -0.80251670      -1.27551219
C        0.87737992      -0.75639061      -0.02139003
C        1.72451648       0.43068442       0.03725054
O        2.41150709       0.64678708       1.00672301
H       -1.36211782       0.76026869       1.43822608
H       -0.81939706       1.45950858      -0.09110268
H       -2.33720417       0.54127868      -0.02191946
H       -1.09049714      -1.57509353       0.40609298
H        0.80136834      -1.71584168      -1.05971795
H        1.76285980       1.08077581      -0.85984603
12
Frame=14 idx=001046 GeodesicLength=0.6271126968981959 rxn_smarts="[C:1]([C@@:2]1([H:10])[O:3][C@:4]1([C:5](=[O:6])[H:12])[H:11])([H:7])([H:8])[H:9]>>[C:1]([C@@:2]([O:3][H:11])([C+:4]=[C:5]([O-:6])[H:12])[H:10])([H:7])([H:8])[H:9]"
C       -1.32037709       0.60392122       0.35732603
C       -0.57751215      -0.66782904       0.08249708
O       -0.06871874      -0.80239331      -1.27161270
C        0.87594692      -0.75432635      -0.02333514
C        1.72491605       0.43136016       0.03751028
O        2.43565987       0.62789624       0.99397532
H       -1.37000790       0.76205816       1.43626540
H       -0.82256159       1.46270368      -0.09078229
H       -2.33925833       0.54228056      -0.02755100
H       -1.09030744      -1.57278216       0.40614855
H        0.80988145      -1.73158753      -1.05296806
H        1.74233894       1.09869837      -0.84747349
12
Frame=15 idx=001046 GeodesicLength=0.6712802930966568 rxn_smarts="[C:1]([C@@:2]1([H:10])[O:3][C@:4]1([C:5](=[O:6])[H:12])[H:11])([H:7])([H:8])[H:9]>>[C:1]([C@@:2]([O:3][H:11])([C+:4]=[C:5]([O-:6])[H:12])[H:10])([H:7])([H:8])[H:9]"
C       -1.32385513       0.60620808       0.35551388
C       -0.57856693      -0.66455124       0.08290947
O       -0.06244179      -0.80212527      -1.26778679
C        0.87449718      -0.75229819      -0.02528984
C        1.72527474       0.43199569       0.03779104
O        2.45916504       0.60946782       0.98041519
H       -1.37782948       0.76374395       1.43436507
H       -0.82572581       1.46590242      -0.09034685
H       -2.34129103       0.54331796      -0.03305314
H       -1.09014829      -1.57045330       0.40603205
H        0.81856441      -1.74720706      -1.04602683
H        1.72235711       1.11599914      -0.83452325
12
Frame=16 idx=001046 GeodesicLength=0.7153422361039856 rxn_smarts="[C:1]([C@@:2]1([H:10])[O:3][C@:4]1([C:5](=[O:6])[H:12])[H:11])([H:7])([H:8])[H:9]>>[C:1]([C@@:2]([O:3][H:11])([C+:4]=[C:5]([O-:6])[H:12])[H:10])([H:7])([H:8])[H:9]"
C       -1.32731881       0.60849025       0.35375578
C       -0.57964615      -0.66126634       0.08323449
O       -0.05624673      -0.80172328      -1.26403457
C        0.87304122      -0.75032787      -0.02724344
C        1.72564093       0.43258125       0.03808607
O        2.48213570       0.59152602       0.96605751
H       -1.38561919       0.76530165       1.43252024
H       -0.82886181       1.46913519      -0.08977064
H       -2.34330915       0.54441824      -0.03848932
H       -1.09004665      -1.56813595       0.40574531
H        0.82739688      -1.76275314      -1.03886913
H        1.70283375       1.13275397      -0.82099231
