11
Frame=0 idx=004507 GeodesicLength=0.0 rxn_smarts="[C:1]([C@@:2]([C:3](=[O:4])[H:11])([C:5]#[N:6])[H:10])([H:7])([H:8])[H:9]>>[C:1]([C:2](=[C:5]=[C:3]([N:6]=[O:4])[H:11])[H:10])([H:7])([H:8])[H:9]"
C       -1.00538133      -0.77223372       0.58371990
C        0.01979345       0.33986111       0.58310547
C        1.22173916       0.40294786      -0.32936087
O        0.20333801      -0.14424761      -1.83395865
C        0.28339443       1.52984369      -0.30060559
N        0.57751885       1.08502460      -1.60034007
H       -1.85452122      -0.44458418       1.18651743
H       -1.35468601      -1.03049556      -0.40857813
H       -0.58879568      -1.66206763       1.06020734
H        0.28044423       0.65276745       1.59044810
H        2.21715608       0.04318402      -0.53115488
11
Frame=1 idx=004507 GeodesicLength=0.15190320761369858 rxn_smarts="[C:1]([C@@:2]([C:3](=[O:4])[H:11])([C:5]#[N:6])[H:10])([H:7])([H:8])[H:9]>>[C:1]([C:2](=[C:5]=[C:3]([N:6]=[O:4])[H:11])[H:10])([H:7])([H:8])[H:9]"
C       -1.01799100      -0.76839223       0.59274060
C        0.01927223       0.33209613       0.59337113
C        1.22487286       0.38642172      -0.34971972
O        0.25637682      -0.17103663      -1.85266101
C        0.26801712       1.51407582      -0.28980957
N        0.56032205       1.10672354      -1.61228017
H       -1.86312279      -0.43549110       1.19809556
H       -1.37220265      -1.01798952      -0.40044913
H       -0.60738418      -1.66512979       1.06108898
H        0.29159071       0.63978719       1.59946821
H        2.24024884       0.07893487      -0.53984487
11
Frame=2 idx=004507 GeodesicLength=0.30377814502189393 rxn_smarts="[C:1]([C@@:2]([C:3](=[O:4])[H:11])([C:5]#[N:6])[H:10])([H:7])([H:8])[H:9]>>[C:1]([C:2](=[C:5]=[C:3]([N:6]=[O:4])[H:11])[H:10])([H:7])([H:8])[H:9]"
C       -1.03010369      -0.76469110       0.60189512
C        0.01888013       0.32431717       0.60363590
C        1.22828376       0.36943734      -0.37053362
O        0.30946094      -0.19492317      -1.87236536
C        0.25367453       1.49783163      -0.27944042
N        0.54238854       1.12763023      -1.62381541
H       -1.87159843      -0.42635008       1.20910309
H       -1.38844578      -1.00627619      -0.39220906
H       -0.62561532      -1.66784073       1.06286707
H        0.30237892       0.62732281       1.60828904
H        2.26069639       0.11354208      -0.54742637
11
Frame=3 idx=004507 GeodesicLength=0.4556502185714836 rxn_smarts="[C:1]([C@@:2]([C:3](=[O:4])[H:11])([C:5]#[N:6])[H:10])([H:7])([H:8])[H:9]>>[C:1]([C:2](=[C:5]=[C:3]([N:6]=[O:4])[H:11])[H:10])([H:7])([H:8])[H:9]"
C       -1.04174846      -0.76114220       0.61123372
C        0.01852734       0.31657690       0.61385676
C        1.23193004       0.35211291      -0.39180491
O        0.36286609      -0.21601228      -1.89322713
C        0.24017727       1.48116325      -0.26956097
N        0.52396607       1.14800436      -1.63500712
H       -1.87986920      -0.41726803       1.21980526
H       -1.40373317      -0.99530230      -0.38374093
H       -0.64336426      -1.67025717       1.06542213
H        0.31270558       0.61547604       1.61688577
H        2.27854271       0.14664853      -0.55386258
11
Frame=4 idx=004507 GeodesicLength=0.6075324898134142 rxn_smarts="[C:1]([C@@:2]([C:3](=[O:4])[H:11])([C:5]#[N:6])[H:10])([H:7])([H:8])[H:9]>>[C:1]([C:2](=[C:5]=[C:3]([N:6]=[O:4])[H:11])[H:10])([H:7])([H:8])[H:9]"
C       -1.05296601      -0.75775457       0.62080777
C        0.01813568       0.30891058       0.62400432
C        1.23576072       0.33452525      -0.41355797
O        0.41686589      -0.23439121      -1.91536555
C        0.22734737       1.46408870      -0.26023551
N        0.50524247       1.16806920      -1.64591128
H       -1.88788102      -0.40832758       1.23043310
H       -1.41834357      -0.98500963      -0.37493731
H       -0.66055400      -1.67243039       1.06865842
H        0.32249805       0.60433016       1.62523842
H        2.29389443       0.17798950      -0.55913441
11
Frame=5 idx=004507 GeodesicLength=0.7594247783685245 rxn_smarts="[C:1]([C@@:2]([C:3](=[O:4])[H:11])([C:5]#[N:6])[H:10])([H:7])([H:8])[H:9]>>[C:1]([C:2](=[C:5]=[C:3]([N:6]=[O:4])[H:11])[H:10])([H:7])([H:8])[H:9]"
C       -1.06380202      -0.75453506       0.63066952
C        0.01763816       0.30133920       0.63405866
C        1.23971588       0.31671379      -0.43583806
O        0.47172913      -0.25011946      -1.93887609
C        0.21502377       1.44659859      -0.25152855
N        0.48636024       1.18802069      -1.65657933
H       -1.89559852      -0.39958847       1.24118220
H       -1.43251358      -0.97534709      -0.36570025
H       -0.67714355      -1.67440188       1.07251203
H        0.33171014       0.59395066       1.63333009
H        2.30688035       0.20736902      -0.56323022
11
Frame=6 idx=004507 GeodesicLength=0.9113364594037141 rxn_smarts="[C:1]([C@@:2]([C:3](=[O:4])[H:11])([C:5]#[N:6])[H:10])([H:7])([H:8])[H:9]>>[C:1]([C:2](=[C:5]=[C:3]([N:6]=[O:4])[H:11])[H:10])([H:7])([H:8])[H:9]"
C       -1.07430594      -0.75149186       0.64086967
C        0.01697831       0.29387784       0.64400539
C        1.24373368       0.29868933      -0.45870589
O        0.52772356      -0.26322930      -1.96382825
C        0.20306180       1.42867338      -0.24349947
N        0.46741994       1.20803907      -1.66704993
H       -1.90300788      -0.39108851       1.25221050
H       -1.44644454      -0.96628555      -0.35593910
H       -0.69311593      -1.67621007       1.07694792
H        0.34031926       0.58439971       1.64114224
H        2.31763775       0.23462597      -0.56615309
11
Frame=7 idx=004507 GeodesicLength=1.0632846249985366 rxn_smarts="[C:1]([C@@:2]([C:3](=[O:4])[H:11])([C:5]#[N:6])[H:10])([H:7])([H:8])[H:9]>>[C:1]([C:2](=[C:5]=[C:3]([N:6]=[O:4])[H:11])[H:10])([H:7])([H:8])[H:9]"
C       -1.08452920      -0.74863845       0.65146442
C        0.01610821       0.28653714       0.65383173
C        1.24775065       0.28044368      -0.48224640
O        0.58512138      -0.27370460      -1.99028210
C        0.19133349       1.41028561      -0.23621763
N        0.44850322       1.22830813      -1.67736470
H       -1.91011545      -0.38285669       1.26364969
H       -1.46030611      -0.95782270      -0.34556553
H       -0.70847018      -1.67788938       1.08197590
H        0.34832326       0.57573405       1.64865251
H        2.32628074       0.25960321      -0.56789790
11
Frame=8 idx=004507 GeodesicLength=1.2152691305271452 rxn_smarts="[C:1]([C@@:2]([C:3](=[O:4])[H:11])([C:5]#[N:6])[H:10])([H:7])([H:8])[H:9]>>[C:1]([C:2](=[C:5]=[C:3]([N:6]=[O:4])[H:11])[H:10])([H:7])([H:8])[H:9]"
C       -1.09451907      -0.74598282       0.66250850
C        0.01498527       0.27932107       0.66352602
C        1.25169212       0.26194486      -0.50656191
O        0.64420653      -0.28150477      -2.01827370
C        0.17972052       1.39138588      -0.22974919
N        0.42966961       1.24899095      -1.68755005
H       -1.91692594      -0.37490433       1.27561509
H       -1.47423970      -0.94996077      -0.33449514
H       -0.72321631      -1.67946133       1.08761388
H        0.35572530       0.56800550       1.65583312
H        2.33290168       0.28216577      -0.56846662
11
Frame=9 idx=004507 GeodesicLength=1.367272982401178 rxn_smarts="[C:1]([C@@:2]([C:3](=[O:4])[H:11])([C:5]#[N:6])[H:10])([H:7])([H:8])[H:9]>>[C:1]([C:2](=[C:5]=[C:3]([N:6]=[O:4])[H:11])[H:10])([H:7])([H:8])[H:9]"
C       -1.10431330      -0.74352779       0.67405279
C        0.01357135       0.27222989       0.67306789
C        1.25547286       0.24314142      -0.53177619
O        0.70527211      -0.28655737      -2.04779546
C        0.16810735       1.37191209      -0.22416336
N        0.41095253       1.27024221      -1.69761213
H       -1.92344036      -0.36722451       1.28819978
H       -1.48835793      -0.94270770      -0.32264286
H       -0.73735839      -1.68093731       1.09388894
H        0.36253428       0.56126178       1.66263444
H        2.33755951       0.30216731      -0.56785383
11
Frame=10 idx=004507 GeodesicLength=1.5193115223520195 rxn_smarts="[C:1]([C@@:2]([C:3](=[O:4])[H:11])([C:5]#[N:6])[H:10])([H:7])([H:8])[H:9]>>[C:1]([C:2](=[C:5]=[C:3]([N:6]=[O:4])[H:11])[H:10])([H:7])([H:8])[H:9]"
C       -1.11395268      -0.74128715       0.68615742
C        0.01183290       0.26526955       0.68244074
C        1.25900291       0.22398201      -0.55803788
O        0.76863522      -0.28873428      -2.07884016
C        0.15639048       1.35180445      -0.21954173
N        0.39239175       1.29224483      -1.70756350
H       -1.92967708      -0.35981419       1.30148317
H       -1.50275480      -0.93611578      -0.30992685
H       -0.75090970      -1.68232672       1.10087875
H        0.36876828       0.55556785       1.66901452
H        2.34027272       0.31940943      -0.56606447
11
Frame=11 idx=004507 GeodesicLength=1.6713805289099148 rxn_smarts="[C:1]([C@@:2]([C:3](=[O:4])[H:11])([C:5]#[N:6])[H:10])([H:7])([H:8])[H:9]>>[C:1]([C:2](=[C:5]=[C:3]([N:6]=[O:4])[H:11])[H:10])([H:7])([H:8])[H:9]"
C       -1.12346575      -0.73926808       0.69887745
C        0.00973695       0.25844608       0.69161510
C        1.26217455       0.20440079      -0.58552308
O        0.83462928      -0.28787977      -2.11133755
C        0.14446098       1.33098821      -0.21597000
N        0.37401200       1.31518046      -1.71738775
H       -1.93564195      -0.35265543       1.31553168
H       -1.51750296      -0.93024052      -0.29626219
H       -0.76386780      -1.68362693       1.10865733
H        0.37444206       0.55099406       1.67490446
H        2.34102263       0.33366113      -0.56310544
11
Frame=12 idx=004507 GeodesicLength=1.8234793336073714 rxn_smarts="[C:1]([C@@:2]([C:3](=[O:4])[H:11])([C:5]#[N:6])[H:10])([H:7])([H:8])[H:9]>>[C:1]([C:2](=[C:5]=[C:3]([N:6]=[O:4])[H:11])[H:10])([H:7])([H:8])[H:9]"
C       -1.13287402      -0.73748056       0.71226991
C        0.00725160       0.25177195       0.70055149
C        1.26486768       0.18433331      -0.61444269
O        0.90360727      -0.28379803      -2.14516212
C        0.13220754       1.30938477      -0.21355003
N        0.35584066       1.33925508      -1.72705686
H       -1.94133920      -0.34573026       1.33040373
H       -1.53266078      -0.92515854      -0.28156190
H       -0.77621661      -1.68483022       1.11731717
H        0.37957094       0.54762682       1.68021895
H        2.33974492       0.34462569      -0.55898766
11
Frame=13 idx=004507 GeodesicLength=1.975613972740247 rxn_smarts="[C:1]([C@@:2]([C:3](=[O:4])[H:11])([C:5]#[N:6])[H:10])([H:7])([H:8])[H:9]>>[C:1]([C:2](=[C:5]=[C:3]([N:6]=[O:4])[H:11])[H:10])([H:7])([H:8])[H:9]"
C       -1.14218944      -0.73593574       0.72639097
C        0.00434416       0.24526814       0.70919740
C        1.26694735       0.16371946      -0.64504822
O        0.97593639      -0.27626897      -2.18010961
C        0.11950900       1.28690916      -0.21240042
N        0.33791491       1.36470510      -1.73652236
H       -1.94676584      -0.33902194       1.34615523
H       -1.54827697      -0.92096239      -0.26573782
H       -0.78791758      -1.68592345       1.12695598
H        0.38416637       0.54557383       1.68485267
H        2.33633164       0.35193680      -0.55373382
11
Frame=14 idx=004507 GeodesicLength=2.127774129673677 rxn_smarts="[C:1]([C@@:2]([C:3](=[O:4])[H:11])([C:5]#[N:6])[H:10])([H:7])([H:8])[H:9]>>[C:1]([C:2](=[C:5]=[C:3]([N:6]=[O:4])[H:11])[H:10])([H:7])([H:8])[H:9]"
C       -1.15140957      -0.73464672       0.74129129
C        0.00098042       0.23896758       0.71747981
C        1.26825961       0.14251330      -0.67763479
O        1.05198117      -0.26506433      -2.21585363
C        0.10623568       1.26347277      -0.21265975
N        0.32028975       1.39181061      -1.74570036
H       -1.95190442      -0.33251912       1.36283101
H       -1.56438490      -0.91776215      -0.24869872
H       -0.79890384      -1.68688716       1.13767211
H        0.38823240       0.54496773       1.68866713
H        2.33062370       0.35514747      -0.54739411
11
Frame=15 idx=004507 GeodesicLength=2.279951882773766 rxn_smarts="[C:1]([C@@:2]([C:3](=[O:4])[H:11])([C:5]#[N:6])[H:10])([H:7])([H:8])[H:9]>>[C:1]([C:2](=[C:5]=[C:3]([N:6]=[O:4])[H:11])[H:10])([H:7])([H:8])[H:9]"
C       -1.16051378      -0.73362838       0.75701414
C       -0.00287887       0.23292064       0.72530237
C        1.26863659       0.12070055      -0.71255246
O        1.13208758      -0.24997778      -2.25192221
C        0.09223656       1.23898248      -0.21448976
N        0.30305394       1.42091529      -1.75445830
H       -1.95672491      -0.32622515       1.38047141
H       -1.58100231      -0.91568368      -0.23035248
H       -0.80906196      -1.68769092       1.14955534
H        0.39175867       0.54597272       1.69148847
H        2.32240848       0.35371423      -0.54005654
11
Frame=16 idx=004507 GeodesicLength=2.4321380690022125 rxn_smarts="[C:1]([C@@:2]([C:3](=[O:4])[H:11])([C:5]#[N:6])[H:10])([H:7])([H:8])[H:9]>>[C:1]([C:2](=[C:5]=[C:3]([N:6]=[O:4])[H:11])[H:10])([H:7])([H:8])[H:9]"
C       -1.16945206      -0.73289666       0.77358676
C       -0.00728339       0.22720426       0.73254113
C        1.26789574       0.09832009      -0.75020886
O        1.21654582      -0.23088408      -2.28765872
C        0.07733304       1.21334607      -0.21807423
N        0.28634549       1.45244789      -1.76258456
H       -1.96117385      -0.32016658       1.39910787
H       -1.59811589      -0.91486398      -0.21061100
H       -0.81821291      -1.68829170       1.16266730
H        0.39470665       0.54879343       1.69310037
H        2.31141136       0.34699124      -0.53186605
