14
Frame=0 idx=011486 GeodesicLength=0.0 rxn_smarts="[C:1]([C@@:2]([C:3]#[N:4])([C:5](=[O:6])[C:7]([H:12])([H:13])[H:14])[H:11])([H:8])([H:9])[H:10]>>[C:1]([C:2](=[C:3]=[C:5]([N:4]=[O:6])[C:7]([H:12])([H:13])[H:14])[H:11])([H:8])([H:9])[H:10]"
C       -1.72237656      -0.82205635       0.32204923
C       -0.88073369       0.15035150      -0.47596735
C       -0.43263314       1.56670081      -0.27911402
N        0.35460115       1.63837165       0.87919757
C        0.57204729       0.48432807      -0.18107789
O        0.21367490       0.61927796       1.68854913
C        1.94375992      -0.01435442      -0.41476017
H       -1.66172717      -0.66037503       1.39129371
H       -2.76049665      -0.70752301       0.00347847
H       -1.42482790      -1.84882981       0.09610931
H       -1.03321511       0.02477243      -1.54572051
H        2.07950395      -0.99419956       0.04005493
H        2.68302153       0.68333035      -0.02958306
H        2.06940147      -0.11979455      -1.49450934
14
Frame=1 idx=011486 GeodesicLength=0.15567093373754318 rxn_smarts="[C:1]([C@@:2]([C:3]#[N:4])([C:5](=[O:6])[C:7]([H:12])([H:13])[H:14])[H:11])([H:8])([H:9])[H:10]>>[C:1]([C:2](=[C:3]=[C:5]([N:4]=[O:6])[C:7]([H:12])([H:13])[H:14])[H:11])([H:8])([H:9])[H:10]"
C       -1.75156836      -0.81638179       0.31704447
C       -0.88583484       0.13342973      -0.48183956
C       -0.43502409       1.53893661      -0.27950452
N        0.34799566       1.64947300       0.88967896
C        0.58369030       0.45549159      -0.15093297
O        0.26342482       0.58731269       1.70004369
C        1.96265958      -0.00374979      -0.41705157
H       -1.69496299      -0.64753022       1.38577989
H       -2.78583239      -0.68485962      -0.00718944
H       -1.46874891      -1.84956194       0.10243688
H       -1.02755799       0.00374073      -1.55269482
H        2.13660088      -0.97272955       0.04800758
H        2.68858234       0.72046573      -0.05538894
H        2.06657600      -0.11403717      -1.49838966
14
Frame=2 idx=011486 GeodesicLength=0.3109351668181511 rxn_smarts="[C:1]([C@@:2]([C:3]#[N:4])([C:5](=[O:6])[C:7]([H:12])([H:13])[H:14])[H:11])([H:8])([H:9])[H:10]>>[C:1]([C:2](=[C:3]=[C:5]([N:4]=[O:6])[C:7]([H:12])([H:13])[H:14])[H:11])([H:8])([H:9])[H:10]"
C       -1.77966415      -0.81068687       0.31164266
C       -0.89056892       0.11644444      -0.48783099
C       -0.43676354       1.51106576      -0.27969294
N        0.34077904       1.66002111       0.90020456
C        0.59563111       0.42669263      -0.12054139
O        0.31340164       0.55708105       1.71172054
C        1.98026520       0.00653044      -0.41900858
H       -1.72616297      -0.63520867       1.37985372
H       -2.80991860      -0.66191717      -0.01762678
H       -1.51190140      -1.84986860       0.10756184
H       -1.02235885      -0.01681491      -1.55963720
H        2.19260744      -0.95014990       0.05570448
H        2.69171602       0.75653323      -0.08102999
H        2.06293797      -0.10972255      -1.50131993
14
Frame=3 idx=011486 GeodesicLength=0.4658730613897544 rxn_smarts="[C:1]([C@@:2]([C:3]#[N:4])([C:5](=[O:6])[C:7]([H:12])([H:13])[H:14])[H:11])([H:8])([H:9])[H:10]>>[C:1]([C:2](=[C:3]=[C:5]([N:4]=[O:6])[C:7]([H:12])([H:13])[H:14])[H:11])([H:8])([H:9])[H:10]"
C       -1.80664458      -0.80502049       0.30581740
C       -0.89498872       0.09946158      -0.49388779
C       -0.43798037       1.48314907      -0.27960733
N        0.33306154       1.67027835       0.91066904
C        0.60786337       0.39807267      -0.08992074
O        0.36390274       0.52862339       1.72363108
C        1.99652883       0.01641107      -0.42059606
H       -1.75554136      -0.62345777       1.37351386
H       -2.83270966      -0.63891150      -0.02797973
H       -1.55408009      -1.84975918       0.11152133
H       -1.01767960      -0.03678668      -1.56652621
H        2.24725528      -0.92655514       0.06310055
H        2.69249800       0.79134039      -0.10645174
H        2.05851464      -0.10684577      -1.50328366
14
Frame=4 idx=011486 GeodesicLength=0.6206260788331683 rxn_smarts="[C:1]([C@@:2]([C:3]#[N:4])([C:5](=[O:6])[C:7]([H:12])([H:13])[H:14])[H:11])([H:8])([H:9])[H:10]>>[C:1]([C:2](=[C:3]=[C:5]([N:4]=[O:6])[C:7]([H:12])([H:13])[H:14])[H:11])([H:8])([H:9])[H:10]"
C       -1.83252337      -0.79943467       0.29955341
C       -0.89913737       0.08253726      -0.49997296
C       -0.43877921       1.45523186      -0.27917269
N        0.32493514       1.68049548       0.92097013
C        0.62039036       0.36974956      -0.05905331
O        0.41522740       0.50195972       1.73580760
C        2.01143324       0.02583316      -0.42178032
H       -1.78333314      -0.61231489       1.36676628
H       -2.85420281      -0.61602759      -0.03837977
H       -1.59512158      -1.84927157       0.11436573
H       -1.01354163      -0.05607105      -1.57336489
H        2.30031959      -0.90204639       0.07014431
H        2.69102507       0.82472635      -0.13161409
H        2.05330831      -0.10536723      -1.50426942
14
Frame=5 idx=011486 GeodesicLength=0.7752846199506943 rxn_smarts="[C:1]([C@@:2]([C:3]#[N:4])([C:5](=[O:6])[C:7]([H:12])([H:13])[H:14])[H:11])([H:8])([H:9])[H:10]>>[C:1]([C:2](=[C:3]=[C:5]([N:4]=[O:6])[C:7]([H:12])([H:13])[H:14])[H:11])([H:8])([H:9])[H:10]"
C       -1.85731225      -0.79397504       0.29284474
C       -0.90304530       0.06570616      -0.50604427
C       -0.43925269       1.42735034      -0.27833165
N        0.31648896       1.69089792       0.93100564
C        0.63322053       0.34183396      -0.02789417
O        0.46759259       0.47709640       1.74827254
C        2.02497039       0.03475470      -0.42254864
H       -1.80975187      -0.60178643       1.35961585
H       -2.87439551      -0.59343063      -0.04895012
H       -1.63489114      -1.84843654       0.11617626
H       -1.00995210      -0.07460782      -1.58013311
H        2.35154292      -0.87675889       0.07671287
H        2.68741099       0.85654504      -0.15642739
H        2.04737449      -0.10518918      -1.50429856
14
Frame=6 idx=011486 GeodesicLength=0.929857826236776 rxn_smarts="[C:1]([C@@:2]([C:3]#[N:4])([C:5](=[O:6])[C:7]([H:12])([H:13])[H:14])[H:11])([H:8])([H:9])[H:10]>>[C:1]([C:2](=[C:3]=[C:5]([N:4]=[O:6])[C:7]([H:12])([H:13])[H:14])[H:11])([H:8])([H:9])[H:10]"
C       -1.88105334      -0.78869537       0.28567529
C       -0.90674635       0.04901968      -0.51208427
C       -0.43948380       1.39953656      -0.27698761
N        0.30776738       1.70169577       0.94070714
C        0.64636456       0.31441874       0.00362941
O        0.52125576       0.45411615       1.76100625
C        2.03714698       0.04312316      -0.42287275
H       -1.83499951      -0.59191309       1.35205681
H       -2.89333693      -0.57126876      -0.05977626
H       -1.67330223      -1.84733017       0.11697873
H       -1.00689669      -0.09227570      -1.58685486
H        2.40082908      -0.85082857       0.08275430
H        2.68178242       0.88666872      -0.18086665
H        2.04067267      -0.10626712      -1.50336553
14
Frame=7 idx=011486 GeodesicLength=1.0843834843175646 rxn_smarts="[C:1]([C@@:2]([C:3]#[N:4])([C:5](=[O:6])[C:7]([H:12])([H:13])[H:14])[H:11])([H:8])([H:9])[H:10]>>[C:1]([C:2](=[C:3]=[C:5]([N:4]=[O:6])[C:7]([H:12])([H:13])[H:14])[H:11])([H:8])([H:9])[H:10]"
C       -1.90377983      -0.78364131       0.27803208
C       -0.91027558       0.03251158      -0.51806110
C       -0.43954322       1.37181372      -0.27506246
N        0.29882442       1.71308533       0.94999565
C        0.65984196       0.28758168       0.03560177
O        0.57641430       0.43306259       1.77398891
C        2.04795946       0.05091045      -0.42273876
H       -1.85925054      -0.58271619       1.34408308
H       -2.91106114      -0.54966655      -0.07094611
H       -1.71028503      -1.84600058       0.11680669
H       -1.00435867      -0.10899913      -1.59352176
H        2.44805575      -0.82438669       0.08816820
H        2.67425906       0.91498072      -0.20486437
H        2.03319906      -0.10853562      -1.50148181
14
Frame=8 idx=011486 GeodesicLength=1.2388908220231822 rxn_smarts="[C:1]([C@@:2]([C:3]#[N:4])([C:5](=[O:6])[C:7]([H:12])([H:13])[H:14])[H:11])([H:8])([H:9])[H:10]>>[C:1]([C:2](=[C:3]=[C:5]([N:4]=[O:6])[C:7]([H:12])([H:13])[H:14])[H:11])([H:8])([H:9])[H:10]"
C       -1.92555002      -0.77886273       0.26990993
C       -0.91364869       0.01621585      -0.52396602
C       -0.43949001       1.34420083      -0.27247071
N        0.28967945       1.72525244       0.95879596
C        0.67367552       0.26140954       0.06813250
O        0.63327500       0.41398049       1.78717131
C        2.05742987       0.05808601      -0.42212202
H       -1.88269508      -0.57421148       1.33569574
H       -2.92763339      -0.52874046      -0.08252785
H       -1.74579813      -1.84452703       0.11569596
H       -1.00229617      -0.12468028      -1.60015760
H        2.49316522      -0.79760697       0.09286198
H        2.66498426       0.94139893      -0.22837418
H        2.02490218      -0.11191514      -1.49864499
14
Frame=9 idx=011486 GeodesicLength=1.39281371137587 rxn_smarts="[C:1]([C@@:2]([C:3]#[N:4])([C:5](=[O:6])[C:7]([H:12])([H:13])[H:14])[H:11])([H:8])([H:9])[H:10]>>[C:1]([C:2](=[C:3]=[C:5]([N:4]=[O:6])[C:7]([H:12])([H:13])[H:14])[H:11])([H:8])([H:9])[H:10]"
C       -1.94650439      -0.77438846       0.26122235
C       -0.91699921       0.00014528      -0.52977776
C       -0.43938985       1.31658987      -0.26897921
N        0.28042543       1.73812661       0.96724747
C        0.68783152       0.23571667       0.10134039
O        0.69192874       0.39713544       1.80037280
C        2.06564690       0.06463159      -0.42103000
H       -1.90544410      -0.56653978       1.32680872
H       -2.94321539      -0.50843825      -0.09456047
H       -1.78003272      -1.84289783       0.11346845
H       -1.00085207      -0.13912988      -1.60668058
H        2.53672514      -0.77026621       0.09703872
H        2.65417169       0.96603316      -0.25165242
H        2.01570830      -0.11671823      -1.49481845
14
Frame=10 idx=011486 GeodesicLength=1.5467355015153468 rxn_smarts="[C:1]([C@@:2]([C:3]#[N:4])([C:5](=[O:6])[C:7]([H:12])([H:13])[H:14])[H:11])([H:8])([H:9])[H:10]>>[C:1]([C:2](=[C:3]=[C:5]([N:4]=[O:6])[C:7]([H:12])([H:13])[H:14])[H:11])([H:8])([H:9])[H:10]"
C       -1.96657829      -0.77028308       0.25203116
C       -0.92024009      -0.01562498      -0.53549646
C       -0.43930413       1.28912273      -0.26463331
N        0.27098145       1.75212697       0.97506702
C        0.70238240       0.21087612       0.13534429
O        0.75257612       0.38235800       1.81363624
C        2.07257048       0.07046304      -0.41940628
H       -1.92763948      -0.55965976       1.31749675
H       -2.95774996      -0.48898042      -0.10708863
H       -1.81271462      -1.84125809       0.11029038
H       -0.99982996      -0.15230372      -1.61318550
H        2.57807934      -0.74290934       0.10036741
H        2.64186328       0.98863274      -0.27440525
H        2.00560345      -0.12256022      -1.49001784
14
Frame=11 idx=011486 GeodesicLength=1.700713421294382 rxn_smarts="[C:1]([C@@:2]([C:3]#[N:4])([C:5](=[O:6])[C:7]([H:12])([H:13])[H:14])[H:11])([H:8])([H:9])[H:10]>>[C:1]([C:2](=[C:3]=[C:5]([N:4]=[O:6])[C:7]([H:12])([H:13])[H:14])[H:11])([H:8])([H:9])[H:10]"
C       -1.98578447      -0.76658728       0.24232152
C       -0.92338201      -0.03105239      -0.54109659
C       -0.43928968       1.26181747      -0.25934986
N        0.26135058       1.76746742       0.98215335
C        0.71735332       0.18701462       0.17029900
O        0.81528949       0.36963167       1.82692068
C        2.07820663       0.07555128      -0.41724343
H       -1.94937388      -0.55360783       1.30774039
H       -2.97127001      -0.47046432      -0.12016420
H       -1.84376969      -1.83966022       0.10616781
H       -0.99919711      -0.16409684      -1.61964946
H        2.61713202      -0.71577451       0.10276407
H        2.62819640       1.00914333      -0.29661247
H        1.99453839      -0.12938240      -1.48425081
14
Frame=12 idx=011486 GeodesicLength=1.8547551661510377 rxn_smarts="[C:1]([C@@:2]([C:3]#[N:4])([C:5](=[O:6])[C:7]([H:12])([H:13])[H:14])[H:11])([H:8])([H:9])[H:10]>>[C:1]([C:2](=[C:3]=[C:5]([N:4]=[O:6])[C:7]([H:12])([H:13])[H:14])[H:11])([H:8])([H:9])[H:10]"
C       -2.00417403      -0.76334493       0.23209522
C       -0.92643560      -0.04608793      -0.54658316
C       -0.43940178       1.23468394      -0.25304348
N        0.25150617       1.78433379       0.98838854
C        0.73276559       0.16425700       0.20635158
O        0.88010669       0.35890725       1.84015607
C        2.08260736       0.07986932      -0.41451487
H       -1.97075293      -0.54842416       1.29754318
H       -2.98385887      -0.45295376      -0.13378698
H       -1.87318656      -1.83819041       0.10110605
H       -0.99891104      -0.17438026      -1.62609219
H        2.65394110      -0.68910986       0.10415355
H        2.61333778       1.02757661      -0.31827591
H        1.98245613      -0.13713662      -1.47749760
14
Frame=13 idx=011486 GeodesicLength=2.0088590500933647 rxn_smarts="[C:1]([C@@:2]([C:3]#[N:4])([C:5](=[O:6])[C:7]([H:12])([H:13])[H:14])[H:11])([H:8])([H:9])[H:10]>>[C:1]([C:2](=[C:3]=[C:5]([N:4]=[O:6])[C:7]([H:12])([H:13])[H:14])[H:11])([H:8])([H:9])[H:10]"
C       -2.02176811      -0.76060014       0.22134440
C       -0.92942053      -0.06068353      -0.55194158
C       -0.43968941       1.20773968      -0.24563526
N        0.24144119       1.80292076       0.99362252
C        0.74865430       0.14274920       0.24364942
O        0.94706429       0.35010713       1.85324903
C        2.08579845       0.08341623      -0.41119805
H       -1.99183458      -0.54417419       1.28690222
H       -2.99556915      -0.43650926      -0.14795493
H       -1.90093258      -1.83691378       0.09507727
H       -0.99895364      -0.18303190      -1.63249279
H        2.68847124      -0.66314438       0.10447614
H        2.59742782       1.04392902      -0.33936734
H        1.96931072      -0.14580484      -1.46973105
14
Frame=14 idx=011486 GeodesicLength=2.1629550508966298 rxn_smarts="[C:1]([C@@:2]([C:3]#[N:4])([C:5](=[O:6])[C:7]([H:12])([H:13])[H:14])[H:11])([H:8])([H:9])[H:10]>>[C:1]([C:2](=[C:3]=[C:5]([N:4]=[O:6])[C:7]([H:12])([H:13])[H:14])[H:11])([H:8])([H:9])[H:10]"
C       -2.03859275      -0.75840776       0.21007297
C       -0.93235980      -0.07475619      -0.55720211
C       -0.44019065       1.18100226      -0.23703304
N        0.23111528       1.82343604       0.99769715
C        0.76505681       0.12263496       0.28231218
O        1.01612483       0.34317692       1.86607252
C        2.08780809       0.08614650      -0.40725015
H       -2.01263046      -0.54096400       1.27583163
H       -3.00648794      -0.42118452      -0.16258770
H       -1.92697080      -1.83591985       0.08802268
H       -0.99932926      -0.18984087      -1.63888647
H        2.72081601      -0.63808203       0.10370777
H        2.58061083       1.05818172      -0.35986461
H        1.95502982      -0.15542318      -1.46089281
14
Frame=15 idx=011486 GeodesicLength=2.317015127199366 rxn_smarts="[C:1]([C@@:2]([C:3]#[N:4])([C:5](=[O:6])[C:7]([H:12])([H:13])[H:14])[H:11])([H:8])([H:9])[H:10]>>[C:1]([C:2](=[C:3]=[C:5]([N:4]=[O:6])[C:7]([H:12])([H:13])[H:14])[H:11])([H:8])([H:9])[H:10]"
C       -2.05466411      -0.75681506       0.19828778
C       -0.93528742      -0.08823073      -0.56238322
C       -0.44095035       1.15448487      -0.22716154
N        0.22050228       1.84608887       1.00037269
C        0.78200945       0.10408562       0.32246681
O        1.08724050       0.33796433       1.87851324
C        2.08866877       0.08803394      -0.40262246
H       -2.03313061      -0.53890167       1.26435048
H       -3.01669000      -0.40701383      -0.17759713
H       -1.95127640      -1.83529000       0.07988061
H       -1.00005034      -0.19462324      -1.64528424
H        2.75102631      -0.61409600       0.10180774
H        2.56303063       1.07032748      -0.37971497
H        1.93957129      -0.16601461      -1.45091580
14
Frame=16 idx=011486 GeodesicLength=2.470937452736458 rxn_smarts="[C:1]([C@@:2]([C:3]#[N:4])([C:5](=[O:6])[C:7]([H:12])([H:13])[H:14])[H:11])([H:8])([H:9])[H:10]>>[C:1]([C:2](=[C:3]=[C:5]([N:4]=[O:6])[C:7]([H:12])([H:13])[H:14])[H:11])([H:8])([H:9])[H:10]"
C       -2.07000045      -0.75587942       0.18600121
C       -0.93825186      -0.10100001      -0.56753560
C       -0.44201330       1.12820614      -0.21593968
N        0.20956631       1.87108083       1.00136261
C        0.79954844       0.08728630       0.36421041
O        1.16035133       0.33434384       1.89044229
C        2.08842120       0.08903222      -0.39724719
H       -2.05328033      -0.53817011       1.25249553
H       -3.02627361      -0.39401571      -0.19282290
H       -1.97382459      -1.83511889       0.07053147
H       -1.00116514      -0.19711627      -1.65172735
H        2.77921318      -0.59133694       0.09880200
H        2.54482448       1.08034871      -0.39887623
H        1.92288434      -0.17766068      -1.43969658
