13
Frame=0 idx=006007 GeodesicLength=0.0 rxn_smarts="[C:1]([N:2]1[C:3]([H:10])([H:11])[C@:4]1([C:5](=[O:6])[H:13])[H:12])([H:7])([H:8])[H:9]>>[C:1]1([H:7])([H:8])[N:2]2[C:3]([H:10])([H:11])[C@@:4]2([H:12])[C:5]([H:9])([H:13])[O:6]1"
C        1.46470197       0.14209646      -0.52973522
N        0.70933907       0.64047769       0.40235005
C       -0.50749963       1.40098883       0.24879809
C       -0.48998546      -0.00086863       0.80208811
C       -0.69490821      -1.26728142      -0.10925731
O        0.02177485      -2.25943607       0.27172633
H        1.74832413      -0.90481854      -0.42293753
H        1.92861115       0.81019827      -1.24805952
H       -0.26621771      -0.74269642      -1.11503170
H       -0.62624535       2.24260927       0.91796596
H       -0.84146582       1.53543694      -0.77623795
H       -0.67127529      -0.14429593       1.85994586
H       -1.77515368      -1.45241040      -0.30161512
13
Frame=1 idx=006007 GeodesicLength=0.09947913812257404 rxn_smarts="[C:1]([N:2]1[C:3]([H:10])([H:11])[C@:4]1([C:5](=[O:6])[H:13])[H:12])([H:7])([H:8])[H:9]>>[C:1]1([H:7])([H:8])[N:2]2[C:3]([H:10])([H:11])[C@@:4]2([H:12])[C:5]([H:9])([H:13])[O:6]1"
C        1.45758141       0.12769235      -0.54048088
N        0.70235403       0.64689904       0.38874044
C       -0.51602934       1.40427632       0.25677588
C       -0.49386699       0.00005807       0.79744429
C       -0.70624182      -1.26003190      -0.11106211
O        0.01758727      -2.24997293       0.26558391
H        1.79742409      -0.89394453      -0.37231260
H        1.91758206       0.78274118      -1.27330316
H       -0.24342096      -0.75198356      -1.14005311
H       -0.62211970       2.23876327       0.93738568
H       -0.86235191       1.54706092      -0.76279702
H       -0.66314668      -0.14574638       1.85730533
H       -1.78535145      -1.44581185      -0.30322665
13
Frame=2 idx=006007 GeodesicLength=0.1989335648365796 rxn_smarts="[C:1]([N:2]1[C:3]([H:10])([H:11])[C@:4]1([C:5](=[O:6])[H:13])[H:12])([H:7])([H:8])[H:9]>>[C:1]1([H:7])([H:8])[N:2]2[C:3]([H:10])([H:11])[C@@:4]2([H:12])[C:5]([H:9])([H:13])[O:6]1"
C        1.45098567       0.11189345      -0.55006428
N        0.69511009       0.65302983       0.37472689
C       -0.52436497       1.40741343       0.26460357
C       -0.49797257       0.00096171       0.79272658
C       -0.71800130      -1.25287545      -0.11287693
O        0.01394012      -2.24026471       0.25838006
H        1.84524566      -0.87822550      -0.32286889
H        1.90717404       0.75349825      -1.29719868
H       -0.22104336      -0.76162573      -1.16517166
H       -0.61730725       2.23469884       0.95630912
H       -0.88270311       1.55854859      -0.74938097
H       -0.65495978      -0.14728476       1.85447691
H       -1.79610325      -1.43976797      -0.30366170
13
Frame=3 idx=006007 GeodesicLength=0.2983696052921667 rxn_smarts="[C:1]([N:2]1[C:3]([H:10])([H:11])[C@:4]1([C:5](=[O:6])[H:13])[H:12])([H:7])([H:8])[H:9]>>[C:1]1([H:7])([H:8])[N:2]2[C:3]([H:10])([H:11])[C@@:4]2([H:12])[C:5]([H:9])([H:13])[O:6]1"
C        1.44495333       0.09480088      -0.55843160
N        0.68760499       0.65885831       0.36029482
C       -0.53250514       1.41039210       0.27231325
C       -0.50228363       0.00182506       0.78794706
C       -0.73017935      -1.24582084      -0.11467481
O        0.01058210      -2.23039281       0.25033797
H        1.89179003      -0.85779787      -0.27491591
H        1.89737717       0.72257959      -1.31970345
H       -0.19883388      -0.77167066      -1.19039806
H       -0.61180214       2.23039228       0.97477123
H       -0.90259545       1.56989787      -0.73593579
H       -0.64671840      -0.14890518       1.85146320
H       -1.80738964      -1.43415875      -0.30306791
13
Frame=4 idx=006007 GeodesicLength=0.3978172318819721 rxn_smarts="[C:1]([N:2]1[C:3]([H:10])([H:11])[C@:4]1([C:5](=[O:6])[H:13])[H:12])([H:7])([H:8])[H:9]>>[C:1]1([H:7])([H:8])[N:2]2[C:3]([H:10])([H:11])[C@@:4]2([H:12])[C:5]([H:9])([H:13])[O:6]1"
C        1.43952763       0.07651274      -0.56552390
N        0.67983683       0.66437272       0.34543914
C       -0.54045156       1.41321445       0.27993797
C       -0.50678964       0.00263146       0.78312878
C       -0.74277331      -1.23887100      -0.11642864
O        0.00726640      -2.22045371       0.24167183
H        1.93707924      -0.83279452      -0.22878017
H        1.88817298       0.69008680      -1.34079752
H       -0.17651058      -0.78218959      -1.21572963
H       -0.60560923       2.22583246       0.99280710
H       -0.92210271       1.58112064      -0.72241094
H       -0.63844806      -0.15060980       1.84828482
H       -1.81919799      -1.42885264      -0.30159884
13
Frame=5 idx=006007 GeodesicLength=0.49718176804606407 rxn_smarts="[C:1]([N:2]1[C:3]([H:10])([H:11])[C@:4]1([C:5](=[O:6])[H:13])[H:12])([H:7])([H:8])[H:9]>>[C:1]1([H:7])([H:8])[N:2]2[C:3]([H:10])([H:11])[C@@:4]2([H:12])[C:5]([H:9])([H:13])[O:6]1"
C        1.43468829       0.05710741      -0.57129088
N        0.67178599       0.66957244       0.33010704
C       -0.54818762       1.41585567       0.28750334
C       -0.51145006       0.00337345       0.77825985
C       -0.75578920      -1.23202239      -0.11813680
O        0.00374482      -2.21050960       0.23251014
H        1.98107865      -0.80324333      -0.18461912
H        1.87952470       0.65609685      -1.36038755
H       -0.15384976      -0.79326615      -1.24115214
H       -0.59865819       2.22097921       1.01043692
H       -0.94131364       1.59217627      -0.70872886
H       -0.63006288      -0.15238211       1.84490595
H       -1.83151110      -1.42373772      -0.29940790
13
Frame=6 idx=006007 GeodesicLength=0.596581199909414 rxn_smarts="[C:1]([N:2]1[C:3]([H:10])([H:11])[C@:4]1([C:5](=[O:6])[H:13])[H:12])([H:7])([H:8])[H:9]>>[C:1]1([H:7])([H:8])[N:2]2[C:3]([H:10])([H:11])[C@@:4]2([H:12])[C:5]([H:9])([H:13])[O:6]1"
C        1.43049498       0.03665323      -0.57567339
N        0.66344801       0.67443123       0.31430415
C       -0.55572644       1.41834211       0.29504522
C       -0.51628353       0.00403349       0.77338588
C       -0.76924072      -1.22527271      -0.11976915
O       -0.00018989      -2.20068858       0.22303290
H        2.02386272      -0.76924477      -0.14279773
H        1.87143038       0.62069271      -1.37848514
H       -0.13053230      -0.80500704      -1.26664639
H       -0.59097195       2.21585236       1.02769813
H       -0.96029489       1.60312364      -0.69484923
H       -0.62164754      -0.15424469       1.84138864
H       -1.84434882      -1.41867098      -0.29663388
13
Frame=7 idx=006007 GeodesicLength=0.6959000096248832 rxn_smarts="[C:1]([N:2]1[C:3]([H:10])([H:11])[C@:4]1([C:5](=[O:6])[H:13])[H:12])([H:7])([H:8])[H:9]>>[C:1]1([H:7])([H:8])[N:2]2[C:3]([H:10])([H:11])[C@@:4]2([H:12])[C:5]([H:9])([H:13])[O:6]1"
C        1.42692869       0.01521922      -0.57856306
N        0.65480248       0.67892794       0.29802026
C       -0.56303160       1.42064493       0.30259103
C       -0.52127003       0.00460623       0.76850610
C       -0.78314028      -1.21859730      -0.12132474
O       -0.00474997      -2.19103118       0.21334355
H        2.06540270      -0.73077101      -0.10360332
H        1.86378599       0.58392189      -1.39499681
H       -0.10628481      -0.81754513      -1.29213799
H       -0.58247718       2.21040874       1.04459760
H       -0.97907126       1.61392170      -0.68069655
H       -0.61319829      -0.15618019       1.83770265
H       -1.85769644      -1.41352584      -0.29343872
13
Frame=8 idx=006007 GeodesicLength=0.7952884698156377 rxn_smarts="[C:1]([N:2]1[C:3]([H:10])([H:11])[C@:4]1([C:5](=[O:6])[H:13])[H:12])([H:7])([H:8])[H:9]>>[C:1]1([H:7])([H:8])[N:2]2[C:3]([H:10])([H:11])[C@@:4]2([H:12])[C:5]([H:9])([H:13])[O:6]1"
C        1.42407929      -0.00715318      -0.57988745
N        0.64584468       0.68303900       0.28122271
C       -0.57013176       1.42279198       0.31017301
C       -0.52643768       0.00507346       0.76366780
C       -0.79753361      -1.21197597      -0.12279163
O       -0.01009981      -2.18165116       0.20355153
H        2.10577158      -0.68784446      -0.06732893
H        1.85662520       0.54581314      -1.40993678
H       -0.08079039      -0.83099699      -1.31759793
H       -0.57318130       2.20465424       1.06117890
H       -0.99775051       1.62464803      -0.66623569
H       -0.60475941      -0.15824211       1.83393247
H       -1.87163629      -1.40815596      -0.28994802
13
Frame=9 idx=006007 GeodesicLength=0.8944729951094422 rxn_smarts="[C:1]([N:2]1[C:3]([H:10])([H:11])[C@:4]1([C:5](=[O:6])[H:13])[H:12])([H:7])([H:8])[H:9]>>[C:1]1([H:7])([H:8])[N:2]2[C:3]([H:10])([H:11])[C@@:4]2([H:12])[C:5]([H:9])([H:13])[O:6]1"
C        1.42181819      -0.03043112      -0.57949950
N        0.63645619       0.68677694       0.26377552
C       -0.57695500       1.42474254       0.31782558
C       -0.53171895       0.00544889       0.75878863
C       -0.81240353      -1.20539051      -0.12421228
O       -0.01644358      -2.17254838       0.19357152
H        2.14464076      -0.64025505      -0.03403409
H        1.84980878       0.50629621      -1.42307862
H       -0.05379779      -0.84550904      -1.34290261
H       -0.56287310       2.19853451       1.07743192
H       -1.01634759       1.63521787      -0.65127402
H       -0.59613033      -0.16038701       1.82988953
H       -1.88605405      -1.40249585      -0.28628158
13
Frame=10 idx=006007 GeodesicLength=0.9937181012928414 rxn_smarts="[C:1]([N:2]1[C:3]([H:10])([H:11])[C@:4]1([C:5](=[O:6])[H:13])[H:12])([H:7])([H:8])[H:9]>>[C:1]1([H:7])([H:8])[N:2]2[C:3]([H:10])([H:11])[C@@:4]2([H:12])[C:5]([H:9])([H:13])[O:6]1"
C        1.42032760      -0.05454974      -0.57726697
N        0.62669298       0.69006408       0.24576298
C       -0.58352571       1.42653427       0.32557717
C       -0.53720716       0.00570363       0.75397706
C       -0.82782302      -1.19881039      -0.12554671
O       -0.02386537      -2.16383440       0.18358613
H        2.18215808      -0.58809226      -0.00436873
H        1.84336707       0.46546933      -1.43447544
H       -0.02490859      -0.86123017      -1.36796451
H       -0.55161845       2.19205753       1.09339730
H       -1.03489931       1.64576437      -0.63585775
H       -0.58758360      -0.16269170       1.82576759
H       -1.90111452      -1.39638455      -0.28258814
13
Frame=11 idx=006007 GeodesicLength=1.0928675699975232 rxn_smarts="[C:1]([N:2]1[C:3]([H:10])([H:11])[C@:4]1([C:5](=[O:6])[H:13])[H:12])([H:7])([H:8])[H:9]>>[C:1]1([H:7])([H:8])[N:2]2[C:3]([H:10])([H:11])[C@@:4]2([H:12])[C:5]([H:9])([H:13])[O:6]1"
C        1.41957480      -0.07943461      -0.57297932
N        0.61647852       0.69289225       0.22712935
C       -0.58978792       1.42816205       0.33346499
C       -0.54289044       0.00584841       0.74920368
C       -0.84378776      -1.19220538      -0.12682834
O       -0.03248138      -2.15551382       0.17355990
H        2.21801293      -0.53129564       0.02127147
H        1.83717494       0.42330420      -1.44392294
H        0.00623541      -0.87835334      -1.39259077
H       -0.53928025       2.18519918       1.10907475
H       -1.05340026       1.65628319      -0.61985010
H       -0.57908659      -0.16514437       1.82148284
H       -1.91676200      -1.38974212      -0.27901552
13
Frame=12 idx=006007 GeodesicLength=1.192165816853669 rxn_smarts="[C:1]([N:2]1[C:3]([H:10])([H:11])[C@:4]1([C:5](=[O:6])[H:13])[H:12])([H:7])([H:8])[H:9]>>[C:1]1([H:7])([H:8])[N:2]2[C:3]([H:10])([H:11])[C@@:4]2([H:12])[C:5]([H:9])([H:13])[O:6]1"
C        1.41972262      -0.10499360      -0.56647559
N        0.60580107       0.69523523       0.20785703
C       -0.59578466       1.42965377       0.34154427
C       -0.54884190       0.00590079       0.74453803
C       -0.86035663      -1.18552353      -0.12807721
O       -0.04232093      -2.14759437       0.16352319
H        2.25209087      -0.47001575       0.04233393
H        1.83132167       0.37981045      -1.45137951
H        0.04008291      -0.89707537      -1.41667653
H       -0.52585681       2.17795739       1.12454820
H       -1.07198474       1.66684403      -0.60321023
H       -0.57074081      -0.16775053       1.81718107
H       -1.93313265      -1.38244851      -0.27570664
13
Frame=13 idx=006007 GeodesicLength=1.2911163159591037 rxn_smarts="[C:1]([N:2]1[C:3]([H:10])([H:11])[C@:4]1([C:5](=[O:6])[H:13])[H:12])([H:7])([H:8])[H:9]>>[C:1]1([H:7])([H:8])[N:2]2[C:3]([H:10])([H:11])[C@@:4]2([H:12])[C:5]([H:9])([H:13])[O:6]1"
C        1.42053409      -0.13105781      -0.55750288
N        0.59439792       0.69713438       0.18761609
C       -0.60138521       1.43101328       0.34980477
C       -0.55495851       0.00584738       0.73978199
C       -0.87741674      -1.17875270      -0.12932634
O       -0.05347388      -2.14006515       0.15327825
H        2.28331576      -0.40427780       0.05869511
H        1.82568897       0.33501928      -1.45640186
H        0.07700181      -0.91750358      -1.43978260
H       -0.51096078       2.17024545       1.13965434
H       -1.09061880       1.67751306      -0.58559723
H       -0.56221565      -0.17060133       1.81242522
H       -1.94990897      -1.37451447      -0.27264487
13
Frame=14 idx=006007 GeodesicLength=1.3902867629697246 rxn_smarts="[C:1]([N:2]1[C:3]([H:10])([H:11])[C@:4]1([C:5](=[O:6])[H:13])[H:12])([H:7])([H:8])[H:9]>>[C:1]1([H:7])([H:8])[N:2]2[C:3]([H:10])([H:11])[C@@:4]2([H:12])[C:5]([H:9])([H:13])[O:6]1"
C        1.42234428      -0.15734746      -0.54599547
N        0.58243429       0.69853772       0.16668690
C       -0.60667452       1.43228638       0.35832096
C       -0.56142939       0.00574757       0.73517268
C       -0.89508249      -1.17185135      -0.13054760
O       -0.06576115      -2.13285717       0.14296688
H        2.31182095      -0.33488197       0.06931026
H        1.82049393       0.28925681      -1.45912624
H        0.11751730      -0.93988744      -1.46184306
H       -0.49483323       2.16212847       1.15457561
H       -1.10937783       1.68834674      -0.56718912
H       -0.55402393      -0.17358895       1.80770898
H       -1.96742820      -1.36588936      -0.27004079
13
Frame=15 idx=006007 GeodesicLength=1.4893302477085413 rxn_smarts="[C:1]([N:2]1[C:3]([H:10])([H:11])[C@:4]1([C:5](=[O:6])[H:13])[H:12])([H:7])([H:8])[H:9]>>[C:1]1([H:7])([H:8])[N:2]2[C:3]([H:10])([H:11])[C@@:4]2([H:12])[C:5]([H:9])([H:13])[O:6]1"
C        1.42494793      -0.18348361      -0.53180951
N        0.56972254       0.69951228       0.14490601
C       -0.61156149       1.43351596       0.36708353
C       -0.56820217       0.00563718       0.73058614
C       -0.91321304      -1.16479624      -0.13175326
O       -0.07905530      -2.12586684       0.13241835
H        2.33658479      -0.26268445       0.07379892
H        1.81564741       0.24287755      -1.45917355
H        0.16207126      -0.96437638      -1.48235498
H       -0.47727473       2.15359581       1.16916277
H       -1.12823139       1.69942169      -0.54773241
H       -0.54604019      -0.17671999       1.80275172
H       -1.98539562      -1.35663297      -0.26788374
13
Frame=16 idx=006007 GeodesicLength=1.5882070198652307 rxn_smarts="[C:1]([N:2]1[C:3]([H:10])([H:11])[C@:4]1([C:5](=[O:6])[H:13])[H:12])([H:7])([H:8])[H:9]>>[C:1]1([H:7])([H:8])[N:2]2[C:3]([H:10])([H:11])[C@@:4]2([H:12])[C:5]([H:9])([H:13])[O:6]1"
C        1.42818791      -0.20902368      -0.51497596
N        0.55610069       0.70010101       0.12215252
C       -0.61605144       1.43475046       0.37606324
C       -0.57526156       0.00556843       0.72596421
C       -0.93167393      -1.15751655      -0.13291347
O       -0.09305093      -2.11892245       0.12149456
H        2.35679199      -0.18906268       0.07192132
H        1.81118420       0.19642298      -1.45634728
H        0.21108042      -0.99104376      -1.50087409
H       -0.45823305       2.14462080       1.18326420
H       -1.14728563       1.71085534      -0.52707255
H       -0.53819036      -0.18000228       1.79742689
H       -2.00359834      -1.34674761      -0.26610359
