12
Frame=0 idx=008978 GeodesicLength=0.0 rxn_smarts="[N:1]([c:2]1[c:3]([H:10])[n:4][c:5]([H:11])[n:6][c:7]1[H:12])([H:8])[H:9]>>[N+:1]1([H:8])([H:9])[C-:2]2[C:3]([H:10])=[N:4][C:5]1([H:11])[N:6]=[C:7]2[H:12]"
N       -0.98398037      -0.04364115       0.74380062
C       -0.87738935       0.10121786      -0.68859659
C        0.09877109       1.27351784      -0.69788959
N        1.12118863       1.13005506       0.06359000
C        1.04442183      -0.10745883       0.70998095
N        1.04253247      -1.19070487      -0.17483042
C        0.01807555      -1.10654654      -0.94245250
H       -1.36865131       0.75797136       1.23197292
H       -1.41822244      -0.90399791       1.06065304
H       -0.02160861       2.17568246      -1.28829834
H        1.50749862      -0.22306288       1.68121855
H       -0.16263606      -1.86303245      -1.69914868
12
Frame=1 idx=008978 GeodesicLength=0.040092613555654306 rxn_smarts="[N:1]([c:2]1[c:3]([H:10])[n:4][c:5]([H:11])[n:6][c:7]1[H:12])([H:8])[H:9]>>[N+:1]1([H:8])([H:9])[C-:2]2[C:3]([H:10])=[N:4][C:5]1([H:11])[N:6]=[C:7]2[H:12]"
N       -0.99149553      -0.04300950       0.74048842
C       -0.86687417       0.10131699      -0.69336336
C        0.10521670       1.27139692      -0.69969750
N        1.12817967       1.13119080       0.06389255
C        1.05053574      -0.10764236       0.70932702
N        1.04941493      -1.19240675      -0.17478511
C        0.02463929      -1.10468322      -0.94379957
H       -1.38459786       0.75998279       1.21914633
H       -1.43430475      -0.90214426       1.04797915
H       -0.03519549       2.18731804      -1.26387373
H        1.53127752      -0.22301067       1.67224516
H       -0.17679606      -1.87830879      -1.67755935
12
Frame=2 idx=008978 GeodesicLength=0.08012048553206971 rxn_smarts="[N:1]([c:2]1[c:3]([H:10])[n:4][c:5]([H:11])[n:6][c:7]1[H:12])([H:8])[H:9]>>[N+:1]1([H:8])([H:9])[C-:2]2[C:3]([H:10])=[N:4][C:5]1([H:11])[N:6]=[C:7]2[H:12]"
N       -0.99920479      -0.04238203       0.73728340
C       -0.85648845       0.10138383      -0.69780750
C        0.11146784       1.26934764      -0.70132541
N        1.13508812       1.13229482       0.06421339
C        1.05667674      -0.10783207       0.70876034
N        1.05621048      -1.19407195      -0.17471076
C        0.03099428      -1.10291779      -0.94497614
H       -1.40069614       0.76194412       1.20620095
H       -1.45055049      -0.90020381       1.03519582
H       -0.04843395       2.19756565      -1.23969065
H        1.55544194      -0.22291691       1.66281044
H       -0.19050557      -1.89221151      -1.65595388
12
Frame=3 idx=008978 GeodesicLength=0.12002841080071992 rxn_smarts="[N:1]([c:2]1[c:3]([H:10])[n:4][c:5]([H:11])[n:6][c:7]1[H:12])([H:8])[H:9]>>[N+:1]1([H:8])([H:9])[C-:2]2[C:3]([H:10])=[N:4][C:5]1([H:11])[N:6]=[C:7]2[H:12]"
N       -1.00709787      -0.04175800       0.73418536
C       -0.84622876       0.10142167      -0.70190472
C        0.11750650       1.26737100      -0.70274021
N        1.14189252       1.13337196       0.06456070
C        1.06283396      -0.10802826       0.70827520
N        1.06290924      -1.19570130      -0.17460703
C        0.03713329      -1.10124370      -0.94595631
H       -1.41693191       0.76385316       1.19313273
H       -1.46693198      -0.89817657       1.02229996
H       -0.06128153       2.20648638      -1.21575601
H        1.57993909      -0.22277877       1.65285347
H       -0.20374254      -1.90481757      -1.63434315
12
Frame=4 idx=008978 GeodesicLength=0.15990733505586022 rxn_smarts="[N:1]([c:2]1[c:3]([H:10])[n:4][c:5]([H:11])[n:6][c:7]1[H:12])([H:8])[H:9]>>[N+:1]1([H:8])([H:9])[C-:2]2[C:3]([H:10])=[N:4][C:5]1([H:11])[N:6]=[C:7]2[H:12]"
N       -1.01520649      -0.04114404       0.73126493
C       -0.83614966       0.10142845      -0.70561683
C        0.12329743       1.26545927      -0.70391106
N        1.14860176       1.13441974       0.06495079
C        1.06903055      -0.10823582       0.70790509
N        1.06952060      -1.19729736      -0.17445888
C        0.04302325      -1.09965742      -0.94671027
H       -1.43332055       0.76570162       1.18003161
H       -1.48346531      -0.89607140       1.00937886
H       -0.07366379       2.21410507      -1.19230308
H        1.60476491      -0.22260176       1.64242333
H       -0.21643271      -1.91610635      -1.61295450
12
Frame=5 idx=008978 GeodesicLength=0.1997276137646044 rxn_smarts="[N:1]([c:2]1[c:3]([H:10])[n:4][c:5]([H:11])[n:6][c:7]1[H:12])([H:8])[H:9]>>[N+:1]1([H:8])([H:9])[C-:2]2[C:3]([H:10])=[N:4][C:5]1([H:11])[N:6]=[C:7]2[H:12]"
N       -1.02353162      -0.04054447       0.72855415
C       -0.82627246       0.10140191      -0.70890776
C        0.12881942       1.26360354      -0.70480580
N        1.15520654       1.13544094       0.06539439
C        1.07527129      -0.10845522       0.70765495
N        1.07603593      -1.19886224      -0.17425869
C        0.04864487      -1.09815235      -0.94720768
H       -1.44983397       0.76748392       1.16694551
H       -1.50012228      -0.89389745       0.99647744
H       -0.08553089       2.22047793      -1.16946066
H        1.62984788      -0.22238505       1.63153217
H       -0.22853471      -1.92611147      -1.59191803
12
Frame=6 idx=008978 GeodesicLength=0.23946466463640662 rxn_smarts="[N:1]([c:2]1[c:3]([H:10])[n:4][c:5]([H:11])[n:6][c:7]1[H:12])([H:8])[H:9]>>[N+:1]1([H:8])([H:9])[C-:2]2[C:3]([H:10])=[N:4][C:5]1([H:11])[N:6]=[C:7]2[H:12]"
N       -1.03207030      -0.03996256       0.72607061
C       -0.81660755       0.10133918      -0.71175749
C        0.13406527       1.26179275      -0.70540783
N        1.16170586       1.13643936       0.06589700
C        1.08156683      -0.10868513       0.70752418
N        1.08245568      -1.20039966      -0.17400259
C        0.05399404      -1.09672268      -0.94743125
H       -1.46644361       0.76919752       1.15390722
H       -1.51687240      -0.89166319       0.98362797
H       -0.09686165       2.22569464      -1.14730516
H        1.65510863      -0.22212743       1.62020058
H       -0.24004079      -1.93490280      -1.57132326
12
Frame=7 idx=008978 GeodesicLength=0.2791093977731594 rxn_smarts="[N:1]([c:2]1[c:3]([H:10])[n:4][c:5]([H:11])[n:6][c:7]1[H:12])([H:8])[H:9]>>[N+:1]1([H:8])([H:9])[C-:2]2[C:3]([H:10])=[N:4][C:5]1([H:11])[N:6]=[C:7]2[H:12]"
N       -1.04081861      -0.03940049       0.72381850
C       -0.80715972       0.10124207      -0.71416224
C        0.13904640       1.26002311      -0.70571632
N        1.16811504       1.13741781       0.06645685
C        1.08793339      -0.10893491       0.70750656
N        1.08878060      -1.20191227      -0.17369478
C        0.05906670      -1.09535342      -0.94738203
H       -1.48311335       0.77083892       1.14094193
H       -1.53369277      -0.88937595       0.97084809
H       -0.10767197       2.22985161      -1.12587155
H        1.68046122      -0.22183189       1.60845521
H       -0.25094693      -1.94256459      -1.55120021
12
Frame=8 idx=008978 GeodesicLength=0.3186118617329696 rxn_smarts="[N:1]([c:2]1[c:3]([H:10])[n:4][c:5]([H:11])[n:6][c:7]1[H:12])([H:8])[H:9]>>[N+:1]1([H:8])([H:9])[C-:2]2[C:3]([H:10])=[N:4][C:5]1([H:11])[N:6]=[C:7]2[H:12]"
N       -1.04975878      -0.03885210       0.72179563
C       -0.79788960       0.10110667      -0.71611745
C        0.14377926       1.25827151      -0.70572526
N        1.17442239       1.13837757       0.06706446
C        1.09438093      -0.10918572       0.70756412
N        1.09502541      -1.20340668      -0.17333957
C        0.06390766      -1.09404962      -0.94704265
H       -1.49981267       0.77241957       1.12806111
H       -1.55052899      -0.88703810       0.95816685
H       -0.11798866       2.23303955      -1.10515600
H        1.70578280      -0.22149559       1.59634276
H       -0.26131975      -1.94918706      -1.53161401
12
Frame=9 idx=008978 GeodesicLength=0.3580494358684816 rxn_smarts="[N:1]([c:2]1[c:3]([H:10])[n:4][c:5]([H:11])[n:6][c:7]1[H:12])([H:8])[H:9]>>[N+:1]1([H:8])([H:9])[C-:2]2[C:3]([H:10])=[N:4][C:5]1([H:11])[N:6]=[C:7]2[H:12]"
N       -1.05890663      -0.03832076       0.71996893
C       -0.78882658       0.10093768      -0.71766430
C        0.14827258       1.25654506      -0.70547334
N        1.18066712       1.13932566       0.06772035
C        1.10093545      -0.10945217       0.70772147
N        1.10121202      -1.20488540      -0.17294338
C        0.06850870      -1.09279491      -0.94645860
H       -1.51655479       0.77393465       1.11523242
H       -1.56740847      -0.88464950       0.94553751
H       -0.12783551       2.23541666      -1.08504557
H        1.73111373      -0.22112100       1.58384395
H       -0.27117761      -1.95493596      -1.51243942
12
Frame=10 idx=008978 GeodesicLength=0.39738673997777707 rxn_smarts="[N:1]([c:2]1[c:3]([H:10])[n:4][c:5]([H:11])[n:6][c:7]1[H:12])([H:8])[H:9]>>[N+:1]1([H:8])([H:9])[C-:2]2[C:3]([H:10])=[N:4][C:5]1([H:11])[N:6]=[C:7]2[H:12]"
N       -1.06824467      -0.03780756       0.71833037
C       -0.77992630       0.10073122      -0.71879871
C        0.15256386       1.25483076      -0.70494813
N        1.18685716       1.14026109       0.06842502
C        1.10759742      -0.10972892       0.70796122
N        1.10734323      -1.20634944      -0.17249938
C        0.07290619      -1.09158603      -0.94561307
H       -1.53333281       0.77538339       1.10242104
H       -1.58433061      -0.88220533       0.93292816
H       -0.13727511       2.23709842      -1.06549788
H        1.75643284      -0.22070409       1.57095608
H       -0.28059120      -1.95992351      -1.49366472
12
Frame=11 idx=008978 GeodesicLength=0.43664559337536724 rxn_smarts="[N:1]([c:2]1[c:3]([H:10])[n:4][c:5]([H:11])[n:6][c:7]1[H:12])([H:8])[H:9]>>[N+:1]1([H:8])([H:9])[C-:2]2[C:3]([H:10])=[N:4][C:5]1([H:11])[N:6]=[C:7]2[H:12]"
N       -1.07777547      -0.03729863       0.71685021
C       -0.77119128       0.10049610      -0.71955206
C        0.15665958       1.25313131      -0.70417891
N        1.19300697       1.14118603       0.06916319
C        1.11439119      -0.11001973       0.70826411
N        1.11343721      -1.20780669      -0.17202972
C        0.07710637      -1.09041903      -0.94453717
H       -1.55012908       0.77677638       1.08962949
H       -1.60125983      -0.87970608       0.92034415
H       -0.14633254       2.23812406      -1.04643137
H        1.78166498      -0.22024427       1.55771288
H       -0.28957810      -1.96421945      -1.47523480
12
Frame=12 idx=008978 GeodesicLength=0.47583116038542655 rxn_smarts="[N:1]([c:2]1[c:3]([H:10])[n:4][c:5]([H:11])[n:6][c:7]1[H:12])([H:8])[H:9]>>[N+:1]1([H:8])([H:9])[C-:2]2[C:3]([H:10])=[N:4][C:5]1([H:11])[N:6]=[C:7]2[H:12]"
N       -1.08749461      -0.03680369       0.71551692
C       -0.76260323       0.10022706      -0.71993266
C        0.16057654       1.25143868      -0.70317647
N        1.19912502       1.14210652       0.06992916
C        1.12132645      -0.11031548       0.70862405
N        1.11951073      -1.20925442      -0.17153311
C        0.08113663      -1.08929200      -0.94323321
H       -1.56694513       0.77811210       1.07682925
H       -1.61820279      -0.87715137       0.90776294
H       -0.15503682       2.23859771      -1.02779251
H        1.80680225      -0.21974978       1.54411423
H       -0.29819504      -1.96791532      -1.45710859
12
Frame=13 idx=008978 GeodesicLength=0.514951487733752 rxn_smarts="[N:1]([c:2]1[c:3]([H:10])[n:4][c:5]([H:11])[n:6][c:7]1[H:12])([H:8])[H:9]>>[N+:1]1([H:8])([H:9])[C-:2]2[C:3]([H:10])=[N:4][C:5]1([H:11])[N:6]=[C:7]2[H:12]"
N       -1.09739889      -0.03631828       0.71431252
C       -0.75414089       0.09992624      -0.71995098
C        0.16434171       1.24974948      -0.70194163
N        1.20522877       1.14301591       0.07071650
C        1.12841079      -0.11062581       0.70902402
N        1.12556475      -1.21069454      -0.17101872
C        0.08500948      -1.08819667      -0.94170916
H       -1.58377253       0.77938688       1.06399698
H       -1.63517453      -0.87453353       0.89513903
H       -0.16343942       2.23857761      -1.00951105
H        1.83184473      -0.21920525       1.53016116
H       -0.30647400      -1.97108204      -1.43921868
12
Frame=14 idx=008978 GeodesicLength=0.5540040752191495 rxn_smarts="[N:1]([c:2]1[c:3]([H:10])[n:4][c:5]([H:11])[n:6][c:7]1[H:12])([H:8])[H:9]>>[N+:1]1([H:8])([H:9])[C-:2]2[C:3]([H:10])=[N:4][C:5]1([H:11])[N:6]=[C:7]2[H:12]"
N       -1.10749228      -0.03584155       0.71322384
C       -0.74581002       0.09959319      -0.71961634
C        0.16795167       1.24806334      -0.70048859
N        1.21132039       1.14392466       0.07152135
C        1.13565715      -0.11094165       0.70946091
N        1.13161177      -1.21213210      -0.17048594
C        0.08873357      -1.08713483      -0.93997323
H       -1.60059974       0.78061061       1.05113890
H       -1.65214572      -0.87185986       0.88249576
H       -0.17153774       2.23810096      -0.99157156
H        1.85674114      -0.21862106       1.51587027
H       -0.31443017      -1.97376170      -1.42157537
12
Frame=15 idx=008978 GeodesicLength=0.5930019517192758 rxn_smarts="[N:1]([c:2]1[c:3]([H:10])[n:4][c:5]([H:11])[n:6][c:7]1[H:12])([H:8])[H:9]>>[N+:1]1([H:8])([H:9])[C-:2]2[C:3]([H:10])=[N:4][C:5]1([H:11])[N:6]=[C:7]2[H:12]"
N       -1.11777284      -0.03536936       0.71223977
C       -0.73759660       0.09922896      -0.71893677
C        0.17142277       1.24637769      -0.69882219
N        1.21741263       1.14483043       0.07233503
C        1.14307691      -0.11126683       0.70991852
N        1.13765994      -1.21357009      -0.16994632
C        0.09232116      -1.08610414      -0.93803357
H       -1.61743139       0.78178514       1.03822903
H       -1.66912109      -0.86912437       0.86980438
H       -0.17937193       2.23722062      -0.97391743
H        1.88149678      -0.21799494       1.50126003
H       -0.32209636      -1.97601310      -1.40413048
12
Frame=16 idx=008978 GeodesicLength=0.6319594957387679 rxn_smarts="[N:1]([c:2]1[c:3]([H:10])[n:4][c:5]([H:11])[n:6][c:7]1[H:12])([H:8])[H:9]>>[N+:1]1([H:8])([H:9])[C-:2]2[C:3]([H:10])=[N:4][C:5]1([H:11])[N:6]=[C:7]2[H:12]"
N       -1.12824608      -0.03489984       0.71133656
C       -0.72948797       0.09883389      -0.71792581
C        0.17476829       1.24469089      -0.69694946
N        1.22351286       1.14573368       0.07315621
C        1.15067547      -0.11160070       0.71039315
N        1.14371857      -1.21500713      -0.16940236
C        0.09578529      -1.08510379      -0.93589515
H       -1.63427700       0.78291057       1.02523489
H       -1.68611203      -0.86632006       0.85703162
H       -0.18696546       2.23598014      -0.95646972
H        1.90612798      -0.21732634       1.48630267
H       -0.32949990      -1.97789132      -1.38681262
