14
Frame=0 idx=011209 GeodesicLength=0.0 rxn_smarts="[N:1]#[C:2][C:3]1([H:8])[C:4]([H:9])([H:10])[C:5]([H:11])=[C:6]([H:12])[C:7]1([H:13])[H:14]>>[C:3]1([H:8])=[C:4]([H:10])[C:5]([H:11])=[C:6]([H:12])[C:7]1([H:13])[H:14].[N:1](=[C:2])[H:9]"
N        0.54957968       2.30513001      -1.70523520
C       -0.37578448       2.28292876      -0.99719595
C       -0.18123139       0.52938545       0.85777946
C        1.08746970       0.09612622       0.42618060
C        0.87620880      -1.19643454      -0.28329988
C       -0.42428803      -1.47192544      -0.33219111
C       -1.20642005      -0.42945427       0.41399249
H       -0.38194965       1.40274392       1.45982302
H        0.93443022       0.94925207      -0.40056277
H        2.00370377       0.38989261       0.92672461
H        1.67496694      -1.76113829      -0.74031445
H       -0.88522391      -2.31186288      -0.83047577
H       -2.01803212       0.05263159      -0.13187435
H       -1.65342948      -0.83727526       1.33664931
14
Frame=1 idx=011209 GeodesicLength=0.07389923856257252 rxn_smarts="[N:1]#[C:2][C:3]1([H:8])[C:4]([H:9])([H:10])[C:5]([H:11])=[C:6]([H:12])[C:7]1([H:13])[H:14]>>[C:3]1([H:8])=[C:4]([H:10])[C:5]([H:11])=[C:6]([H:12])[C:7]1([H:13])[H:14].[N:1](=[C:2])[H:9]"
N        0.52235558       2.30144610      -1.69895432
C       -0.38674509       2.31160259      -0.97065394
C       -0.17901553       0.53840403       0.84333581
C        1.09133589       0.09847636       0.41621508
C        0.87896078      -1.20379822      -0.27387014
C       -0.42201032      -1.47685169      -0.32514985
C       -1.20597809      -0.42510640       0.40556037
H       -0.36923966       1.38537603       1.48500264
H        0.94568396       0.95349543      -0.43343956
H        2.00560711       0.38571997       0.92425146
H        1.67740323      -1.77810340      -0.71975692
H       -0.88235745      -2.31950072      -0.81967360
H       -2.00905293       0.05192927      -0.15765753
H       -1.66694747      -0.82308935       1.32479049
14
Frame=2 idx=011209 GeodesicLength=0.1475677584332889 rxn_smarts="[N:1]#[C:2][C:3]1([H:8])[C:4]([H:9])([H:10])[C:5]([H:11])=[C:6]([H:12])[C:7]1([H:13])[H:14]>>[C:3]1([H:8])=[C:4]([H:10])[C:5]([H:11])=[C:6]([H:12])[C:7]1([H:13])[H:14].[N:1](=[C:2])[H:9]"
N        0.49504509       2.29786029      -1.69206435
C       -0.39706941       2.33861831      -0.94455966
C       -0.17670557       0.54743298       0.82958024
C        1.09519278       0.10093270       0.40638912
C        0.88158949      -1.21073502      -0.26421507
C       -0.41982961      -1.48142716      -0.31781807
C       -1.20551078      -0.42052612       0.39727860
H       -0.35636353       1.36662046       1.50929053
H        0.95657603       0.95758131      -0.46668033
H        2.00748995       0.38193378       0.92160640
H        1.67958200      -1.79421959      -0.69932410
H       -0.87962056      -2.32660354      -0.80882504
H       -1.99967368       0.05135242      -0.18322490
H       -1.68070220      -0.80882082       1.31256664
14
Frame=3 idx=011209 GeodesicLength=0.22099545013862693 rxn_smarts="[N:1]#[C:2][C:3]1([H:8])[C:4]([H:9])([H:10])[C:5]([H:11])=[C:6]([H:12])[C:7]1([H:13])[H:14]>>[C:3]1([H:8])=[C:4]([H:10])[C:5]([H:11])=[C:6]([H:12])[C:7]1([H:13])[H:14].[N:1](=[C:2])[H:9]"
N        0.46806872       2.29464616      -1.68428405
C       -0.40696106       2.36374320      -0.91922761
C       -0.17431019       0.55645774       0.81653935
C        1.09902606       0.10348051       0.39670133
C        0.88407031      -1.21720456      -0.25444436
C       -0.41777246      -1.48562568      -0.31025126
C       -1.20502607      -0.41575966       0.38921941
H       -0.34339652       1.34670353       1.53247641
H        0.96707622       0.96154107      -0.50026360
H        2.00935274       0.37845433       0.91882200
H        1.68149069      -1.80949039      -0.67907308
H       -0.87703712      -2.33320097      -0.79789775
H       -1.98999525       0.05082234      -0.20838961
H       -1.69458607      -0.79456762       1.30007283
14
Frame=4 idx=011209 GeodesicLength=0.29421233826075466 rxn_smarts="[N:1]#[C:2][C:3]1([H:8])[C:4]([H:9])([H:10])[C:5]([H:11])=[C:6]([H:12])[C:7]1([H:13])[H:14]>>[C:3]1([H:8])=[C:4]([H:10])[C:5]([H:11])=[C:6]([H:12])[C:7]1([H:13])[H:14].[N:1](=[C:2])[H:9]"
N        0.44161820       2.29180285      -1.67558638
C       -0.41653353       2.38700366      -0.89469532
C       -0.17183237       0.56545313       0.80424542
C        1.10282996       0.10610726       0.38715371
C        0.88640149      -1.22319690      -0.24460660
C       -0.41584238      -1.48943622      -0.30248608
C       -1.20452464      -0.41083307       0.38140296
H       -0.33038718       1.32576493       1.55450130
H        0.97714175       0.96539507      -0.53418387
H        2.01120364       0.37524327       0.91590571
H        1.68313707      -1.82392874      -0.65901292
H       -0.87460512      -2.33930974      -0.78688583
H       -1.98004688       0.05031862      -0.23308226
H       -1.70856003      -0.78038412       1.28733014
14
Frame=5 idx=011209 GeodesicLength=0.3672501475859563 rxn_smarts="[N:1]#[C:2][C:3]1([H:8])[C:4]([H:9])([H:10])[C:5]([H:11])=[C:6]([H:12])[C:7]1([H:13])[H:14]>>[C:3]1([H:8])=[C:4]([H:10])[C:5]([H:11])=[C:6]([H:12])[C:7]1([H:13])[H:14].[N:1](=[C:2])[H:9]"
N        0.41587564       2.28933840      -1.66595751
C       -0.42588852       2.40846674      -0.87098706
C       -0.16928202       0.57440078       0.79271547
C        1.10659736       0.10880262       0.37775197
C        0.88858298      -1.22870978      -0.23474778
C       -0.41404035      -1.49285968      -0.29455707
C       -1.20401152      -0.40577243       0.37384993
H       -0.31738141       1.30394502       1.57532019
H        0.98673483       0.96915937      -0.56844483
H        2.01304624       0.37226714       0.91287263
H        1.68453853      -1.83757201      -0.63915758
H       -0.87231828      -2.34496136      -0.77578897
H       -1.96986985       0.04981476      -0.25724192
H       -1.72258363      -0.76631958       1.27437252
14
Frame=6 idx=011209 GeodesicLength=0.4401318828888904 rxn_smarts="[N:1]#[C:2][C:3]1([H:8])[C:4]([H:9])([H:10])[C:5]([H:11])=[C:6]([H:12])[C:7]1([H:13])[H:14]>>[C:3]1([H:8])=[C:4]([H:10])[C:5]([H:11])=[C:6]([H:12])[C:7]1([H:13])[H:14].[N:1](=[C:2])[H:9]"
N        0.39102279       2.28727774      -1.65537734
C       -0.43513960       2.42816817      -0.84814137
C       -0.16666644       0.58328575       0.78195145
C        1.11032180       0.11155240       0.36850080
C        0.89061582      -1.23374595      -0.22491758
C       -0.41236790      -1.49589861      -0.28649576
C       -1.20348850      -0.40060738       0.36657770
H       -0.30442465       1.28139482       1.59491242
H        0.99583493       0.97284669      -0.60305281
H        2.01487904       0.36947820       0.90974867
H        1.68570126      -1.85043397      -0.61952554
H       -0.87017822      -2.35017783      -0.76459777
H       -1.95949947       0.04927981      -0.28081186
H       -1.73661086      -0.75241981       1.26122900
14
Frame=7 idx=011209 GeodesicLength=0.5128853501275843 rxn_smarts="[N:1]#[C:2][C:3]1([H:8])[C:4]([H:9])([H:10])[C:5]([H:11])=[C:6]([H:12])[C:7]1([H:13])[H:14]>>[C:3]1([H:8])=[C:4]([H:10])[C:5]([H:11])=[C:6]([H:12])[C:7]1([H:13])[H:14].[N:1](=[C:2])[H:9]"
N        0.36717981       2.28556627      -1.64391393
C       -0.44436480       2.44622478      -0.82611890
C       -0.16399610       0.59209619       0.77195547
C        1.11399976       0.11434853       0.35941493
C        0.89250745      -1.23831660      -0.21514080
C       -0.41081954      -1.49856177      -0.27833073
C       -1.20295818      -0.39536023       0.35959450
H       -0.29156025       1.25823183       1.61329600
H        1.00442059       0.97646615      -0.63801810
H        2.01670129       0.36684818       0.90656387
H        1.68664319      -1.86254408      -0.60014227
H       -0.86817566      -2.35498170      -0.75332360
H       -1.94896351       0.04870016      -0.30375749
H       -1.75061405      -0.73871772       1.24792106
14
Frame=8 idx=011209 GeodesicLength=0.5855278443451193 rxn_smarts="[N:1]#[C:2][C:3]1([H:8])[C:4]([H:9])([H:10])[C:5]([H:11])=[C:6]([H:12])[C:7]1([H:13])[H:14]>>[C:3]1([H:8])=[C:4]([H:10])[C:5]([H:11])=[C:6]([H:12])[C:7]1([H:13])[H:14].[N:1](=[C:2])[H:9]"
N        0.34449882       2.28423377      -1.63156393
C       -0.45364144       2.46267197      -0.80494870
C       -0.16128345       0.60082709       0.76271148
C        1.11762386       0.11717888       0.35050573
C        0.89426074      -1.24243088      -0.20545793
C       -0.40939460      -1.50086111      -0.27008695
C       -1.20242598      -0.39005729       0.35291579
H       -0.27882969       1.23458958       1.63048000
H        1.01247927       0.98002562      -0.67335680
H        2.01850431       0.36433875       0.90335525
H        1.68737072      -1.87391250      -0.58104059
H       -0.86630987      -2.35940012      -0.74196482
H       -1.93830452       0.04804361      -0.32603799
H       -1.76454816      -0.72524735       1.23448945
14
Frame=9 idx=011209 GeodesicLength=0.65826293385319 rxn_smarts="[N:1]#[C:2][C:3]1([H:8])[C:4]([H:9])([H:10])[C:5]([H:11])=[C:6]([H:12])[C:7]1([H:13])[H:14]>>[C:3]1([H:8])=[C:4]([H:10])[C:5]([H:11])=[C:6]([H:12])[C:7]1([H:13])[H:14].[N:1](=[C:2])[H:9]"
N        0.32301074       2.28330562      -1.61818996
C       -0.46304497       2.47778603      -0.78459283
C       -0.15854233       0.60947204       0.75409211
C        1.12119804       0.12004060       0.34172032
C        0.89589474      -1.24613478      -0.19587806
C       -0.40807286      -1.50286248      -0.26176089
C       -1.20190939      -0.38472058       0.34649543
H       -0.26623834       1.21060739       1.64668657
H        1.02000470       0.98347083      -0.70923557
H        2.02027740       0.36193890       0.90011067
H        1.68793191      -1.88467305      -0.56217677
H       -0.86454901      -2.36354157      -0.73045743
H       -1.92755954       0.04726612      -0.34774985
H       -1.77840111      -0.71195506       1.22093626
14
Frame=10 idx=011209 GeodesicLength=0.7309072779483934 rxn_smarts="[N:1]#[C:2][C:3]1([H:8])[C:4]([H:9])([H:10])[C:5]([H:11])=[C:6]([H:12])[C:7]1([H:13])[H:14]>>[C:3]1([H:8])=[C:4]([H:10])[C:5]([H:11])=[C:6]([H:12])[C:7]1([H:13])[H:14].[N:1](=[C:2])[H:9]"
N        0.30294820       2.28270854      -1.60401754
C       -0.47262004       2.49144663      -0.76507451
C       -0.15579037       0.61802783       0.74619906
C        1.12470383       0.12292203       0.33314633
C        0.89740322      -1.24940408      -0.18643806
C       -0.40686375      -1.50452759      -0.25339290
C       -1.20140325      -0.37937349       0.34040287
H       -0.25385142       1.18635566       1.66175886
H        1.02695160       0.98686271      -0.74552667
H        2.02200900       0.35960568       0.89692014
H        1.68830481      -1.89470389      -0.54368884
H       -0.86290997      -2.36734082      -0.71887789
H       -1.91675574       0.04637542      -0.36874123
H       -1.79212611      -0.69895461       1.20733037
14
Frame=11 idx=011209 GeodesicLength=0.8034753404934544 rxn_smarts="[N:1]#[C:2][C:3]1([H:8])[C:4]([H:9])([H:10])[C:5]([H:11])=[C:6]([H:12])[C:7]1([H:13])[H:14]>>[C:3]1([H:8])=[C:4]([H:10])[C:5]([H:11])=[C:6]([H:12])[C:7]1([H:13])[H:14].[N:1](=[C:2])[H:9]"
N        0.28441304       2.28243302      -1.58906693
C       -0.48240989       2.50375950      -0.74638779
C       -0.15304504       0.62648980       0.73900449
C        1.12813131       0.12581384       0.32479967
C        0.89879549      -1.25225805      -0.17715487
C       -0.40575758      -1.50587981      -0.24499603
C       -1.20091734      -0.37403920       0.33464326
H       -0.24169027       1.16194288       1.67574185
H        1.03329613       0.99019342      -0.78226251
H        2.02368243       0.35731487       0.89382176
H        1.68851383      -1.90402661      -0.52562204
H       -0.86137999      -2.37082851      -0.70722577
H       -1.90593083       0.04535208      -0.38900035
H       -1.80570129      -0.68626724       1.19370526
14
Frame=12 idx=011209 GeodesicLength=0.8759450015256112 rxn_smarts="[N:1]#[C:2][C:3]1([H:8])[C:4]([H:9])([H:10])[C:5]([H:11])=[C:6]([H:12])[C:7]1([H:13])[H:14]>>[C:3]1([H:8])=[C:4]([H:10])[C:5]([H:11])=[C:6]([H:12])[C:7]1([H:13])[H:14].[N:1](=[C:2])[H:9]"
N        0.26752355       2.28249028      -1.57337623
C       -0.49245248       2.51476893      -0.72854484
C       -0.15032363       0.63485877       0.73248082
C        1.13147161       0.12871033       0.31670474
C        0.90007712      -1.25470873      -0.16805229
C       -0.40474953      -1.50693611      -0.23658685
C       -1.20045875      -0.36873956       0.32922846
H       -0.22978650       1.13746890       1.68867090
H        1.03902037       0.99346472      -0.81946092
H        2.02527763       0.35503851       0.89086996
H        1.68857022      -1.91264456      -0.50803206
H       -0.85995336      -2.37402475      -0.69551149
H       -1.89512689       0.04417508      -0.40849797
H       -1.81908936      -0.67392183       1.18010777
14
Frame=13 idx=011209 GeodesicLength=0.9483276577595985 rxn_smarts="[N:1]#[C:2][C:3]1([H:8])[C:4]([H:9])([H:10])[C:5]([H:11])=[C:6]([H:12])[C:7]1([H:13])[H:14]>>[C:3]1([H:8])=[C:4]([H:10])[C:5]([H:11])=[C:6]([H:12])[C:7]1([H:13])[H:14].[N:1](=[C:2])[H:9]"
N        0.25239483       2.28289212      -1.55695725
C       -0.50278971       2.52455016      -0.71155918
C       -0.14764406       0.64313758       0.72659405
C        1.13471812       0.13160402       0.30888534
C        0.90125631      -1.25677391      -0.15914065
C       -0.40383057      -1.50771835      -0.22817466
C       -1.20003667      -0.36349560       0.32416652
H       -0.21816618       1.11303252       1.70059482
H        1.04410047       0.99666629      -0.85716360
H        2.02677529       0.35275299       0.88811611
H        1.68849422      -1.92057264      -0.49098598
H       -0.85861604      -2.37696004      -0.68373835
H       -1.88438674       0.04282414      -0.42722260
H       -1.83226927      -0.66193928       1.16658543
14
Frame=14 idx=011209 GeodesicLength=1.020606607878734 rxn_smarts="[N:1]#[C:2][C:3]1([H:8])[C:4]([H:9])([H:10])[C:5]([H:11])=[C:6]([H:12])[C:7]1([H:13])[H:14]>>[C:3]1([H:8])=[C:4]([H:10])[C:5]([H:11])=[C:6]([H:12])[C:7]1([H:13])[H:14].[N:1](=[C:2])[H:9]"
N        0.23913502       2.28364944      -1.53983148
C       -0.51345907       2.53313524      -0.69545926
C       -0.14502277       0.65133015       0.72131243
C        1.13786802       0.13449321       0.30136671
C        0.90234047      -1.25846898      -0.15043986
C       -0.40299400      -1.50824197      -0.21977371
C       -1.19965613      -0.35832666       0.31947236
H       -0.20685837       1.08872315       1.71156048
H        1.04851872       0.99979627      -0.89540155
H        2.02815751       0.35043354       0.88561965
H        1.68829503      -1.92781632      -0.47453538
H       -0.85736296      -2.37964059      -0.67192941
H       -1.87375227       0.04127983      -0.44514730
H       -1.84520921      -0.65034632       1.15318632
14
Frame=15 idx=011209 GeodesicLength=1.092775303898563 rxn_smarts="[N:1]#[C:2][C:3]1([H:8])[C:4]([H:9])([H:10])[C:5]([H:11])=[C:6]([H:12])[C:7]1([H:13])[H:14]>>[C:3]1([H:8])=[C:4]([H:10])[C:5]([H:11])=[C:6]([H:12])[C:7]1([H:13])[H:14].[N:1](=[C:2])[H:9]"
N        0.22786051       2.28477345      -1.52200992
C       -0.52449646       2.54057695      -0.68027587
C       -0.14247721       0.65944319       0.71660334
C        1.14091870       0.13737515       0.29417789
C        0.90333868      -1.25981083      -0.14195285
C       -0.40223008      -1.50852895      -0.21138959
C       -1.19932569      -0.35325054       0.31515814
H       -0.19589016       1.06463086       1.72162202
H        1.05224655       1.00284558      -0.93421646
H        2.02940443       0.34805750       0.88344223
H        1.68798944      -1.93438428      -0.45876309
H       -0.85618011      -2.38208628      -0.66009965
H       -1.86326734       0.03952280      -0.46225752
H       -1.85789126      -0.63916459       1.13996133
14
Frame=16 idx=011209 GeodesicLength=1.164835671346803 rxn_smarts="[N:1]#[C:2][C:3]1([H:8])[C:4]([H:9])([H:10])[C:5]([H:11])=[C:6]([H:12])[C:7]1([H:13])[H:14]>>[C:3]1([H:8])=[C:4]([H:10])[C:5]([H:11])=[C:6]([H:12])[C:7]1([H:13])[H:14].[N:1](=[C:2])[H:9]"
N        0.21868240       2.28626977      -1.50349095
C       -0.53593070       2.54690004      -0.66605777
C       -0.14002385       0.66748408       0.71243975
C        1.14386998       0.14024780       0.28735292
C        0.90425931      -1.26081274      -0.13368302
C       -0.40153056      -1.50859782      -0.20302674
C       -1.19905192      -0.34828381       0.31123951
H       -0.18528824       1.04084330       1.73082538
H        1.05525044       1.00581119      -0.97365056
H        2.03049820       0.34560133       0.88165124
H        1.68758918      -1.94027746      -0.44375107
H       -0.85505608      -2.38430483      -0.64827841
H       -1.85297349       0.03753589      -0.47853397
H       -1.87029466      -0.62841676       1.12696368
