15
Frame=0 idx=007224 GeodesicLength=0.0 rxn_smarts="[O:1]([C:2]([C@@:3]1([H:11])[C:4]([H:12])([H:13])[C:5]([H:14])([H:15])[C:6]1=[O:7])([H:9])[H:10])[H:8]>>[O:1]([C:2]([C@@:3]1([H:11])[C:4]([H:12])([H:13])[C:5]([H:15])=[C:6]1[O:7][H:14])([H:9])[H:10])[H:8]"
O        2.43948502       0.34847802       0.33446831
C        1.40520595      -0.51650984      -0.09166141
C        0.13150985      -0.08354815       0.58859732
C       -0.57601025       1.22791068       0.10959396
C       -1.81375061       0.39191961      -0.19374958
C       -1.13615105      -0.77735987       0.14977216
O       -1.43095479      -1.95911393      -0.27801844
H        3.25753780       0.08877571      -0.09098254
H        1.61844930      -1.55979745       0.17033238
H        1.27106283      -0.46798503      -1.18148933
H        0.25110098      -0.10162089       1.67395257
H       -0.70355656       1.97962916       0.88826529
H       -0.08745457       1.68262988      -0.75329705
H       -1.76367666      -0.88122858      -1.01848248
H       -2.86279725       0.62782068      -0.30730115
15
Frame=1 idx=007224 GeodesicLength=0.06273945208354122 rxn_smarts="[O:1]([C:2]([C@@:3]1([H:11])[C:4]([H:12])([H:13])[C:5]([H:14])([H:15])[C:6]1=[O:7])([H:9])[H:10])[H:8]>>[O:1]([C:2]([C@@:3]1([H:11])[C:4]([H:12])([H:13])[C:5]([H:15])=[C:6]1[O:7][H:14])([H:9])[H:10])[H:8]"
O        2.44022232       0.35120204       0.33859426
C        1.40822178      -0.51633229      -0.08824795
C        0.13196075      -0.08363268       0.58739768
C       -0.57450461       1.22617418       0.10412340
C       -1.81287202       0.39023027      -0.19920540
C       -1.13361102      -0.77985467       0.14755114
O       -1.42975677      -1.95698142      -0.28847144
H        3.25941162       0.09249901      -0.08527337
H        1.62261788      -1.55858013       0.17704383
H        1.27681420      -0.47058162      -1.17850438
H        0.24897686      -0.10130037       1.67314733
H       -0.70112373       1.98124940       0.87962386
H       -0.08541171       1.67719110      -0.76041270
H       -1.78624728      -0.88140178      -1.03449531
H       -2.86469828       0.63011897      -0.27287094
15
Frame=2 idx=007224 GeodesicLength=0.12542699861270423 rxn_smarts="[O:1]([C:2]([C@@:3]1([H:11])[C:4]([H:12])([H:13])[C:5]([H:14])([H:15])[C:6]1=[O:7])([H:9])[H:10])[H:8]>>[O:1]([C:2]([C@@:3]1([H:11])[C:4]([H:12])([H:13])[C:5]([H:15])=[C:6]1[O:7][H:14])([H:9])[H:10])[H:8]"
O        2.44090239       0.35404851       0.34261266
C        1.41120258      -0.51614393      -0.08473672
C        0.13241866      -0.08373768       0.58635399
C       -0.57308084       1.22431292       0.09871126
C       -1.81218930       0.38836344      -0.20421539
C       -1.13109503      -0.78248308       0.14576802
O       -1.42822770      -1.95456154      -0.29979731
H        3.26120012       0.09635335      -0.07972008
H        1.62682483      -1.55729976       0.18395449
H        1.28242166      -0.47332097      -1.17540180
H        0.24695688      -0.10088790       1.67248369
H       -0.69862618       1.98286283       0.87092384
H       -0.08360474       1.67147970      -0.76761762
H       -1.80984377      -0.88128692      -1.05023556
H       -2.86525955       0.63230102      -0.23908347
15
Frame=3 idx=007224 GeodesicLength=0.1881101690694552 rxn_smarts="[O:1]([C:2]([C@@:3]1([H:11])[C:4]([H:12])([H:13])[C:5]([H:14])([H:15])[C:6]1=[O:7])([H:9])[H:10])[H:8]>>[O:1]([C:2]([C@@:3]1([H:11])[C:4]([H:12])([H:13])[C:5]([H:15])=[C:6]1[O:7][H:14])([H:9])[H:10])[H:8]"
O        2.44153905       0.35701896       0.34652141
C        1.41416189      -0.51594696      -0.08111980
C        0.13289746      -0.08386429       0.58547633
C       -0.57172955       1.22232009       0.09335971
C       -1.81168337       0.38630577      -0.20877473
C       -1.12859149      -0.78525697       0.14445325
O       -1.42634608      -1.95180924      -0.31205338
H        3.26291692       0.10033429      -0.07432193
H        1.63108610      -1.55595541       0.19107663
H        1.28789400      -0.47621247      -1.17217271
H        0.24506087      -0.10037521       1.67197193
H       -0.69606238       1.98446471       0.86216054
H       -0.08202746       1.66548241      -0.77491196
H       -1.83452765      -0.88086311      -1.06567647
H       -2.86458832       0.63435743      -0.20598882
15
Frame=4 idx=007224 GeodesicLength=0.25081328074584536 rxn_smarts="[O:1]([C:2]([C@@:3]1([H:11])[C:4]([H:12])([H:13])[C:5]([H:14])([H:15])[C:6]1=[O:7])([H:9])[H:10])[H:8]>>[O:1]([C:2]([C@@:3]1([H:11])[C:4]([H:12])([H:13])[C:5]([H:15])=[C:6]1[O:7][H:14])([H:9])[H:10])[H:8]"
O        2.44214524       0.36011662       0.35032287
C        1.41711555      -0.51574307      -0.07738826
C        0.13341041      -0.08401520       0.58477130
C       -0.57044248       1.22018548       0.08806496
C       -1.81133128       0.38404016      -0.21289125
C       -1.12608512      -0.78819301       0.14362811
O       -1.42409722      -1.94865029      -0.32530752
H        3.26457723       0.10444185      -0.06907139
H        1.63542052      -1.55454465       0.19842414
H        1.29324701      -0.47926531      -1.16880732
H        0.24330347      -0.09975473       1.67161880
H       -0.69343689       1.98604566       0.85332050
H       -0.08067231       1.65918147      -0.78229673
H       -1.86038787      -0.88011519      -1.08077369
H       -2.86276626       0.63627022      -0.17361451
15
Frame=5 idx=007224 GeodesicLength=0.3135922690741061 rxn_smarts="[O:1]([C:2]([C@@:3]1([H:11])[C:4]([H:12])([H:13])[C:5]([H:14])([H:15])[C:6]1=[O:7])([H:9])[H:10])[H:8]>>[O:1]([C:2]([C@@:3]1([H:11])[C:4]([H:12])([H:13])[C:5]([H:15])=[C:6]1[O:7][H:14])([H:9])[H:10])[H:8]"
O        2.44273274       0.36334722       0.35401925
C        1.42008233      -0.51553443      -0.07353035
C        0.13397256      -0.08419467       0.58424702
C       -0.56921179       1.21789506       0.08282235
C       -1.81110898       0.38154090      -0.21657441
C       -1.12355494      -0.79131410       0.14331779
O       -1.42146929      -1.94498885      -0.33964246
H        3.26619470       0.10868039      -0.06396211
H        1.63985343      -1.55306350       0.20601540
H        1.29850016      -0.48249293      -1.16529243
H        0.24170065      -0.09901752       1.67143239
H       -0.69075783       1.98759381       0.84438620
H       -0.07953206       1.65255408      -0.78977376
H       -1.88753932      -0.87902702      -1.09547698
H       -2.85986236       0.63802156      -0.14198791
15
Frame=6 idx=007224 GeodesicLength=0.37647894920740765 rxn_smarts="[O:1]([C:2]([C@@:3]1([H:11])[C:4]([H:12])([H:13])[C:5]([H:14])([H:15])[C:6]1=[O:7])([H:9])[H:10])[H:8]>>[O:1]([C:2]([C@@:3]1([H:11])[C:4]([H:12])([H:13])[C:5]([H:15])=[C:6]1[O:7][H:14])([H:9])[H:10])[H:8]"
O        2.44331661       0.36671233       0.35761305
C        1.42307620      -0.51532341      -0.06953798
C        0.13459514      -0.08440662       0.58390891
C       -0.56802680       1.21543982       0.07763172
C       -1.81099792       0.37879358      -0.21984025
C       -1.12099061      -0.79463236       0.14353594
O       -1.41843963      -1.94077525      -0.35509899
H        3.26778357       0.11305603      -0.05899697
H        1.64440104      -1.55151149       0.21386450
H        1.30366525      -0.48590251      -1.16161976
H        0.24026498      -0.09816165       1.67141861
H       -0.68802708       1.98909538       0.83535779
H       -0.07859001       1.64559027      -0.79734248
H       -1.91604650      -0.87759712      -1.10975280
H       -2.85598423       0.63962301      -0.11114130
15
Frame=7 idx=007224 GeodesicLength=0.4394586124835646 rxn_smarts="[O:1]([C:2]([C@@:3]1([H:11])[C:4]([H:12])([H:13])[C:5]([H:14])([H:15])[C:6]1=[O:7])([H:9])[H:10])[H:8]>>[O:1]([C:2]([C@@:3]1([H:11])[C:4]([H:12])([H:13])[C:5]([H:15])=[C:6]1[O:7][H:14])([H:9])[H:10])[H:8]"
O        2.44390728       0.37021875       0.36111732
C        1.42611996      -0.51511093      -0.06539970
C        0.13529166      -0.08465748       0.58375546
C       -0.56687998       1.21280247       0.07247712
C       -1.81096871       0.37577230      -0.22272224
C       -1.11836403      -0.79817501       0.14427851
O       -1.41501584      -1.93588629      -0.37176389
H        3.26935968       0.11757763      -0.05415383
H        1.64909199      -1.54988231       0.22198788
H        1.30877742      -0.48950227      -1.15777668
H        0.23899986      -0.09718436       1.67157660
H       -0.68525898       1.99053407       0.82620822
H       -0.07783417       1.63826553      -0.80501059
H       -1.94603956      -0.87582747      -1.12351488
H       -2.85118657       0.64105538      -0.08105930
15
Frame=8 idx=007224 GeodesicLength=0.502490699639863 rxn_smarts="[O:1]([C:2]([C@@:3]1([H:11])[C:4]([H:12])([H:13])[C:5]([H:14])([H:15])[C:6]1=[O:7])([H:9])[H:10])[H:8]>>[O:1]([C:2]([C@@:3]1([H:11])[C:4]([H:12])([H:13])[C:5]([H:15])=[C:6]1[O:7][H:14])([H:9])[H:10])[H:8]"
O        2.44451529       0.37387259       0.36454937
C        1.42923682      -0.51489709      -0.06110618
C        0.13607401      -0.08495497       0.58378098
C       -0.56576286       1.20996752       0.06734328
C       -1.81099844       0.37245403      -0.22525238
C       -1.11564581      -0.80196694       0.14552605
O       -1.41121331      -1.93020525      -0.38971089
H        3.27093963       0.12225728      -0.04940777
H        1.65395566      -1.54817123       0.23039819
H        1.31387478      -0.49329488      -1.15375381
H        0.23790426      -0.09608979       1.67190139
H       -0.68246337       1.99189142       0.81691479
H       -0.07725171       1.63055866      -0.81278738
H       -1.97763551      -0.87373370      -1.13666231
H       -2.84552943       0.64231233      -0.05173334
15
Frame=9 idx=007224 GeodesicLength=0.5652725836121283 rxn_smarts="[O:1]([C:2]([C@@:3]1([H:11])[C:4]([H:12])([H:13])[C:5]([H:14])([H:15])[C:6]1=[O:7])([H:9])[H:10])[H:8]>>[O:1]([C:2]([C@@:3]1([H:11])[C:4]([H:12])([H:13])[C:5]([H:15])=[C:6]1[O:7][H:14])([H:9])[H:10])[H:8]"
O        2.44514257       0.37767565       0.36797397
C        1.43244800      -0.51468026      -0.05664894
C        0.13693224      -0.08531591       0.58394040
C       -0.56465987       1.20691914       0.06216753
C       -1.81108998       0.36883243      -0.22748477
C       -1.11281971      -0.80603990       0.14715260
O       -1.40698991      -1.92355440      -0.40904447
H        3.27254292       0.12711595      -0.04466914
H        1.65900418      -1.54637956       0.23910584
H        1.31903106      -0.49726637      -1.14954885
H        0.23692022      -0.09490958       1.67235360
H       -0.67961349       1.99315482       0.80741779
H       -0.07681885       1.62243784      -0.82074491
H       -2.01094244      -0.87140049      -1.14900391
H       -2.83908695       0.64341061      -0.02296673
15
Frame=10 idx=007224 GeodesicLength=0.6281075060655763 rxn_smarts="[O:1]([C:2]([C@@:3]1([H:11])[C:4]([H:12])([H:13])[C:5]([H:14])([H:15])[C:6]1=[O:7])([H:9])[H:10])[H:8]>>[O:1]([C:2]([C@@:3]1([H:11])[C:4]([H:12])([H:13])[C:5]([H:15])=[C:6]1[O:7][H:14])([H:9])[H:10])[H:8]"
O        2.44580409       0.38163540       0.37136454
C        1.43577022      -0.51445997      -0.05202377
C        0.13789313      -0.08573778       0.58425966
C       -0.56357121       1.20364675       0.05698106
C       -1.81120533       0.36487599      -0.22943738
C       -1.10984974      -0.81040615       0.14922212
O       -1.40243283      -1.91589600      -0.42975805
H        3.27417933       0.13215450      -0.03997221
H        1.66427052      -1.54449672       0.24811618
H        1.32424409      -0.50142438      -1.14515072
H        0.23609305      -0.09362874       1.67295467
H       -0.67675150       1.99430082       0.79774173
H       -0.07652978       1.61390550      -0.82882914
H       -2.04603797      -0.86878499      -1.16053357
H       -2.83187607       0.64431578       0.00506488
15
Frame=11 idx=007224 GeodesicLength=0.6909662829505758 rxn_smarts="[O:1]([C:2]([C@@:3]1([H:11])[C:4]([H:12])([H:13])[C:5]([H:14])([H:15])[C:6]1=[O:7])([H:9])[H:10])[H:8]>>[O:1]([C:2]([C@@:3]1([H:11])[C:4]([H:12])([H:13])[C:5]([H:15])=[C:6]1[O:7][H:14])([H:9])[H:10])[H:8]"
O        2.44650719       0.38575863       0.37474590
C        1.43922587      -0.51423506      -0.04722799
C        0.13896635      -0.08623196       0.58472256
C       -0.56249055       1.20013344       0.05176361
C       -1.81132094       0.36055857      -0.23116593
C       -1.10669966      -0.81510074       0.15168122
O       -1.39759871      -1.90706271      -0.45188635
H        3.27586618       0.13738730      -0.03527616
H        1.66978130      -1.54251763       0.25743164
H        1.32956131      -0.50575978      -1.14055867
H        0.23541049      -0.09226458       1.67369137
H       -0.67389669       1.99530367       0.78786749
H       -0.07636570       1.60494855      -0.83704663
H       -2.08302309      -0.86592474      -1.17110885
H       -2.82392335       0.64500704       0.03236679
15
Frame=12 idx=007224 GeodesicLength=0.7538582132425498 rxn_smarts="[O:1]([C:2]([C@@:3]1([H:11])[C:4]([H:12])([H:13])[C:5]([H:14])([H:15])[C:6]1=[O:7])([H:9])[H:10])[H:8]>>[O:1]([C:2]([C@@:3]1([H:11])[C:4]([H:12])([H:13])[C:5]([H:15])=[C:6]1[O:7][H:14])([H:9])[H:10])[H:8]"
O        2.44725730       0.39004495       0.37813351
C        1.44282877      -0.51400364      -0.04226619
C        0.14015832      -0.08680611       0.58531445
C       -0.56141350       1.19637065       0.04650917
C       -1.81141860       0.35586727      -0.23272177
C       -1.10334001      -0.82014213       0.15447858
O       -1.39257222      -1.89695320      -0.47538621
H        3.27761455       0.14282346      -0.03055904
H        1.67555292      -1.54043998       0.26704047
H        1.33501463      -0.51025406      -1.13577711
H        0.23486342      -0.09083698       1.67454940
H       -0.67106957       1.99613794       0.77779809
H       -0.07630720       1.59557227      -0.84538573
H       -2.12190398      -0.86285098      -1.18063608
H       -2.81526482       0.64547052       0.05890844
15
Frame=13 idx=007224 GeodesicLength=0.8168091047789823 rxn_smarts="[O:1]([C:2]([C@@:3]1([H:11])[C:4]([H:12])([H:13])[C:5]([H:14])([H:15])[C:6]1=[O:7])([H:9])[H:10])[H:8]>>[O:1]([C:2]([C@@:3]1([H:11])[C:4]([H:12])([H:13])[C:5]([H:15])=[C:6]1[O:7][H:14])([H:9])[H:10])[H:8]"
O        2.44805931       0.39448951       0.38153543
C        1.44658729      -0.51376315      -0.03714903
C        0.14147458      -0.08746483       0.58602159
C       -0.56033665       1.19235444       0.04122141
C       -1.81148125       0.35079408      -0.23415916
C       -1.09974403      -0.82554028       0.15756457
O       -1.38746440      -1.88549033      -0.50015828
H        3.27943157       0.14846585      -0.02581225
H        1.68159485      -1.53826162       0.27691958
H        1.34062530      -0.51488393      -1.13081504
H        0.23444614      -0.08936795       1.67551394
H       -0.66829408       1.99677763       0.76755455
H       -0.07633053       1.58579667      -0.85381847
H       -2.16261624      -0.85960271      -1.18905285
H       -2.80595185       0.64569662       0.08463401
15
Frame=14 idx=007224 GeodesicLength=0.8797756440954448 rxn_smarts="[O:1]([C:2]([C@@:3]1([H:11])[C:4]([H:12])([H:13])[C:5]([H:14])([H:15])[C:6]1=[O:7])([H:9])[H:10])[H:8]>>[O:1]([C:2]([C@@:3]1([H:11])[C:4]([H:12])([H:13])[C:5]([H:15])=[C:6]1[O:7][H:14])([H:9])[H:10])[H:8]"
O        2.44891297       0.39908378       0.38495411
C        1.45050434      -0.51351265      -0.03189828
C        0.14291857      -0.08821456       0.58682716
C       -0.55926118       1.18808740       0.03591248
C       -1.81148721       0.34533621      -0.23554855
C       -1.09588351      -0.83130760       0.16087682
O       -1.38244035      -1.87259178      -0.52602835
H        3.28131960       0.15431301      -0.02103172
H        1.68791052      -1.53598519       0.28702814
H        1.34641004      -0.51961746      -1.12569543
H        0.23415071      -0.08788802       1.67656968
H       -0.66561116       1.99719569       0.75717320
H       -0.07641178       1.57565920      -0.86230098
H       -2.20500483      -0.85622351      -1.19629846
H       -2.79602674       0.64566547       0.10946018
15
Frame=15 idx=007224 GeodesicLength=0.9427395800779647 rxn_smarts="[O:1]([C:2]([C@@:3]1([H:11])[C:4]([H:12])([H:13])[C:5]([H:14])([H:15])[C:6]1=[O:7])([H:9])[H:10])[H:8]>>[O:1]([C:2]([C@@:3]1([H:11])[C:4]([H:12])([H:13])[C:5]([H:15])=[C:6]1[O:7][H:14])([H:9])[H:10])[H:8]"
O        2.44981678       0.40381022       0.38837585
C        1.45457070      -0.51325128      -0.02654633
C        0.14449009      -0.08905561       0.58771735
C       -0.55819132       1.18358291       0.03061179
C       -1.81142164       0.33950337      -0.23695385
C       -1.09174150      -0.83743777       0.16436338
O       -1.37769235      -1.85825223      -0.55271162
H        3.28327385       0.16035183      -0.01623959
H        1.69448900      -1.53361676       0.29730817
H        1.35236082      -0.52441566      -1.12045006
H        0.23397707      -0.08642735       1.67770214
H       -0.66306325       1.99736767       0.74671956
H       -0.07652487       1.56522384      -0.87076565
H       -2.24878476      -0.85274729      -1.20240707
H       -2.78555862       0.64536410       0.13327594
15
Frame=16 idx=007224 GeodesicLength=1.0056842651912759 rxn_smarts="[O:1]([C:2]([C@@:3]1([H:11])[C:4]([H:12])([H:13])[C:5]([H:14])([H:15])[C:6]1=[O:7])([H:9])[H:10])[H:8]>>[O:1]([C:2]([C@@:3]1([H:11])[C:4]([H:12])([H:13])[C:5]([H:15])=[C:6]1[O:7][H:14])([H:9])[H:10])[H:8]"
O        2.45076636       0.40864631       0.39176759
C        1.45876637      -0.51298027      -0.02113516
C        0.14618723      -0.08998472       0.58868497
C       -0.55713600       1.17886273       0.02536557
C       -1.81126974       0.33331257      -0.23843656
C       -1.08730963      -0.84391616       0.16799113
O       -1.37344457      -1.84252104      -0.57982077
H        3.28528137       0.16656026      -0.01148636
H        1.70130787      -1.53116656       0.30768914
H        1.35844663      -0.52924005      -1.11512101
H        0.23393468      -0.08501306       1.67890382
H       -0.66070313       1.99727376       0.73628291
H       -0.07664501       1.55457395      -0.87912365
H       -2.29354981      -0.84918154      -1.20751074
H       -2.77463262       0.64477383       0.15594912
