13
Frame=0 idx=008522 GeodesicLength=0.0 rxn_smarts="[O:1]=[C:2]1[C:3]([H:8])([H:9])[O:4][C@@:5]2([H:10])[C:6]([H:11])([H:12])[C@@:7]12[H:13]>>[O-:1][C:2]1=[C:3]([H:8])[O+:4]=[C:5]([H:10])[C:6]([H:11])([H:12])[C:7]1([H:9])[H:13]"
O        1.23301957       1.89447858       1.13988553
C        0.88730537       0.88736857       0.54663865
C        1.55849127      -0.27293129       0.11556439
O        0.81228111      -1.27242189      -0.49347871
C       -0.47209247      -0.86815097      -0.67554905
C       -1.28088245      -0.42711569       0.45629879
C       -0.52579722       0.72500927      -0.17336597
H        2.54781839      -0.58680445       0.40955638
H        0.54322225       0.70268020      -0.90598645
H       -0.92535978      -1.22342192      -1.59239480
H       -0.96234595      -0.69584177       1.45773213
H       -2.34875129      -0.44095630       0.27857049
H       -1.06690877       1.57810763      -0.56347135
13
Frame=1 idx=008522 GeodesicLength=0.086123828001571 rxn_smarts="[O:1]=[C:2]1[C:3]([H:8])([H:9])[O:4][C@@:5]2([H:10])[C:6]([H:11])([H:12])[C@@:7]12[H:13]>>[O-:1][C:2]1=[C:3]([H:8])[O+:4]=[C:5]([H:10])[C:6]([H:11])([H:12])[C:7]1([H:9])[H:13]"
O        1.23363892       1.89166246       1.14251436
C        0.88040152       0.88469720       0.55485964
C        1.56150867      -0.26476755       0.09695906
O        0.81157586      -1.27643020      -0.48686964
C       -0.47302283      -0.87956167      -0.67296059
C       -1.28272003      -0.42361466       0.45261442
C       -0.52308744       0.72819636      -0.17392568
H        2.54356242      -0.58220531       0.41220952
H        0.55780770       0.71049501      -0.92597879
H       -0.92417203      -1.24468540      -1.58689277
H       -0.96791871      -0.69871205       1.45400926
H       -2.35053148      -0.43481965       0.27384561
H       -1.06704258       1.58974547      -0.54038439
13
Frame=2 idx=008522 GeodesicLength=0.17220330927256305 rxn_smarts="[O:1]=[C:2]1[C:3]([H:8])([H:9])[O:4][C@@:5]2([H:10])[C:6]([H:11])([H:12])[C@@:7]12[H:13]>>[O-:1][C:2]1=[C:3]([H:8])[O+:4]=[C:5]([H:10])[C:6]([H:11])([H:12])[C:7]1([H:9])[H:13]"
O        1.23406801       1.88826456       1.14580386
C        0.87346520       0.88162920       0.56342185
C        1.56388221      -0.25706580       0.07951878
O        0.81085023      -1.28045844      -0.47948934
C       -0.47398359      -0.89128849      -0.66987364
C       -1.28498106      -0.41993436       0.44869970
C       -0.52034865       0.73143327      -0.17440587
H        2.54038570      -0.57605087       0.41160251
H        0.57314100       0.71822500      -0.94585393
H       -0.92264673      -1.26644883      -1.58087680
H       -0.97465297      -0.70107866       1.45032811
H       -2.35263038      -0.42834895       0.26829815
H       -1.06654897       1.60112236      -0.51717337
13
Frame=3 idx=008522 GeodesicLength=0.25825548423808936 rxn_smarts="[O:1]=[C:2]1[C:3]([H:8])([H:9])[O:4][C@@:5]2([H:10])[C:6]([H:11])([H:12])[C@@:7]12[H:13]>>[O-:1][C:2]1=[C:3]([H:8])[O+:4]=[C:5]([H:10])[C:6]([H:11])([H:12])[C:7]1([H:9])[H:13]"
O        1.23437223       1.88439027       1.14956772
C        0.86651914       0.87825842       0.57217753
C        1.56569278      -0.24967883       0.06291696
O        0.81014520      -1.28438246      -0.47163675
C       -0.47497755      -0.90328041      -0.66636414
C       -1.28753364      -0.41613512       0.44459108
C       -0.51761301       0.73474633      -0.17479242
H        2.53791350      -0.56879142       0.40866927
H        0.58916253       0.72598963      -0.96574756
H       -0.92089409      -1.28863054      -1.57437418
H       -0.98226937      -0.70304000       1.44666432
H       -2.35493535      -0.42166518       0.26210099
H       -1.06558236       1.61221929      -0.49377282
13
Frame=4 idx=008522 GeodesicLength=0.3443012486303657 rxn_smarts="[O:1]=[C:2]1[C:3]([H:8])([H:9])[O:4][C@@:5]2([H:10])[C:6]([H:11])([H:12])[C@@:7]12[H:13]>>[O-:1][C:2]1=[C:3]([H:8])[O+:4]=[C:5]([H:10])[C:6]([H:11])([H:12])[C:7]1([H:9])[H:13]"
O        1.23460104       1.88011594       1.15367331
C        0.85957496       0.87464381       0.58104179
C        1.56699647      -0.24250263       0.04692752
O        0.80948800      -1.28811907      -0.46352001
C       -0.47600775      -0.91550423      -0.66247925
C       -1.29028763      -0.41225821       0.44031422
C       -0.51490028       0.73815431      -0.17506883
H        2.53588095      -0.56072989       0.40404490
H        0.60584229       0.73387405      -0.98575929
H       -0.91899243      -1.31117150      -1.56739873
H       -0.99057961      -0.70466872       1.44300062
H       -2.35736858      -0.41484807       0.25537047
H       -1.06424742       1.62301419      -0.47014672
13
Frame=5 idx=008522 GeodesicLength=0.4303389069160678 rxn_smarts="[O:1]=[C:2]1[C:3]([H:8])([H:9])[O:4][C@@:5]2([H:10])[C:6]([H:11])([H:12])[C@@:7]12[H:13]>>[O-:1][C:2]1=[C:3]([H:8])[O+:4]=[C:5]([H:10])[C:6]([H:11])([H:12])[C:7]1([H:9])[H:13]"
O        1.23478383       1.87549463       1.15803871
C        0.85263756       0.87082624       0.58996598
C        1.56782743      -0.23547005       0.03140622
O        0.80888880      -1.29162088      -0.45527934
C       -0.47707932      -0.92793885      -0.65824525
C       -1.29318705      -0.40833107       0.43588737
C       -0.51222743       0.74167110      -0.17522100
H        2.53413491      -0.55206644       0.39813129
H        0.62317811       0.74193790      -1.00594752
H       -0.91699483      -1.33402692      -1.55995703
H       -0.99946287      -0.70601050       1.43932714
H       -2.35988130      -0.40795152       0.24818346
H       -1.06261784       1.63348638      -0.44629003
13
Frame=6 idx=008522 GeodesicLength=0.5163912951416624 rxn_smarts="[O:1]=[C:2]1[C:3]([H:8])([H:9])[O:4][C@@:5]2([H:10])[C:6]([H:11])([H:12])[C@@:7]12[H:13]>>[O-:1][C:2]1=[C:3]([H:8])[O+:4]=[C:5]([H:10])[C:6]([H:11])([H:12])[C:7]1([H:9])[H:13]"
O        1.23494390       1.87056345       1.16260512
C        0.84570746       0.86683040       0.59892575
C        1.56821123      -0.22853156       0.01624952
O        0.80835628      -1.29485547      -0.44701822
C       -0.47819774      -0.94057196      -0.65367396
C       -1.29619090      -0.40437494       0.43132519
C       -0.50960511       0.74530611      -0.17523053
H        2.53253308      -0.54292659       0.39119970
H        0.64119959       0.75022138      -1.02635817
H       -0.91494096      -1.35716389      -1.55204860
H       -1.00883382      -0.70710269       1.43563671
H       -2.36243711      -0.40101129       0.24059419
H       -1.06074591       1.64361704      -0.42220672
13
Frame=7 idx=008522 GeodesicLength=0.6024676287900542 rxn_smarts="[O:1]=[C:2]1[C:3]([H:8])([H:9])[O:4][C@@:5]2([H:10])[C:6]([H:11])([H:12])[C@@:7]12[H:13]>>[O-:1][C:2]1=[C:3]([H:8])[O+:4]=[C:5]([H:10])[C:6]([H:11])([H:12])[C:7]1([H:9])[H:13]"
O        1.23509692       1.86534933       1.16733203
C        0.83878215       0.86267093       0.60791384
C        1.56816335      -0.22164532       0.00137633
O        0.80789137      -1.29780303      -0.43881322
C       -0.47936754      -0.95339559      -0.64876958
C       -1.29927185      -0.40040469       0.42663892
C       -0.50704119       0.74906758      -0.17507869
H        2.53099592      -0.53340410       0.38344673
H        0.65993130       0.75875399      -1.04703272
H       -0.91286139      -1.38055504      -1.54366999
H       -1.01863540      -0.70797275       1.43192492
H       -2.36501072      -0.39405304       0.23263991
H       -1.05867294       1.65339173      -0.39790848
13
Frame=8 idx=008522 GeodesicLength=0.6885810862866472 rxn_smarts="[O:1]=[C:2]1[C:3]([H:8])([H:9])[O:4][C@@:5]2([H:10])[C:6]([H:11])([H:12])[C@@:7]12[H:13]>>[O-:1][C:2]1=[C:3]([H:8])[O+:4]=[C:5]([H:10])[C:6]([H:11])([H:12])[C:7]1([H:9])[H:13]"
O        1.23525407       1.85987028       1.17219163
C        0.83185752       0.85835441       0.61693247
C        1.56769400      -0.21478138      -0.01326965
O        0.80749330      -1.30045408      -0.43071870
C       -0.48059244      -0.96640639      -0.64352920
C       -1.30241080      -0.39643309       0.42183593
C       -0.50454120       0.75296162      -0.17474654
H        2.52944837      -0.52355007       0.37498877
H        0.67942413       0.76755436      -1.06799897
H       -0.91077823      -1.40418235      -1.53481082
H       -1.02883140      -0.70864021       1.42818768
H       -2.36758410      -0.38709347       0.22434284
H       -1.05643322       1.66280036      -0.37340543
13
Frame=9 idx=008522 GeodesicLength=0.7747007892968052 rxn_smarts="[O:1]=[C:2]1[C:3]([H:8])([H:9])[O:4][C@@:5]2([H:10])[C:6]([H:11])([H:12])[C@@:7]12[H:13]>>[O-:1][C:2]1=[C:3]([H:8])[O+:4]=[C:5]([H:10])[C:6]([H:11])([H:12])[C:7]1([H:9])[H:13]"
O        1.23542144       1.85414228       1.17716443
C        0.82493098       0.85389430       0.62597419
C        1.56680812      -0.20791682      -0.02773590
O        0.80715654      -1.30280067      -0.42278650
C       -0.48187912      -0.97960383      -0.63794832
C       -1.30559315      -0.39247063       0.41692425
C       -0.50211710       0.75699281      -0.17422066
H        2.52785668      -0.51342573       0.36593255
H        0.69971855       0.77665433      -1.08927097
H       -0.90871306      -1.42802679      -1.52546557
H       -1.03938908      -0.70911559       1.42442506
H       -2.37014229      -0.38015246       0.21572535
H       -1.05405854       1.67182881      -0.34871792
13
Frame=10 idx=008522 GeodesicLength=0.8608572443413682 rxn_smarts="[O:1]=[C:2]1[C:3]([H:8])([H:9])[O:4][C@@:5]2([H:10])[C:6]([H:11])([H:12])[C@@:7]12[H:13]>>[O-:1][C:2]1=[C:3]([H:8])[O+:4]=[C:5]([H:10])[C:6]([H:11])([H:12])[C:7]1([H:9])[H:13]"
O        1.23560647       1.84817479       1.18223283
C        0.81799622       0.84928903       0.63505082
C        1.56550763      -0.20102548      -0.04206273
O        0.80687612      -1.30483974      -0.41505358
C       -0.48323083      -0.99298648      -0.63201634
C       -1.30880907      -0.38852765       0.41190990
C       -0.49977404       0.76116779      -0.17347813
H        2.52616089      -0.50304714       0.35633380
H        0.72089125       0.78605407      -1.11087683
H       -0.90668100      -1.45207518      -1.51562015
H       -1.05029181      -0.70941374       1.42063511
H       -2.37267466      -0.37324262       0.20679718
H       -1.05157717       1.68047237      -0.32385188
13
Frame=11 idx=008522 GeodesicLength=0.9470366485153369 rxn_smarts="[O:1]=[C:2]1[C:3]([H:8])([H:9])[O:4][C@@:5]2([H:10])[C:6]([H:11])([H:12])[C@@:7]12[H:13]>>[O-:1][C:2]1=[C:3]([H:8])[O+:4]=[C:5]([H:10])[C:6]([H:11])([H:12])[C:7]1([H:9])[H:13]"
O        1.23580930       1.84197882       1.18738287
C        0.81104838       0.84454656       0.64415945
C        1.56379022      -0.19409093      -0.05628196
O        0.80664289      -1.30657265      -0.40755494
C       -0.48465493      -1.00655859      -0.62572137
C       -1.31205188      -0.38461314       0.40679857
C       -0.49752576       0.76548794      -0.17250443
H        2.52433617      -0.49244173       0.34623714
H        0.74302482       0.79576761      -1.13282117
H       -0.90469716      -1.47631287      -1.50526681
H       -1.06152389      -0.70953978       1.41681855
H       -2.37517314      -0.36637898       0.19757086
H       -1.04902504       1.68872776      -0.29881676
13
Frame=12 idx=008522 GeodesicLength=1.033241931858809 rxn_smarts="[O:1]=[C:2]1[C:3]([H:8])([H:9])[O:4][C@@:5]2([H:10])[C:6]([H:11])([H:12])[C@@:7]12[H:13]>>[O-:1][C:2]1=[C:3]([H:8])[O+:4]=[C:5]([H:10])[C:6]([H:11])([H:12])[C:7]1([H:9])[H:13]"
O        1.23603298       1.83555605       1.19260675
C        0.80408173       0.83966252       0.65331128
C        1.56165160      -0.18708906      -0.07042858
O        0.80645044      -1.30799794      -0.40031857
C       -0.48615341      -1.02032301      -0.61904717
C       -1.31531572      -0.38073503       0.40159340
C       -0.49537800       0.76995857      -0.17127944
H        2.52234177      -0.48161518       0.33567011
H        0.76619515       0.80579365      -1.15513105
H       -0.90277168      -1.50073449      -1.49438769
H       -1.07307975      -0.70949877       1.41297456
H       -2.37762956      -0.35957207       0.18804641
H       -1.04642554       1.69659476      -0.27361002
13
Frame=13 idx=008522 GeodesicLength=1.1194531983061569 rxn_smarts="[O:1]=[C:2]1[C:3]([H:8])([H:9])[O:4][C@@:5]2([H:10])[C:6]([H:11])([H:12])[C@@:7]12[H:13]>>[O-:1][C:2]1=[C:3]([H:8])[O+:4]=[C:5]([H:10])[C:6]([H:11])([H:12])[C:7]1([H:9])[H:13]"
O        1.23627333       1.82891023       1.19790072
C        0.79708851       0.83464122       0.66250736
C        1.55908292      -0.18000634      -0.08452631
O        0.80628677      -1.30912020      -0.39336926
C       -0.48773296      -1.03428544      -0.61197517
C       -1.31859874      -0.37690160       0.39629889
C       -0.49334444       0.77458253      -0.16978745
H        2.52016484      -0.47057000       0.32463560
H        0.79050113       0.81612966      -1.17780936
H       -0.90091653      -1.52532678      -1.48297210
H       -1.08495636      -0.70928930       1.40910576
H       -2.38003874      -0.35283431       0.17822641
H       -1.04380972       1.70407033      -0.24823510
13
Frame=14 idx=008522 GeodesicLength=1.2056586685048232 rxn_smarts="[O:1]=[C:2]1[C:3]([H:8])([H:9])[O:4][C@@:5]2([H:10])[C:6]([H:11])([H:12])[C@@:7]12[H:13]>>[O-:1][C:2]1=[C:3]([H:8])[O+:4]=[C:5]([H:10])[C:6]([H:11])([H:12])[C:7]1([H:9])[H:13]"
O        1.23653083       1.82204338       1.20325233
C        0.79006482       0.82948489       0.67174120
C        1.55607469      -0.17282115      -0.09860960
O        0.80614287      -1.30993562      -0.38674174
C       -0.48939699      -1.04845083      -0.60448885
C       -1.32189562      -0.37312234       0.39091763
C       -0.49143999       0.77936394      -0.16801324
H        2.51776187      -0.45931717       0.31315922
H        0.81605294       0.82678051      -1.20086693
H       -0.89914332      -1.55008939      -1.47099906
H       -1.09714553      -0.70891220       1.40521151
H       -2.38239391      -0.34618167       0.16811488
H       -1.04121266       1.71115765      -0.22267735
13
Frame=15 idx=008522 GeodesicLength=1.2918358130902834 rxn_smarts="[O:1]=[C:2]1[C:3]([H:8])([H:9])[O:4][C@@:5]2([H:10])[C:6]([H:11])([H:12])[C@@:7]12[H:13]>>[O-:1][C:2]1=[C:3]([H:8])[O+:4]=[C:5]([H:10])[C:6]([H:11])([H:12])[C:7]1([H:9])[H:13]"
O        1.23680231       1.81495871       1.20865214
C        0.78300371       0.82419661       0.68100928
C        1.55261270      -0.16551591      -0.11270586
O        0.80600515      -1.31044478      -0.38046407
C       -0.49115099      -1.06282507      -0.59656702
C       -1.32520518      -0.36940662       0.38545245
C       -0.48968192       0.78430739      -0.16594159
H        2.51511479      -0.44785818       0.30124195
H        0.84297015       0.83774070      -1.22430726
H       -0.89746296      -1.57501372      -1.45845292
H       -1.10964690      -0.70836465       1.40129344
H       -2.38469053      -0.33962955       0.15771310
H       -1.03867034       1.71785509      -0.19692364
13
Frame=16 idx=008522 GeodesicLength=1.3779616334726474 rxn_smarts="[O:1]=[C:2]1[C:3]([H:8])([H:9])[O:4][C@@:5]2([H:10])[C:6]([H:11])([H:12])[C@@:7]12[H:13]>>[O-:1][C:2]1=[C:3]([H:8])[O+:4]=[C:5]([H:10])[C:6]([H:11])([H:12])[C:7]1([H:9])[H:13]"
O        1.23708396       1.80765719       1.21409122
C        0.77589791       0.81877815       0.69030694
C        1.54868020      -0.15807138      -0.12684437
O        0.80585978      -1.31064650      -0.37456519
C       -0.49299935      -1.07741457      -0.58818653
C       -1.32852703      -0.36576286       0.37990621
C       -0.48808880       0.78941724      -0.16355587
H        2.51219462      -0.43618566       0.28887283
H        0.87138759       0.84899920      -1.24813064
H       -0.89588506      -1.60009711      -1.44531301
H       -1.12246176      -0.70764345       1.39735296
H       -2.38692493      -0.33319363       0.14701831
H       -1.03621712       1.72416338      -0.17095288
