12
Frame=0 idx=002478 GeodesicLength=0.0 rxn_smarts="[N:1]([C:2]1([C:5]#[N:6])[C:3]([H:9])([H:10])[C:4]1([H:11])[H:12])([H:7])[H:8]>>[C:3](=[C:4]([H:11])[H:12])([H:9])[H:10].[N:1]([C+:2]=[C:5]=[N-:6])([H:7])[H:8]"
N        0.80248110       1.31064918       0.84272778
C        0.62984220       0.69025903      -0.31601693
C       -1.25558979      -0.06464786      -0.66020526
C       -0.99679049      -1.11862102       0.14836959
C        1.55912677      -0.35899791      -0.60374950
N        2.34743561      -1.11841945      -0.96891278
H        1.35465357       0.95258555       1.60793156
H        0.31246309       2.17233187       1.01017607
H       -1.20391181      -0.16110753      -1.73628417
H       -1.79551246       0.80150398      -0.29979456
H       -1.15371239      -1.05950331       1.21840952
H       -0.60048539      -2.04603251      -0.24265135
12
Frame=1 idx=002478 GeodesicLength=0.04252666497832316 rxn_smarts="[N:1]([C:2]1([C:5]#[N:6])[C:3]([H:9])([H:10])[C:4]1([H:11])[H:12])([H:7])[H:8]>>[C:3](=[C:4]([H:11])[H:12])([H:9])[H:10].[N:1]([C+:2]=[C:5]=[N-:6])([H:7])[H:8]"
N        0.80152466       1.30543649       0.85005997
C        0.63423917       0.68862720      -0.31294083
C       -1.25669402      -0.06526155      -0.66213205
C       -0.98419654      -1.10846559       0.16072343
C        1.57061112      -0.34940016      -0.61649612
N        2.35056786      -1.10589054      -1.00441324
H        1.30442750       0.91112629       1.63138409
H        0.35142294       2.19235073       0.99659909
H       -1.20217346      -0.17586469      -1.73682525
H       -1.81146268       0.79566169      -0.31164138
H       -1.17387118      -1.04952419       1.22540812
H       -0.58439537      -2.03879567      -0.21972584
12
Frame=2 idx=002478 GeodesicLength=0.0846497158357847 rxn_smarts="[N:1]([C:2]1([C:5]#[N:6])[C:3]([H:9])([H:10])[C:4]1([H:11])[H:12])([H:7])[H:8]>>[C:3](=[C:4]([H:11])[H:12])([H:9])[H:10].[N:1]([C+:2]=[C:5]=[N-:6])([H:7])[H:8]"
N        0.80033651       1.30029626       0.85771287
C        0.63876545       0.68680102      -0.30948813
C       -1.25755004      -0.06582548      -0.66419193
C       -0.97211677      -1.09810589       0.17279034
C        1.58188924      -0.34029819      -0.62770020
N        2.35224776      -1.09374946      -1.03941031
H        1.25513238       0.87399069       1.65177180
H        0.39081056       2.20948132       0.98541680
H       -1.19988552      -0.19057662      -1.73732849
H       -1.82749642       0.78928957      -0.32368309
H       -1.19328418      -1.04012059       1.23143246
H       -0.56884897      -2.03118264      -0.19732213
12
Frame=3 idx=002478 GeodesicLength=0.12660297001802956 rxn_smarts="[N:1]([C:2]1([C:5]#[N:6])[C:3]([H:9])([H:10])[C:4]1([H:11])[H:12])([H:7])[H:8]>>[C:3](=[C:4]([H:11])[H:12])([H:9])[H:10].[N:1]([C+:2]=[C:5]=[N-:6])([H:7])[H:8]"
N        0.79870078       1.29502274       0.86554709
C        0.64316996       0.68503707      -0.30582005
C       -1.25858258      -0.06642053      -0.66630998
C       -0.96065543      -1.08762083       0.18453079
C        1.59297128      -0.33101628      -0.63816407
N        2.35335745      -1.08166545      -1.07249615
H        1.20721612       0.84019097       1.66904004
H        0.43180961       2.22435208       0.97614686
H       -1.19755553      -0.20517594      -1.73760492
H       -1.84418885       0.78206698      -0.33581509
H       -1.21253602      -1.03168967       1.23634710
H       -0.55370679      -2.02308115      -0.17540162
12
Frame=4 idx=002478 GeodesicLength=0.1683594600881932 rxn_smarts="[N:1]([C:2]1([C:5]#[N:6])[C:3]([H:9])([H:10])[C:4]1([H:11])[H:12])([H:7])[H:8]>>[C:3](=[C:4]([H:11])[H:12])([H:9])[H:10].[N:1]([C+:2]=[C:5]=[N-:6])([H:7])[H:8]"
N        0.79705731       1.29009529       0.87351886
C        0.64772541       0.68317038      -0.30184329
C       -1.25942123      -0.06699889      -0.66852248
C       -0.94961344      -1.07704643       0.19600064
C        1.60393202      -0.32206697      -0.64738432
N        2.35301599      -1.06985090      -1.10517424
H        1.15974190       0.80987403       1.68421338
H        0.47350535       2.23702673       0.96863866
H       -1.19488224      -0.21971672      -1.73781809
H       -1.86102403       0.77417674      -0.34807413
H       -1.23099795      -1.02392409       1.24043326
H       -0.53903909      -2.01473917      -0.15398825
12
Frame=5 idx=002478 GeodesicLength=0.21007416024142583 rxn_smarts="[N:1]([C:2]1([C:5]#[N:6])[C:3]([H:9])([H:10])[C:4]1([H:11])[H:12])([H:7])[H:8]>>[C:3](=[C:4]([H:11])[H:12])([H:9])[H:10].[N:1]([C+:2]=[C:5]=[N-:6])([H:7])[H:8]"
N        0.79507502       1.28541412       0.88152087
C        0.65224967       0.68132669      -0.29772248
C       -1.26038031      -0.06752930      -0.67082352
C       -0.93912390      -1.06643275       0.20717694
C        1.61475707      -0.31320726      -0.65586338
N        2.35204592      -1.05814342      -1.13651457
H        1.11338181       0.78249982       1.69726403
H        0.51636163       2.24774922       0.96267688
H       -1.19219429      -0.23408474      -1.73795192
H       -1.87843656       0.76555215      -0.36040522
H       -1.24891404      -1.01698825       1.24374657
H       -0.52482200      -2.00615629      -0.13310419
12
Frame=6 idx=002478 GeodesicLength=0.2517140194151384 rxn_smarts="[N:1]([C:2]1([C:5]#[N:6])[C:3]([H:9])([H:10])[C:4]1([H:11])[H:12])([H:7])[H:8]>>[C:3](=[C:4]([H:11])[H:12])([H:9])[H:10].[N:1]([C+:2]=[C:5]=[N-:6])([H:7])[H:8]"
N        0.79296151       1.28102951       0.88963336
C        0.65686482       0.67943499      -0.29332466
C       -1.26124866      -0.06810000      -0.67328728
C       -0.92912469      -1.05570527       0.21816272
C        1.62550912      -0.30447325      -0.66339441
N        2.34987336      -1.04631755      -1.16752064
H        1.06774369       0.75800868       1.70870411
H        0.56021089       2.25644254       0.95825710
H       -1.18923793      -0.24854797      -1.73806470
H       -1.89615784       0.75607780      -0.37308127
H       -1.26636069      -1.01056679       1.24637499
H       -0.51103359      -1.99728270      -0.11245932
12
Frame=7 idx=002478 GeodesicLength=0.2931659796240921 rxn_smarts="[N:1]([C:2]1([C:5]#[N:6])[C:3]([H:9])([H:10])[C:4]1([H:11])[H:12])([H:7])[H:8]>>[C:3](=[C:4]([H:11])[H:12])([H:9])[H:10].[N:1]([C+:2]=[C:5]=[N-:6])([H:7])[H:8]"
N        0.79043820       1.27691790       0.89761291
C        0.66131520       0.67759725      -0.28888511
C       -1.26220561      -0.06856765      -0.67575753
C       -0.91952105      -1.04479427       0.22881586
C        1.63595084      -0.29572479      -0.67061106
N        2.34719764      -1.03472421      -1.19683205
H        1.02311669       0.73595697       1.71813717
H        0.60504293       2.26311988       0.95530322
H       -1.18630303      -0.26285027      -1.73793535
H       -1.91443383       0.74577747      -0.38572532
H       -1.28308315      -1.00471077       1.24825590
H       -0.49751483      -1.98799754      -0.09237863
12
Frame=8 idx=002478 GeodesicLength=0.33457314109450353 rxn_smarts="[N:1]([C:2]1([C:5]#[N:6])[C:3]([H:9])([H:10])[C:4]1([H:11])[H:12])([H:7])[H:8]>>[C:3](=[C:4]([H:11])[H:12])([H:9])[H:10].[N:1]([C+:2]=[C:5]=[N-:6])([H:7])[H:8]"
N        0.78790210       1.27321664       0.90552578
C        0.66591963       0.67571764      -0.28427725
C       -1.26312755      -0.06897111      -0.67835762
C       -0.91040784      -1.03375419       0.23929216
C        1.64638273      -0.28714038      -0.67712272
N        2.34365718      -1.02302011      -1.22567522
H        0.97932048       0.71642642       1.72625480
H        0.65039476       2.26771921       0.95370541
H       -1.18322161      -0.27711663      -1.73776147
H       -1.93308346       0.73463117      -0.39865576
H       -1.29925765      -0.99925879       1.24962431
H       -0.48447877      -1.97844986      -0.07255241
12
Frame=9 idx=002478 GeodesicLength=0.37586384862433664 rxn_smarts="[N:1]([C:2]1([C:5]#[N:6])[C:3]([H:9])([H:10])[C:4]1([H:11])[H:12])([H:7])[H:8]>>[C:3](=[C:4]([H:11])[H:12])([H:9])[H:10].[N:1]([C+:2]=[C:5]=[N-:6])([H:7])[H:8]"
N        0.78508680       1.26993646       0.91327591
C        0.67044336       0.67392680      -0.27966640
C       -1.26416455      -0.06927557      -0.68104248
C       -0.90173624      -1.02256951       0.24948079
C        1.65655438      -0.27852422      -0.68339995
N        2.33968938      -1.01142263      -1.25309994
H        0.93661027       0.69911871       1.73284135
H        0.69657014       2.27035333       0.95351413
H       -1.18021459      -0.29127629      -1.73748227
H       -1.95227960       0.72256521      -0.41169585
H       -1.31472710      -0.99423712       1.25047384
H       -0.47183224      -1.96859517      -0.05319912
12
Frame=10 idx=002478 GeodesicLength=0.417059940625393 rxn_smarts="[N:1]([C:2]1([C:5]#[N:6])[C:3]([H:9])([H:10])[C:4]1([H:11])[H:12])([H:7])[H:8]>>[C:3](=[C:4]([H:11])[H:12])([H:9])[H:10].[N:1]([C+:2]=[C:5]=[N-:6])([H:7])[H:8]"
N        0.78228395       1.26706238       0.92086578
C        0.67511633       0.67206623      -0.27491042
C       -1.26513376      -0.06944323      -0.68381629
C       -0.89345221      -1.01117212       0.25949075
C        1.66669544      -0.27008074      -0.68912580
N        2.33490328      -0.99974021      -1.28006116
H        0.89470198       0.68405750       1.73830062
H        0.74293730       2.27085488       0.95454725
H       -1.17706821      -0.30535143      -1.73706679
H       -1.97180386       0.70958842      -0.42500357
H       -1.32959151      -0.98944241       1.25086582
H       -0.45958874      -1.95839926      -0.03408619
12
Frame=11 idx=002478 GeodesicLength=0.4581475768157654 rxn_smarts="[N:1]([C:2]1([C:5]#[N:6])[C:3]([H:9])([H:10])[C:4]1([H:11])[H:12])([H:7])[H:8]>>[C:3](=[C:4]([H:11])[H:12])([H:9])[H:10].[N:1]([C+:2]=[C:5]=[N-:6])([H:7])[H:8]"
N        0.77934039       1.26465364       0.92817413
C        0.67976683       0.67029636      -0.27023313
C       -1.26625483      -0.06942296      -0.68664201
C       -0.88558098      -0.99958109       0.26921455
C        1.67661316      -0.26160246      -0.69480283
N        2.32996940      -0.98824843      -1.30555642
H        0.85386881       0.67096093       1.74243188
H        0.78971027       2.26933225       0.95688359
H       -1.17409494      -0.31921641      -1.73651245
H       -1.99189515       0.69561898      -0.43836615
H       -1.34367189      -0.98492895       1.25087838
H       -0.44777106      -1.94786186      -0.01546953
12
Frame=12 idx=002478 GeodesicLength=0.4990644186436953 rxn_smarts="[N:1]([C:2]1([C:5]#[N:6])[C:3]([H:9])([H:10])[C:4]1([H:11])[H:12])([H:7])[H:8]>>[C:3](=[C:4]([H:11])[H:12])([H:9])[H:10].[N:1]([C+:2]=[C:5]=[N-:6])([H:7])[H:8]"
N        0.77629782       1.26271570       0.93520281
C        0.68443388       0.66858104      -0.26562421
C       -1.26743611      -0.06916913      -0.68949905
C       -0.87805482      -0.98775145       0.27866510
C        1.68630042      -0.25317526      -0.70044547
N        2.32480725      -0.97703460      -1.32982904
H        0.81407875       0.65978195       1.74534799
H        0.83647119       2.26579340       0.96051549
H       -1.17118760      -0.33286627      -1.73579787
H       -2.01239364       0.68066957      -0.45175229
H       -1.35694551      -0.98056104       1.25056827
H       -0.43637165      -1.93698392       0.00264827
12
Frame=13 idx=002478 GeodesicLength=0.5398153812905059 rxn_smarts="[N:1]([C:2]1([C:5]#[N:6])[C:3]([H:9])([H:10])[C:4]1([H:11])[H:12])([H:7])[H:8]>>[C:3](=[C:4]([H:11])[H:12])([H:9])[H:10].[N:1]([C+:2]=[C:5]=[N-:6])([H:7])[H:8]"
N        0.77342504       1.26120158       0.94189289
C        0.68929505       0.66679847      -0.26099972
C       -1.26864998      -0.06860893      -0.69234776
C       -0.87083630      -0.97566823       0.28786893
C        1.69593918      -0.24489631      -0.70585124
N        2.31932137      -0.96599271      -1.35313561
H        0.77527903       0.65047628       1.74722979
H        0.88272842       2.26018846       0.96515294
H       -1.16836151      -0.34614309      -1.73486039
H       -2.03326095       0.66471058      -0.46518622
H       -1.36941859      -0.97631928       1.24995025
H       -0.42546076      -1.92574680       0.02028613
12
Frame=14 idx=002478 GeodesicLength=0.5804026414596194 rxn_smarts="[N:1]([C:2]1([C:5]#[N:6])[C:3]([H:9])([H:10])[C:4]1([H:11])[H:12])([H:7])[H:8]>>[C:3](=[C:4]([H:11])[H:12])([H:9])[H:10].[N:1]([C+:2]=[C:5]=[N-:6])([H:7])[H:8]"
N        0.77067581       1.26015520       0.94827189
C        0.69429585       0.66503803      -0.25646815
C       -1.26994612      -0.06770159      -0.69519411
C       -0.86392952      -0.96334810       0.29679913
C        1.70543077      -0.23672780      -0.71130687
N        2.31379721      -0.95536676      -1.37527754
H        0.73758079       0.64287956       1.74810802
H        0.92834337       2.25273078       0.97090556
H       -1.16567539      -0.35902681      -1.73376467
H       -2.05448464       0.64773872      -0.47858079
H       -1.38103420      -0.97214706       1.24915173
H       -0.41505393      -1.91422417       0.03735579
12
Frame=15 idx=002478 GeodesicLength=0.6209430438300408 rxn_smarts="[N:1]([C:2]1([C:5]#[N:6])[C:3]([H:9])([H:10])[C:4]1([H:11])[H:12])([H:7])[H:8]>>[C:3](=[C:4]([H:11])[H:12])([H:9])[H:10].[N:1]([C+:2]=[C:5]=[N-:6])([H:7])[H:8]"
N        0.76798842       1.25959263       0.95435021
C        0.69941705       0.66333915      -0.25198494
C       -1.27135324      -0.06648621      -0.69806328
C       -0.85735188      -0.95079585       0.30549143
C        1.71483937      -0.22858457      -0.71677578
N        2.30816306      -0.94499482      -1.39651340
H        0.70078309       0.63692990       1.74806543
H        0.97376573       2.24342527       0.97780192
H       -1.16308378      -0.37161574      -1.73248541
H       -2.07614063       0.62960666      -0.49207416
H       -1.39195590      -0.96799469       1.24818073
H       -0.40507131      -1.90242174       0.05400723
12
Frame=16 idx=002478 GeodesicLength=0.6613060388389074 rxn_smarts="[N:1]([C:2]1([C:5]#[N:6])[C:3]([H:9])([H:10])[C:4]1([H:11])[H:12])([H:7])[H:8]>>[C:3](=[C:4]([H:11])[H:12])([H:9])[H:10].[N:1]([C+:2]=[C:5]=[N-:6])([H:7])[H:8]"
N        0.76551531       1.25941328       0.96013357
C        0.70470992       0.66154500      -0.24751682
C       -1.27272914      -0.06489467      -0.70091348
C       -0.85100403      -0.93788220       0.31395075
C        1.72404644      -0.22063561      -0.72221938
N        2.30229096      -0.93481769      -1.41699844
H        0.66482739       0.63255799       1.74718923
H        1.01839158       2.23218051       0.98568725
H       -1.16049659      -0.38385890      -1.73098077
H       -2.09793817       0.61026068      -0.50559511
H       -1.40208052      -0.96369554       1.24705446
H       -0.39553313      -1.89017285       0.07020873
