16
Frame=0 idx=008330 GeodesicLength=0.0 rxn_smarts="[N:1](=[C:2]1/[C:3]([H:9])([H:10])[C:4]([H:11])([H:12])[C:5]([H:13])([H:14])[C:6]([H:15])([H:16])[O:7]1)\[H:8]>>[N:1]#[C:2][O:7][C:6]([C:5]([C:4]([C:3]([H:8])([H:9])[H:10])([H:11])[H:12])([H:13])[H:14])([H:15])[H:16]"
N        2.52963615       1.08601146       0.53971999
C        1.46722914       0.90940614      -0.00816007
C        0.94965382      -0.99618176      -0.21589911
C       -0.45995134      -1.10136464       0.34327434
C       -1.37334308      -0.03568121      -0.25141352
C       -0.83043791       1.35768073      -0.02299227
O        0.47062327       1.52056431      -0.62673024
H        2.00704183      -0.19985373       0.32323877
H        0.99678743      -1.10225622      -1.29950997
H        1.60632236      -1.76185606       0.22535004
H       -0.43341778      -0.99385099       1.43292147
H       -0.87704742      -2.09329535       0.14345937
H       -1.49027892      -0.20067075      -1.32669919
H       -2.37055601      -0.09258020       0.19261685
H       -0.74304092       1.58464315       1.04437263
H       -1.44922061       2.11928515      -0.49354904
16
Frame=1 idx=008330 GeodesicLength=0.1027665177331026 rxn_smarts="[N:1](=[C:2]1/[C:3]([H:9])([H:10])[C:4]([H:11])([H:12])[C:5]([H:13])([H:14])[C:6]([H:15])([H:16])[O:7]1)\[H:8]>>[N:1]#[C:2][O:7][C:6]([C:5]([C:4]([C:3]([H:8])([H:9])[H:10])([H:11])[H:12])([H:13])[H:14])([H:15])[H:16]"
N        2.53942232       1.11213235       0.50531162
C        1.47849255       0.92410295      -0.04140698
C        0.95067950      -0.99763914      -0.20698486
C       -0.46455130      -1.10498302       0.33881942
C       -1.37339027      -0.03483300      -0.25465519
C       -0.82865507       1.35602076      -0.01576358
O        0.46285832       1.52270699      -0.63753784
H        2.00646225      -0.19597263       0.37554000
H        0.99890224      -1.11826545      -1.28977069
H        1.59913745      -1.77108572       0.23158506
H       -0.44783222      -1.00577626       1.42944584
H       -0.88162726      -2.09477023       0.12891888
H       -1.48600375      -0.19474599      -1.33120242
H       -2.37281229      -0.09190674       0.18427522
H       -0.72900320       1.57093962       1.05298012
H       -1.45207926       2.12407552      -0.46955461
16
Frame=2 idx=008330 GeodesicLength=0.20522188322714272 rxn_smarts="[N:1](=[C:2]1/[C:3]([H:9])([H:10])[C:4]([H:11])([H:12])[C:5]([H:13])([H:14])[C:6]([H:15])([H:16])[O:7]1)\[H:8]>>[N:1]#[C:2][O:7][C:6]([C:5]([C:4]([C:3]([H:8])([H:9])[H:10])([H:11])[H:12])([H:13])[H:14])([H:15])[H:16]"
N        2.54872360       1.13554772       0.47099496
C        1.48940803       0.93834274      -0.07554431
C        0.95171561      -0.99903762      -0.19785103
C       -0.46916997      -1.10881071       0.33422221
C       -1.37332765      -0.03397948      -0.25784219
C       -0.82652433       1.35420433      -0.00842280
O        0.45526170       1.52504490      -0.64786862
H        2.00405634      -0.18900599       0.42661690
H        1.00100066      -1.13458125      -1.27959270
H        1.59253368      -1.77904116       0.23905556
H       -0.46241130      -1.01805063       1.42570018
H       -0.88599085      -2.09636075       0.11389812
H       -1.48160784      -0.18870963      -1.33562823
H       -2.37491352      -0.09106483       0.17603587
H       -0.71444740       1.55688246       1.06144935
H       -1.45430677       2.12861990      -0.44522326
16
Frame=3 idx=008330 GeodesicLength=0.30741916694907645 rxn_smarts="[N:1](=[C:2]1/[C:3]([H:9])([H:10])[C:4]([H:11])([H:12])[C:5]([H:13])([H:14])[C:6]([H:15])([H:16])[O:7]1)\[H:8]>>[N:1]#[C:2][O:7][C:6]([C:5]([C:4]([C:3]([H:8])([H:9])[H:10])([H:11])[H:12])([H:13])[H:14])([H:15])[H:16]"
N        2.55717856       1.15660523       0.43744075
C        1.49991603       0.95212870      -0.11037868
C        0.95272026      -1.00039431      -0.18858605
C       -0.47378085      -1.11279470       0.32954324
C       -1.37316604      -0.03312558      -0.26093399
C       -0.82406427       1.35223694      -0.00104955
O        0.44788301       1.52749776      -0.65770795
H        2.00042878      -0.17938182       0.47598242
H        1.00303930      -1.15103096      -1.26906933
H        1.58634581      -1.78601550       0.24746939
H       -0.47698848      -1.03049549       1.42171545
H       -0.89014759      -2.09800971       0.09859221
H       -1.47715374      -0.18262504      -1.33991521
H       -2.37685314      -0.09003952       0.16798344
H       -0.69947914       1.54257461       1.06967353
H       -1.45587851       2.13286939      -0.42075968
16
Frame=4 idx=008330 GeodesicLength=0.4095748646279059 rxn_smarts="[N:1](=[C:2]1/[C:3]([H:9])([H:10])[C:4]([H:11])([H:12])[C:5]([H:13])([H:14])[C:6]([H:15])([H:16])[O:7]1)\[H:8]>>[N:1]#[C:2][O:7][C:6]([C:5]([C:4]([C:3]([H:8])([H:9])[H:10])([H:11])[H:12])([H:13])[H:14])([H:15])[H:16]"
N        2.56468648       1.17565187       0.40484446
C        1.50996547       0.96551416      -0.14575084
C        0.95367656      -1.00170204      -0.17923820
C       -0.47835960      -1.11689129       0.32482097
C       -1.37291852      -0.03227443      -0.26391349
C       -0.82131109       1.35012650       0.00630333
O        0.44072803       1.53000734      -0.66705653
H        1.99598999      -0.16755675       0.52367885
H        1.00502048      -1.16743323      -1.25826862
H        1.58040678      -1.79229493       0.25653509
H       -0.49145653      -1.04299971       1.41751471
H       -0.89409291      -2.09967354       0.08311950
H       -1.47268590      -0.17653352      -1.34403338
H       -2.37863284      -0.08883063       0.16015843
H       -0.68419954       1.52809253       1.07758817
H       -1.45681685       2.13679765      -0.39630245
16
Frame=5 idx=008330 GeodesicLength=0.5117190589526529 rxn_smarts="[N:1](=[C:2]1/[C:3]([H:9])([H:10])[C:4]([H:11])([H:12])[C:5]([H:13])([H:14])[C:6]([H:15])([H:16])[O:7]1)\[H:8]>>[N:1]#[C:2][O:7][C:6]([C:5]([C:4]([C:3]([H:8])([H:9])[H:10])([H:11])[H:12])([H:13])[H:14])([H:15])[H:16]"
N        2.57113184       1.19288858       0.37330730
C        1.51949130       0.97862011      -0.18147357
C        0.95458350      -1.00296571      -0.16984075
C       -0.48288075      -1.12106498       0.32010235
C       -1.37258757      -0.03143389      -0.26676921
C       -0.81830602       1.34790196       0.01358675
O        0.43381687       1.53255852      -0.67591244
H        1.99113125      -0.15394708       0.56976589
H        1.00694546      -1.18362128      -1.24725046
H        1.57458856      -1.79815174       0.26595712
H       -0.50573780      -1.05545007       1.41315022
H       -0.89781613      -2.10133604       0.06760724
H       -1.46820977      -0.17048434      -1.34797369
H       -2.38025595      -0.08745819       0.15258764
H       -0.66874572       1.51353437       1.08515393
H       -1.45714908       2.14040978      -0.37199833
16
Frame=6 idx=008330 GeodesicLength=0.6140740774075507 rxn_smarts="[N:1](=[C:2]1/[C:3]([H:9])([H:10])[C:4]([H:11])([H:12])[C:5]([H:13])([H:14])[C:6]([H:15])([H:16])[O:7]1)\[H:8]>>[N:1]#[C:2][O:7][C:6]([C:5]([C:4]([C:3]([H:8])([H:9])[H:10])([H:11])[H:12])([H:13])[H:14])([H:15])[H:16]"
N        2.57662577       1.20854261       0.34272793
C        1.52847325       0.99148766      -0.21752995
C        0.95544639      -1.00415378      -0.16042105
C       -0.48732443      -1.12528958       0.31539115
C       -1.37218836      -0.03060664      -0.26949766
C       -0.81507991       1.34557179       0.02077358
O        0.42710431       1.53512940      -0.68434848
H        1.98597600      -0.13888991       0.61472532
H        1.00883183      -1.19946085      -1.23606561
H        1.56879238      -1.80374218       0.27551489
H       -0.51978815      -1.06781670       1.40862988
H       -0.90130058      -2.10297043       0.05208246
H       -1.46377030      -0.16449757      -1.35172714
H       -2.38172646      -0.08593574       0.14529458
H       -0.65313934       1.49893021       1.09233761
H       -1.45693240       2.14370173      -0.34788751
16
Frame=7 idx=008330 GeodesicLength=0.7165805966942045 rxn_smarts="[N:1](=[C:2]1/[C:3]([H:9])([H:10])[C:4]([H:11])([H:12])[C:5]([H:13])([H:14])[C:6]([H:15])([H:16])[O:7]1)\[H:8]>>[N:1]#[C:2][O:7][C:6]([C:5]([C:4]([C:3]([H:8])([H:9])[H:10])([H:11])[H:12])([H:13])[H:14])([H:15])[H:16]"
N        2.58117044       1.22270649       0.31309314
C        1.53688671       1.00419014      -0.25387393
C        0.95627421      -1.00525485      -0.15101141
C       -0.49166775      -1.12954291       0.31070264
C       -1.37172563      -0.02979865      -0.27209272
C       -0.81165650       1.34314963       0.02783094
O        0.42057473       1.53770715      -0.69242355
H        1.98065257      -0.12263328       0.65886703
H        1.01067464      -1.21484620      -1.22477553
H        1.56296735      -1.80919884       0.28500810
H       -0.53356021      -1.08005201       1.40398021
H       -0.90453033      -2.10456589       0.03659777
H       -1.45939307      -0.15860308      -1.35528871
H       -2.38304407      -0.08428268       0.13830507
H       -0.63742065       1.48433426       1.09911118
H       -1.45620244       2.14669071      -0.32403022
16
Frame=8 idx=008330 GeodesicLength=0.8191836736625344 rxn_smarts="[N:1](=[C:2]1/[C:3]([H:9])([H:10])[C:4]([H:11])([H:12])[C:5]([H:13])([H:14])[C:6]([H:15])([H:16])[O:7]1)\[H:8]>>[N:1]#[C:2][O:7][C:6]([C:5]([C:4]([C:3]([H:8])([H:9])[H:10])([H:11])[H:12])([H:13])[H:14])([H:15])[H:16]"
N        2.58473298       1.23539991       0.28445098
C        1.54471017       1.01681268      -0.29052171
C        0.95708196      -1.00625324      -0.14164976
C       -0.49588263      -1.13380242       0.30604779
C       -1.37120142      -0.02901446      -0.27454685
C       -0.80805390       1.34065571       0.03472711
O        0.41421249       1.54028263      -0.70021299
H        1.97525961      -0.10539491       0.70249322
H        1.01245388      -1.22969258      -1.21344444
H        1.55709337      -1.81461832       0.29425544
H       -0.54700545      -1.09210379       1.39922605
H       -0.90748239      -2.10611006       0.02120440
H       -1.45510213      -0.15283199      -1.35864885
H       -2.38420705      -0.08251433       0.13165236
H       -0.62161328       1.46979850       1.10544360
H       -1.45499622       2.14938667      -0.30047637
16
Frame=9 idx=008330 GeodesicLength=0.9208358063964741 rxn_smarts="[N:1](=[C:2]1/[C:3]([H:9])([H:10])[C:4]([H:11])([H:12])[C:5]([H:13])([H:14])[C:6]([H:15])([H:16])[O:7]1)\[H:8]>>[N:1]#[C:2][O:7][C:6]([C:5]([C:4]([C:3]([H:8])([H:9])[H:10])([H:11])[H:12])([H:13])[H:14])([H:15])[H:16]"
N        2.58773895       1.24694491       0.25619309
C        1.55197989       1.02925425      -0.32692522
C        0.95783673      -1.00724080      -0.13235629
C       -0.50000243      -1.13808904       0.30142431
C       -1.37061980      -0.02826336      -0.27688464
C       -0.80428477       1.33806927       0.04148856
O        0.40810593       1.54280951      -0.70755828
H        1.96964106      -0.08698676       0.74572121
H        1.01415912      -1.24401565      -1.20212674
H        1.55110890      -1.82013451       0.30319833
H       -0.56013590      -1.10401499       1.39438402
H       -0.91023034      -2.10761453       0.00590925
H       -1.45087146      -0.14714814      -1.36184549
H       -2.38522526      -0.08065457       0.12525906
H       -0.60591772       1.45530255       1.11141407
H       -1.45328292       2.15178187      -0.27729525
16
Frame=10 idx=008330 GeodesicLength=1.0225283206172169 rxn_smarts="[N:1](=[C:2]1/[C:3]([H:9])([H:10])[C:4]([H:11])([H:12])[C:5]([H:13])([H:14])[C:6]([H:15])([H:16])[O:7]1)\[H:8]>>[N:1]#[C:2][O:7][C:6]([C:5]([C:4]([C:3]([H:8])([H:9])[H:10])([H:11])[H:12])([H:13])[H:14])([H:15])[H:16]"
N        2.58963807       1.25710364       0.22900693
C        1.55867799       1.04178608      -0.36370046
C        0.95860196      -1.00813011      -0.12316862
C       -0.50394883      -1.14234443       0.29685488
C       -1.36997110      -0.02754063      -0.27906982
C       -0.80035056       1.33543343       0.04803961
O        0.40214735       1.54529377      -0.71474723
H        1.96405214      -0.06792120       0.78896302
H        1.01577052      -1.25769095      -1.19088719
H        1.54503102      -1.82579323       0.31160688
H       -0.57284755      -1.11567425       1.38947719
H       -0.91268549      -2.10904182      -0.00920657
H       -1.44676819      -0.14162768      -1.36482712
H       -2.38607392      -0.07870021       0.11925186
H       -0.59013581       1.44094228       1.11690586
H       -1.45113760       2.15390530      -0.25449922
16
Frame=11 idx=008330 GeodesicLength=1.1243583070871435 rxn_smarts="[N:1](=[C:2]1/[C:3]([H:9])([H:10])[C:4]([H:11])([H:12])[C:5]([H:13])([H:14])[C:6]([H:15])([H:16])[O:7]1)\[H:8]>>[N:1]#[C:2][O:7][C:6]([C:5]([C:4]([C:3]([H:8])([H:9])[H:10])([H:11])[H:12])([H:13])[H:14])([H:15])[H:16]"
N        2.59035358       1.26587009       0.20290666
C        1.56480627       1.05450971      -0.40093494
C        0.95939845      -1.00890782      -0.11410674
C       -0.50769882      -1.14655142       0.29234683
C       -1.36925341      -0.02684669      -0.28109611
C       -0.79625070       1.33275902       0.05435322
O        0.39630499       1.54771629      -0.72186908
H        1.95851074      -0.04838178       0.83256418
H        1.01728511      -1.27065570      -1.17978106
H        1.53885068      -1.83163640       0.31936346
H       -0.58509755      -1.12706498       1.38452153
H       -0.91483383      -2.11038016      -0.02411859
H       -1.44282693      -0.13628606      -1.36758780
H       -2.38673851      -0.07665782       0.11366204
H       -0.57423218       1.42674220       1.12189084
H       -1.44857789       2.15577153      -0.23211444
16
Frame=12 idx=008330 GeodesicLength=1.226300014029879 rxn_smarts="[N:1](=[C:2]1/[C:3]([H:9])([H:10])[C:4]([H:11])([H:12])[C:5]([H:13])([H:14])[C:6]([H:15])([H:16])[O:7]1)\[H:8]>>[N:1]#[C:2][O:7][C:6]([C:5]([C:4]([C:3]([H:8])([H:9])[H:10])([H:11])[H:12])([H:13])[H:14])([H:15])[H:16]"
N        2.58983425       1.27322654       0.17783723
C        1.57037098       1.06753011      -0.43864898
C        0.96024410      -1.00956807      -0.10518604
C       -0.51123487      -1.15069735       0.28790526
C       -1.36846450      -0.02618309      -0.28296173
C       -0.79198810       1.33005586       0.06040928
O        0.39056469       1.55005743      -0.72898592
H        1.95302062      -0.02852424       0.87681945
H        1.01869846      -1.28285345      -1.16885742
H        1.53257121      -1.83769804       0.32637341
H       -0.59685735      -1.13817081       1.37953755
H       -0.91666690      -2.11162486      -0.03880464
H       -1.43906742      -0.13113788      -1.37012687
H       -2.38721343      -0.07453666       0.10850673
H       -0.55819514       1.41273064       1.12635297
H       -1.44561662       2.15739388      -0.21017027
16
Frame=13 idx=008330 GeodesicLength=1.328336922595904 rxn_smarts="[N:1](=[C:2]1/[C:3]([H:9])([H:10])[C:4]([H:11])([H:12])[C:5]([H:13])([H:14])[C:6]([H:15])([H:16])[O:7]1)\[H:8]>>[N:1]#[C:2][O:7][C:6]([C:5]([C:4]([C:3]([H:8])([H:9])[H:10])([H:11])[H:12])([H:13])[H:14])([H:15])[H:16]"
N        2.58800623       1.27913196       0.15380882
C        1.57537077       1.08094910      -0.47690206
C        0.96115791      -1.01010419      -0.09642583
C       -0.51453759      -1.15477029       0.28353741
C       -1.36760214      -0.02555184      -0.28466101
C       -0.78755760       1.32733458       0.06618130
O        0.38490565       1.55229073      -0.73618013
H        1.94758607      -0.00848148       0.92202669
H        1.01999964      -1.29422785      -1.15817347
H        1.52620441      -1.84400458       0.33253999
H       -0.60809510      -1.14897504       1.37454371
H       -0.91817481      -2.11277094      -0.05324110
H       -1.43551872      -0.12620350      -1.37243946
H       -2.38749051      -0.07234258       0.10381562
H       -0.54199457       1.39893544       1.13026422
H       -1.44225963       2.15879048      -0.18869470
16
Frame=14 idx=008330 GeodesicLength=1.4303394218834762 rxn_smarts="[N:1](=[C:2]1/[C:3]([H:9])([H:10])[C:4]([H:11])([H:12])[C:5]([H:13])([H:14])[C:6]([H:15])([H:16])[O:7]1)\[H:8]>>[N:1]#[C:2][O:7][C:6]([C:5]([C:4]([C:3]([H:8])([H:9])[H:10])([H:11])[H:12])([H:13])[H:14])([H:15])[H:16]"
N        2.58481704       1.28355020       0.13078861
C        1.57981848       1.09486274      -0.51568713
C        0.96214982      -1.01052492      -0.08784847
C       -0.51759639      -1.15876519       0.27924915
C       -1.36666515      -0.02495603      -0.28619174
C       -0.78295491       1.32460108       0.07164786
O        0.37932109       1.55438479      -0.74351311
H        1.94220470       0.01167087       0.96843005
H        1.02117509      -1.30473729      -1.14779088
H        1.51976599      -1.85057925       0.33779030
H       -0.61878447      -1.15946579       1.36955748
H       -0.91936059      -2.11381837      -0.06740377
H       -1.43220536      -0.12149879      -1.37452475
H       -2.38756484      -0.07008068       0.09960819
H       -0.52561694       1.38537952       1.13360780
H       -1.43850357       2.15997711      -0.16771959
16
Frame=15 idx=008330 GeodesicLength=1.532249126458015 rxn_smarts="[N:1](=[C:2]1/[C:3]([H:9])([H:10])[C:4]([H:11])([H:12])[C:5]([H:13])([H:14])[C:6]([H:15])([H:16])[O:7]1)\[H:8]>>[N:1]#[C:2][O:7][C:6]([C:5]([C:4]([C:3]([H:8])([H:9])[H:10])([H:11])[H:12])([H:13])[H:14])([H:15])[H:16]"
N        2.58018390       1.28642662       0.10877175
C        1.58372179       1.10938833      -0.55500786
C        0.96323131      -1.01083627      -0.07947529
C       -0.52039934      -1.16267621       0.27504919
C       -1.36565185      -0.02439930      -0.28754950
C       -0.77817075       1.32186313       0.07678029
O        0.37380057       1.55630120      -0.75106212
H        1.93688892       0.03184435       1.01628318
H        1.02220925      -1.31433212      -1.13777268
H        1.51327443      -1.85744481       0.34204442
H       -0.62889704      -1.16962831       1.36459992
H       -0.92022587      -2.11476819      -0.08126668
H       -1.42915785      -0.11704593      -1.37637967
H       -2.38742900      -0.06775395       0.09591196
H       -0.50903806       1.37208887       1.13635559
H       -1.43434044       2.16097257      -0.14728252
16
Frame=16 idx=008330 GeodesicLength=1.6339601028694282 rxn_smarts="[N:1](=[C:2]1/[C:3]([H:9])([H:10])[C:4]([H:11])([H:12])[C:5]([H:13])([H:14])[C:6]([H:15])([H:16])[O:7]1)\[H:8]>>[N:1]#[C:2][O:7][C:6]([C:5]([C:4]([C:3]([H:8])([H:9])[H:10])([H:11])[H:12])([H:13])[H:14])([H:15])[H:16]"
N        2.57404262       1.28772769       0.08774719
C        1.58710324       1.12463292      -0.59482908
C        0.96440863      -1.01105744      -0.07133030
C       -0.52294027      -1.16650223       0.27094639
C       -1.36456146      -0.02388635      -0.28873144
C       -0.77319419       1.31912492       0.08155224
O        0.36834068       1.55799891      -0.75889938
H        1.93164003       0.05198846       1.06579477
H        1.02308269      -1.32297922      -1.12818292
H        1.50674709      -1.86461933       0.34523056
H       -0.63840757      -1.17945050       1.35969347
H       -0.92078353      -2.11562518      -0.09480167
H       -1.42640574      -0.11286627      -1.37800333
H       -2.38707823      -0.06536452       0.09275018
H       -0.49223730       1.35908437       1.13848563
H       -1.42975667       2.16179376      -0.12742231
