13
Frame=0 idx=007849 GeodesicLength=0.0 rxn_smarts="[O:1]([C@@:2]1([H:9])[C@:3]2([H:10])[O:4][C@@:5]1([H:11])[C@:6]2([O:7][H:13])[H:12])[H:8]>>[O:1]([C@@:2]1([H:9])[O:4][C@@:5]1([C@:6]([C:3][H:10])([O:7][H:13])[H:12])[H:11])[H:8]"
O       -2.44329583       0.21380763       0.39924748
C       -1.17236352       0.10268047       0.55348333
C        0.70714593      -1.22058699      -0.38479963
O       -0.47178344      -0.53063089      -1.24573661
C       -0.21845494       0.62072954      -0.42402459
C        1.19494454       0.18372940      -0.07367753
O        1.63131675       0.40693528       1.24733166
H       -2.66091602       0.67217588      -0.42706182
H       -0.87351577      -0.46955504       1.42003211
H        1.30686733      -1.76696281      -1.11685748
H       -0.46455518       1.58975855      -0.86892029
H        1.91676966       0.65029670      -0.75561017
H        1.54784052      -0.45237777       1.67659356
13
Frame=1 idx=007849 GeodesicLength=0.06564279045286865 rxn_smarts="[O:1]([C@@:2]1([H:9])[C@:3]2([H:10])[O:4][C@@:5]1([H:11])[C@:6]2([O:7][H:13])[H:12])[H:8]>>[O:1]([C@@:2]1([H:9])[O:4][C@@:5]1([C@:6]([C:3][H:10])([O:7][H:13])[H:12])[H:11])[H:8]"
O       -2.44321454       0.19461446       0.38937568
C       -1.16702177       0.08191734       0.53803643
C        0.68567273      -1.21176007      -0.37850173
O       -0.47389682      -0.50821873      -1.25360669
C       -0.21271352       0.63663138      -0.42125532
C        1.19614091       0.18624580      -0.07141092
O        1.63223768       0.41247129       1.24843981
H       -2.66209362       0.65033799      -0.43749057
H       -0.86936026      -0.46125750       1.42345149
H        1.27667034      -1.77927402      -1.10109805
H       -0.46012688       1.60982926      -0.85459959
H        1.92312930       0.63801962      -0.75724555
H        1.57457646      -0.44955682       1.67590501
13
Frame=2 idx=007849 GeodesicLength=0.1312964152676389 rxn_smarts="[O:1]([C@@:2]1([H:9])[C@:3]2([H:10])[O:4][C@@:5]1([H:11])[C@:6]2([O:7][H:13])[H:12])[H:8]>>[O:1]([C@@:2]1([H:9])[O:4][C@@:5]1([C@:6]([C:3][H:10])([O:7][H:13])[H:12])[H:11])[H:8]"
O       -2.44297544       0.17589626       0.37943515
C       -1.16147939       0.06213422       0.52305001
C        0.66505472      -1.20290357      -0.37241870
O       -0.47608885      -0.48680356      -1.26046247
C       -0.20726774       0.65183059      -0.41805054
C        1.19720338       0.18868554      -0.06899880
O        1.63314687       0.41740388       1.24975385
H       -2.66294564       0.62868661      -0.44817622
H       -0.86598574      -0.45234244       1.42624587
H        1.24664347      -1.79062326      -1.08601973
H       -0.45580645       1.62882981      -0.84050916
H        1.92887605       0.62612905      -0.75856717
H        1.60162475      -0.44692313       1.67471791
13
Frame=3 idx=007849 GeodesicLength=0.19695322796513026 rxn_smarts="[O:1]([C@@:2]1([H:9])[C@:3]2([H:10])[O:4][C@@:5]1([H:11])[C@:6]2([O:7][H:13])[H:12])[H:8]>>[O:1]([C@@:2]1([H:9])[O:4][C@@:5]1([C@:6]([C:3][H:10])([O:7][H:13])[H:12])[H:11])[H:8]"
O       -2.44261182       0.15762951       0.36944446
C       -1.15575606       0.04333426       0.50855912
C        0.64526824      -1.19405058      -0.36651312
O       -0.47839858      -0.46635717      -1.26635102
C       -0.20210161       0.66636417      -0.41446995
C        1.19814199       0.19105548      -0.06644802
O        1.63403692       0.42177557       1.25127184
H       -2.66349048       0.60733047      -0.45903476
H       -0.86338773      -0.44305097       1.42837894
H        1.21685095      -1.80106743      -1.07157246
H       -0.45157126       1.64681974      -0.82672333
H        1.93405531       0.61460123      -0.75960935
H        1.62896414      -0.44438427       1.67306763
13
Frame=4 idx=007849 GeodesicLength=0.26261459193729764 rxn_smarts="[O:1]([C@@:2]1([H:9])[C@:3]2([H:10])[O:4][C@@:5]1([H:11])[C@:6]2([O:7][H:13])[H:12])[H:8]>>[O:1]([C@@:2]1([H:9])[O:4][C@@:5]1([C@:6]([C:3][H:10])([O:7][H:13])[H:12])[H:11])[H:8]"
O       -2.44216097       0.13977171       0.35939170
C       -1.14989645       0.02551642       0.49458464
C        0.62625132      -1.18522276      -0.36074284
O       -0.48084566      -0.44680566      -1.27134014
C       -0.19719524       0.68030508      -0.41054917
C        1.19896397       0.19336607      -0.06376237
O        1.63488911       0.42563511       1.25299933
H       -2.66376806       0.58625680      -0.47004858
H       -0.86151029      -0.43353267       1.42981510
H        1.18728536      -1.81072219      -1.05766374
H       -0.44738889       1.66391905      -0.81323045
H        1.93872217       0.60340182      -0.76039701
H        1.65665363      -0.44188877       1.67094352
13
Frame=5 idx=007849 GeodesicLength=0.3283245826269793 rxn_smarts="[O:1]([C@@:2]1([H:9])[C@:3]2([H:10])[O:4][C@@:5]1([H:11])[C@:6]2([O:7][H:13])[H:12])[H:8]>>[O:1]([C@@:2]1([H:9])[O:4][C@@:5]1([C@:6]([C:3][H:10])([O:7][H:13])[H:12])[H:11])[H:8]"
O       -2.44164451       0.12227136       0.34927342
C       -1.14391981       0.00866649       0.48110672
C        0.60793557      -1.17641718      -0.35508466
O       -0.48343899      -0.42806336      -1.27551218
C       -0.19251295       0.69369341      -0.40632552
C        1.19967961       0.19561622      -0.06094757
O        1.63571662       0.42900162       1.25490721
H       -2.66379521       0.56546028      -0.48121748
H       -0.86033137      -0.42396345       1.43063097
H        1.15790815      -1.81964337      -1.04420721
H       -0.44320836       1.68021428      -0.80000743
H        1.94292205       0.59247918      -0.76093664
H        1.68468921      -0.43931548       1.66832036
13
Frame=6 idx=007849 GeodesicLength=0.3940969030321936 rxn_smarts="[O:1]([C@@:2]1([H:9])[C@:3]2([H:10])[O:4][C@@:5]1([H:11])[C@:6]2([O:7][H:13])[H:12])[H:8]>>[O:1]([C@@:2]1([H:9])[O:4][C@@:5]1([C@:6]([C:3][H:10])([O:7][H:13])[H:12])[H:11])[H:8]"
O       -2.44113022       0.10508273       0.33907100
C       -1.13786801      -0.00723515       0.46813418
C        0.59025573      -1.16766441      -0.34952237
O       -0.48616186      -0.41005037      -1.27892499
C       -0.18802146       0.70660944      -0.40179920
C        1.20031324       0.19782487      -0.05800302
O        1.63653486       0.43193034       1.25705730
H       -2.66365159       0.54487619      -0.49256268
H       -0.85984138      -0.41438250       1.43082379
H        1.12867392      -1.82797641      -1.03115721
H       -0.43900864       1.69581305      -0.78702618
H        1.94672896       0.58182221      -0.76127043
H        1.71317645      -0.43664997       1.66517980
13
Frame=7 idx=007849 GeodesicLength=0.4598852497086342 rxn_smarts="[O:1]([C@@:2]1([H:9])[C@:3]2([H:10])[O:4][C@@:5]1([H:11])[C@:6]2([O:7][H:13])[H:12])[H:8]>>[O:1]([C@@:2]1([H:9])[O:4][C@@:5]1([C@:6]([C:3][H:10])([O:7][H:13])[H:12])[H:11])[H:8]"
O       -2.44059557       0.08824062       0.32878309
C       -1.13179210      -0.02221622       0.45563190
C        0.57322812      -1.15892825      -0.34401740
O       -0.48909071      -0.39272379      -1.28162156
C       -0.18375773       0.71908400      -0.39709073
C        1.20081873       0.19995941      -0.05494049
O        1.63722324       0.43434419       1.25933876
H       -2.66325624       0.52456399      -0.50404579
H       -0.85987269      -0.40496894       1.43048546
H        1.09967652      -1.83568164      -1.01841600
H       -0.43477459       1.71079689      -0.77432159
H        1.95010257       0.57135532      -0.76136526
H        1.74209045      -0.43382559       1.66157962
13
Frame=8 idx=007849 GeodesicLength=0.5257894866486421 rxn_smarts="[O:1]([C@@:2]1([H:9])[C@:3]2([H:10])[O:4][C@@:5]1([H:11])[C@:6]2([O:7][H:13])[H:12])[H:8]>>[O:1]([C@@:2]1([H:9])[O:4][C@@:5]1([C@:6]([C:3][H:10])([O:7][H:13])[H:12])[H:11])[H:8]"
O       -2.44004520       0.07165419       0.31841242
C       -1.12564503      -0.03634832       0.44359302
C        0.55671823      -1.15027036      -0.33859788
O       -0.49210156      -0.37603593      -1.28367979
C       -0.17961679       0.73113098      -0.39209969
C        1.20124060       0.20205797      -0.05174418
O        1.63789413       0.43636633       1.26185705
H       -2.66268557       0.50448550      -0.51566622
H       -0.86055315      -0.39570864       1.42957960
H        1.07074988      -1.84290587      -1.00595762
H       -0.43046385       1.72517912      -0.76179766
H        1.95312173       0.56110986      -0.76123320
H        1.77138658      -0.43071483       1.65733415
13
Frame=9 idx=007849 GeodesicLength=0.5916977028654735 rxn_smarts="[O:1]([C@@:2]1([H:9])[C@:3]2([H:10])[O:4][C@@:5]1([H:11])[C@:6]2([O:7][H:13])[H:12])[H:8]>>[O:1]([C@@:2]1([H:9])[O:4][C@@:5]1([C@:6]([C:3][H:10])([O:7][H:13])[H:12])[H:11])[H:8]"
O       -2.43955494       0.05538136       0.30796281
C       -1.11954063      -0.04965058       0.43197824
C        0.54077464      -1.14166900      -0.33322910
O       -0.49530606      -0.35993326      -1.28514631
C       -0.17565873       0.74280363      -0.38695577
C        1.20157443       0.20408181      -0.04843599
O        1.63847472       0.43788935       1.26453054
H       -2.66195751       0.48467451      -0.52742209
H       -0.86170682      -0.38673371       1.42825328
H        1.04203861      -1.84961874      -0.99375288
H       -0.42607667       1.73906095      -0.74953968
H        1.95580644       0.55103766      -0.76091007
H        1.80113251      -0.42732397       1.65266702
13
Frame=10 idx=007849 GeodesicLength=0.6576940819710826 rxn_smarts="[O:1]([C@@:2]1([H:9])[C@:3]2([H:10])[O:4][C@@:5]1([H:11])[C@:6]2([O:7][H:13])[H:12])[H:8]>>[O:1]([C@@:2]1([H:9])[O:4][C@@:5]1([C@:6]([C:3][H:10])([O:7][H:13])[H:12])[H:11])[H:8]"
O       -2.43910824       0.03935209       0.29743238
C       -1.11342604      -0.06220354       0.42078192
C        0.52530528      -1.13315242      -0.32792137
O       -0.49859233      -0.34437540      -1.28608881
C       -0.17180921       0.75409722      -0.38159607
C        1.20183753       0.20604957      -0.04500086
O        1.63902469       0.43898373       1.26744739
H       -2.66109319       0.46513177      -0.53929602
H       -0.86345627      -0.37802539       1.42646411
H        1.01341688      -1.85591378      -0.98175969
H       -0.42158954       1.75243831      -0.73745396
H        1.95818865       0.54112920      -0.76037731
H        1.83130180      -0.42351136       1.64736829
13
Frame=11 idx=007849 GeodesicLength=0.7237180467090721 rxn_smarts="[O:1]([C@@:2]1([H:9])[C@:3]2([H:10])[O:4][C@@:5]1([H:11])[C@:6]2([O:7][H:13])[H:12])[H:8]>>[O:1]([C@@:2]1([H:9])[O:4][C@@:5]1([C@:6]([C:3][H:10])([O:7][H:13])[H:12])[H:11])[H:8]"
O       -2.43871846       0.02360474       0.28681046
C       -1.10738518      -0.07403705       0.40994814
C        0.51031132      -1.12473201      -0.32265837
O       -0.50206115      -0.32931262      -1.28654502
C       -0.16811848       0.76507050      -0.37610133
C        1.20201022       0.20793998      -0.04144896
O        1.63944927       0.43958679       1.27052128
H       -2.66007055       0.44584002      -0.55129695
H       -0.86559114      -0.36962530       1.42432108
H        0.98497438      -1.86180021      -0.96994724
H       -0.41700273       1.76541101      -0.72557200
H        1.96027438       0.53136723      -0.75964696
H        1.86192813      -0.41931308       1.64161587
13
Frame=12 idx=007849 GeodesicLength=0.7897509296158759 rxn_smarts="[O:1]([C@@:2]1([H:9])[C@:3]2([H:10])[O:4][C@@:5]1([H:11])[C@:6]2([O:7][H:13])[H:12])[H:8]>>[O:1]([C@@:2]1([H:9])[O:4][C@@:5]1([C@:6]([C:3][H:10])([O:7][H:13])[H:12])[H:11])[H:8]"
O       -2.43841700       0.00808033       0.27612284
C       -1.10137093      -0.08522209       0.39949937
C        0.49575876      -1.11639127      -0.31748916
O       -0.50554526      -0.31471430      -1.28658082
C       -0.16449925       0.77569485      -0.37042012
C        1.20213314       0.20974364      -0.03778703
O        1.63987457       0.43971121       1.27381574
H       -2.65895821       0.42683395      -0.56339670
H       -0.86828399      -0.36153800       1.42185665
H        0.95663781      -1.86732543      -0.95830496
H       -0.41230371       1.77795647      -0.71381983
H        1.96210256       0.52170088      -0.75873178
H        1.89287153      -0.41453025       1.63523579
13
Frame=13 idx=007849 GeodesicLength=0.8559443365298625 rxn_smarts="[O:1]([C@@:2]1([H:9])[C@:3]2([H:10])[O:4][C@@:5]1([H:11])[C@:6]2([O:7][H:13])[H:12])[H:8]>>[O:1]([C@@:2]1([H:9])[O:4][C@@:5]1([C@:6]([C:3][H:10])([O:7][H:13])[H:12])[H:11])[H:8]"
O       -2.43811739      -0.00717589       0.26532280
C       -1.09543170      -0.09575584       0.38933968
C        0.48158578      -1.10816853      -0.31233641
O       -0.50922810      -0.30054480      -1.28614559
C       -0.16100390       0.78603009      -0.36459076
C        1.20214358       0.21146831      -0.03399738
O        1.64013763       0.43936758       1.27728507
H       -2.65763430       0.40802725      -0.57562181
H       -0.87128625      -0.35378954       1.41900469
H        0.92838556      -1.87250579      -0.94680710
H       -0.40743367       1.79011507      -0.70219121
H        1.96362088       0.51217215      -0.75761421
H        1.92426189      -0.40924005       1.62835223
13
Frame=14 idx=007849 GeodesicLength=0.9221257093653887 rxn_smarts="[O:1]([C@@:2]1([H:9])[C@:3]2([H:10])[O:4][C@@:5]1([H:11])[C@:6]2([O:7][H:13])[H:12])[H:8]>>[O:1]([C@@:2]1([H:9])[O:4][C@@:5]1([C@:6]([C:3][H:10])([O:7][H:13])[H:12])[H:11])[H:8]"
O       -2.43793276      -0.02220462       0.25445757
C       -1.08957516      -0.10573188       0.37950490
C        0.46780393      -1.10006723      -0.30726882
O       -0.51297659      -0.28676812      -1.28537331
C       -0.15758638       0.79606087      -0.35862137
C        1.20211698       0.21308124      -0.03009944
O        1.64037492       0.43850212       1.28095654
H       -2.65624457       0.38951078      -0.58794181
H       -0.87471802      -0.34639112       1.41591719
H        0.90025688      -1.87736718      -0.93545617
H       -0.40243384       1.80193016      -0.69069542
H        1.96493262       0.50272668      -0.75632399
H        1.95598199      -0.40328170       1.62094412
13
Frame=15 idx=007849 GeodesicLength=0.9883346652905818 rxn_smarts="[O:1]([C@@:2]1([H:9])[C@:3]2([H:10])[O:4][C@@:5]1([H:11])[C@:6]2([O:7][H:13])[H:12])[H:8]>>[O:1]([C@@:2]1([H:9])[O:4][C@@:5]1([C@:6]([C:3][H:10])([O:7][H:13])[H:12])[H:11])[H:8]"
O       -2.43781376      -0.03700269       0.24353481
C       -1.08379245      -0.11519612       0.36996153
C        0.45438435      -1.09210396      -0.30228963
O       -0.51681081      -0.27337419      -1.28427024
C       -0.15423739       0.80578610      -0.35251755
C        1.20203582       0.21456866      -0.02609735
O        1.64055355       0.43711577       1.28480368
H       -2.65473752       0.37131566      -0.60030715
H       -0.87851633      -0.33936872       1.41257360
H        0.87225474      -1.88191627      -0.92426219
H       -0.39727011       1.81339421      -0.67931603
H        1.96601443       0.49335640      -0.75486110
H        1.98793549      -0.39657486       1.61304762
13
Frame=16 idx=007849 GeodesicLength=1.0545662551438477 rxn_smarts="[O:1]([C@@:2]1([H:9])[C@:3]2([H:10])[O:4][C@@:5]1([H:11])[C@:6]2([O:7][H:13])[H:12])[H:8]>>[O:1]([C@@:2]1([H:9])[O:4][C@@:5]1([C@:6]([C:3][H:10])([O:7][H:13])[H:12])[H:11])[H:8]"
O       -2.43774825      -0.05156720       0.23256871
C       -1.07808336      -0.12419267       0.36068684
C        0.44130874      -1.08429457      -0.29741395
O       -0.52073534      -0.26034882      -1.28286037
C       -0.15094798       0.81520478      -0.34628850
C        1.20190113       0.21591298      -0.02199772
O        1.64066490       0.43520639       1.28881481
H       -2.65310762       0.35347802      -0.61267947
H       -0.88263688      -0.33273883       1.40899211
H        0.84439726      -1.88616144      -0.91324558
H       -0.39192777       1.82450566      -0.66805294
H        1.96687235       0.48404748      -0.75323493
H        2.02004283      -0.38905178       1.60471098
