17
Frame=0 idx=010771 GeodesicLength=0.0 rxn_smarts="[O:1]=[C:2]([C:3]([C:4]([C:5]1([H:13])[C:6]([H:14])([H:15])[C:7]1([H:16])[H:17])([H:11])[H:12])([H:9])[H:10])[H:8]>>[O:1]([C:2]([C:3]([C:4]([C:5]1=[C:6]([H:15])[C:7]1([H:16])[H:17])([H:11])[H:12])([H:9])[H:10])([H:8])[H:13])[H:14]"
O        0.74659199      -1.88963156      -0.51961039
C        1.18274144      -0.68137328      -0.78737158
C        1.63703286       0.21085526       0.39444126
C        0.45202084       1.17640218       0.61906676
C       -0.66841117       0.37005373       0.01936394
C       -1.31984026      -0.78767382       0.37498447
C       -2.09489038       0.26245583      -0.39036605
H        1.72852718      -0.59105518      -1.73285825
H        1.79130654      -0.43636780       1.25855919
H        2.57126879       0.73498262       0.18949682
H        0.59347857       2.11622348       0.08129883
H        0.26806680       1.41002241       1.66925638
H        0.14428575      -0.02494058      -1.06387100
H       -0.36951653      -1.68464003      -0.17686085
H       -1.50882690      -1.15900829       1.37270717
H       -2.33222858       0.08770281      -1.43512642
H       -2.82160694       0.88599220       0.12688970
17
Frame=1 idx=010771 GeodesicLength=0.1548913127645189 rxn_smarts="[O:1]=[C:2]([C:3]([C:4]([C:5]1([H:13])[C:6]([H:14])([H:15])[C:7]1([H:16])[H:17])([H:11])[H:12])([H:9])[H:10])[H:8]>>[O:1]([C:2]([C:3]([C:4]([C:5]1=[C:6]([H:15])[C:7]1([H:16])[H:17])([H:11])[H:12])([H:9])[H:10])([H:8])[H:13])[H:14]"
O        0.76962949      -1.90146950      -0.46670343
C        1.20434930      -0.70364188      -0.77794521
C        1.64812350       0.23144269       0.36957991
C        0.44226710       1.15476816       0.63647858
C       -0.67580998       0.36769923       0.01242087
C       -1.34579107      -0.78256263       0.36269159
C       -2.10321732       0.28307669      -0.39797780
H        1.76642032      -0.65268260      -1.71714569
H        1.87981322      -0.38365223       1.23961492
H        2.55152756       0.78456669       0.10672736
H        0.56593814       2.12348440       0.14841131
H        0.25811539       1.33611007       1.69714408
H        0.14338401      -0.03301622      -1.07659732
H       -0.38686359      -1.70131458      -0.16997178
H       -1.55679760      -1.15854844       1.35431807
H       -2.34122541       0.12117070      -1.44466841
H       -2.81986308       0.91456944       0.12362293
17
Frame=2 idx=010771 GeodesicLength=0.30901263946434676 rxn_smarts="[O:1]=[C:2]([C:3]([C:4]([C:5]1([H:13])[C:6]([H:14])([H:15])[C:7]1([H:16])[H:17])([H:11])[H:12])([H:9])[H:10])[H:8]>>[O:1]([C:2]([C:3]([C:4]([C:5]1=[C:6]([H:15])[C:7]1([H:16])[H:17])([H:11])[H:12])([H:9])[H:10])([H:8])[H:13])[H:14]"
O        0.79249305      -1.91148452      -0.40978679
C        1.22706701      -0.72680096      -0.76659193
C        1.65837267       0.25296876       0.34335297
C        0.43303782       1.13124033       0.65442339
C       -0.68318667       0.36544672       0.00550102
C       -1.37218668      -0.77727869       0.34891300
C       -2.11112005       0.30485214      -0.40577684
H        1.80649671      -0.71689023      -1.69685847
H        1.96984935      -0.32347386       1.21474439
H        2.52446690       0.83450194       0.02005383
H        0.53829016       2.12726667       0.22054139
H        0.25063886       1.25685858       1.72365166
H        0.14251135      -0.04178726      -1.08944337
H       -0.40419640      -1.71816673      -0.16272265
H       -1.60579914      -1.15819484       1.33366970
H       -2.34939329       0.15710055      -1.45451838
H       -2.81734166       0.94384140       0.12084707
17
Frame=3 idx=010771 GeodesicLength=0.4623343610393542 rxn_smarts="[O:1]=[C:2]([C:3]([C:4]([C:5]1([H:13])[C:6]([H:14])([H:15])[C:7]1([H:16])[H:17])([H:11])[H:12])([H:9])[H:10])[H:8]>>[O:1]([C:2]([C:3]([C:4]([C:5]1=[C:6]([H:15])[C:7]1([H:16])[H:17])([H:11])[H:12])([H:9])[H:10])([H:8])[H:13])[H:14]"
O        0.81512902      -1.91928996      -0.34958507
C        1.25109226      -0.75059814      -0.75319098
C        1.66743950       0.27517614       0.31596680
C        0.42446710       1.10595175       0.67250815
C       -0.69050535       0.36343863      -0.00142489
C       -1.39872571      -0.77177626       0.33366803
C       -2.11859064       0.32773468      -0.41344228
H        1.84942626      -0.78281871      -1.67122101
H        2.05941491      -0.25577480       1.18357621
H        2.48950238       0.88339620      -0.06965090
H        0.51121242       2.12690010       0.29697925
H        0.24581302       1.17278315       1.74785385
H        0.14161379      -0.05122905      -1.10251391
H       -0.42126085      -1.73507965      -0.15515782
H       -1.65514562      -1.15790291       1.31081037
H       -2.35686048       0.19549997      -1.46426984
H       -2.81402201       0.97358884       0.11909404
17
Frame=4 idx=010771 GeodesicLength=0.6148591474408581 rxn_smarts="[O:1]=[C:2]([C:3]([C:4]([C:5]1([H:13])[C:6]([H:14])([H:15])[C:7]1([H:16])[H:17])([H:11])[H:12])([H:9])[H:10])[H:8]>>[O:1]([C:2]([C:3]([C:4]([C:5]1=[C:6]([H:15])[C:7]1([H:16])[H:17])([H:11])[H:12])([H:9])[H:10])([H:8])[H:13])[H:14]"
O        0.83749133      -1.92461640      -0.28741981
C        1.27662458      -0.77464679      -0.73779498
C        1.67497171       0.29761418       0.28782209
C        0.41667205       1.07923313       0.69015026
C       -0.69773696       0.36181603      -0.00840100
C       -1.42502948      -0.76601715       0.31712473
C       -2.12567912       0.35156946      -0.42051827
H        1.89594561      -0.84913564      -1.63962262
H        2.14595268      -0.18114767       1.14628058
H        2.44660982       0.92946543      -0.16083162
H        0.48553314       2.12184923       0.37626608
H        0.24362523       1.08509793       1.76866095
H        0.14058045      -0.06123352      -1.11599456
H       -0.43783960      -1.75190804      -0.14746214
H       -1.70389325      -1.15762365       1.28603842
H       -2.36390756       0.23620667      -1.47335857
H       -2.80992063       1.00347680       0.11906045
17
Frame=5 idx=010771 GeodesicLength=0.7664460534537592 rxn_smarts="[O:1]=[C:2]([C:3]([C:4]([C:5]1([H:13])[C:6]([H:14])([H:15])[C:7]1([H:16])[H:17])([H:11])[H:12])([H:9])[H:10])[H:8]>>[O:1]([C:2]([C:3]([C:4]([C:5]1=[C:6]([H:15])[C:7]1([H:16])[H:17])([H:11])[H:12])([H:9])[H:10])([H:8])[H:13])[H:14]"
O        0.85946614      -1.92743173      -0.22489604
C        1.30376440      -0.79850044      -0.72054924
C        1.68068528       0.31974033       0.25943771
C        0.40971772       1.05163059       0.70667891
C       -0.70485574       0.36070891      -0.01548596
C       -1.45066941      -0.76002679       0.29953874
C       -2.13246064       0.37612606      -0.42649260
H        1.94664594      -0.91429637      -1.60155454
H        2.22688366      -0.10084382       1.10351790
H        2.39649118       0.97083479      -0.25155314
H        0.46202328       2.11200530       0.45639154
H        0.24390466       0.99563608       1.78505455
H        0.13922969      -0.07158546      -1.13006769
H       -0.45388927      -1.76855915      -0.14013315
H       -1.75094464      -1.15744846       1.25975472
H       -2.37093220       0.27892074      -1.48110987
H       -2.80506004       1.03308943       0.12146816
17
Frame=6 idx=010771 GeodesicLength=0.9175907193131594 rxn_smarts="[O:1]=[C:2]([C:3]([C:4]([C:5]1([H:13])[C:6]([H:14])([H:15])[C:7]1([H:16])[H:17])([H:11])[H:12])([H:9])[H:10])[H:8]>>[O:1]([C:2]([C:3]([C:4]([C:5]1=[C:6]([H:15])[C:7]1([H:16])[H:17])([H:11])[H:12])([H:9])[H:10])([H:8])[H:13])[H:14]"
O        0.88113343      -1.92795806      -0.16378478
C        1.33273185      -0.82173656      -0.70181171
C        1.68453243       0.34090978       0.23136676
C        0.40362942       1.02367909       0.72142310
C       -0.71191941       0.36016916      -0.02274401
C       -1.47544130      -0.75378831       0.28135023
C       -2.13921435       0.40112452      -0.43088014
H        2.00207633      -0.97660012      -1.55702477
H        2.30000411      -0.01645200       1.05652987
H        2.34069008       1.00576984      -0.33983080
H        0.44142574       2.09747954       0.53511246
H        0.24613245       0.90640831       1.79627352
H        0.13740562      -0.08200718      -1.14501545
H       -0.46947833      -1.78491776      -0.13369574
H       -1.79549304      -1.15734820       1.23271816
H       -2.37850928       0.32324155      -1.48693177
H       -2.79970575       1.06202641       0.12694509
17
Frame=7 idx=010771 GeodesicLength=1.0683985797759474 rxn_smarts="[O:1]=[C:2]([C:3]([C:4]([C:5]1([H:13])[C:6]([H:14])([H:15])[C:7]1([H:16])[H:17])([H:11])[H:12])([H:9])[H:10])[H:8]>>[O:1]([C:2]([C:3]([C:4]([C:5]1=[C:6]([H:15])[C:7]1([H:16])[H:17])([H:11])[H:12])([H:9])[H:10])([H:8])[H:13])[H:14]"
O        0.90249493      -1.92660693      -0.10534085
C        1.36358037      -0.84408018      -0.68184501
C        1.68658481       0.36066296       0.20399472
C        0.39835144       0.99586560       0.73393555
C       -0.71896734       0.36019886      -0.03021473
C       -1.49921082      -0.74731972       0.26289882
C       -2.14609889       0.42632819      -0.43333857
H        2.06231637      -1.03482077      -1.50605498
H        2.36404707       0.07048941       1.00645047
H        2.28097006       1.03314532      -0.42426371
H        0.42405746       2.07876580       0.61063743
H        0.24977153       0.81916108       1.80203401
H        0.13493309      -0.09222217      -1.16100701
H       -0.48483480      -1.80096390      -0.12885993
H       -1.83700087      -1.15738984       1.20545957
H       -2.38702694       0.36880933      -1.49034653
H       -2.79396747       1.08997695       0.13586075
17
Frame=8 idx=010771 GeodesicLength=1.2190870332565769 rxn_smarts="[O:1]=[C:2]([C:3]([C:4]([C:5]1([H:13])[C:6]([H:14])([H:15])[C:7]1([H:16])[H:17])([H:11])[H:12])([H:9])[H:10])[H:8]>>[O:1]([C:2]([C:3]([C:4]([C:5]1=[C:6]([H:15])[C:7]1([H:16])[H:17])([H:11])[H:12])([H:9])[H:10])([H:8])[H:13])[H:14]"
O        0.92362045      -1.92385711      -0.05030314
C        1.39637375      -0.86541356      -0.66085116
C        1.68707624       0.37868679       0.17751686
C        0.39377829       0.96852128       0.74401431
C       -0.72606471       0.36076003      -0.03791449
C       -1.52200950      -0.74062285       0.24445747
C       -2.15326740       0.45157738      -0.43368830
H        2.12720838      -1.08816821      -1.44876599
H        2.41864035       0.15867791       0.95418643
H        2.21910701       1.05240552      -0.50414520
H        0.40990434       2.05649906       0.68177210
H        0.25424675       0.73513854       1.80253139
H        0.13166651      -0.10198938      -1.17820135
H       -0.50022238      -1.81672301      -0.12628052
H       -1.87532554      -1.15761717       1.17841394
H       -2.39675771       0.41535453      -1.49109665
H       -2.78797485       1.11677025       0.14835431
17
Frame=9 idx=010771 GeodesicLength=1.3693345250112223 rxn_smarts="[O:1]=[C:2]([C:3]([C:4]([C:5]1([H:13])[C:6]([H:14])([H:15])[C:7]1([H:16])[H:17])([H:11])[H:12])([H:9])[H:10])[H:8]>>[O:1]([C:2]([C:3]([C:4]([C:5]1=[C:6]([H:15])[C:7]1([H:16])[H:17])([H:11])[H:12])([H:9])[H:10])([H:8])[H:13])[H:14]"
O        0.94447915      -1.92014711       0.00106915
C        1.43100299      -0.88570487      -0.63884084
C        1.68615640       0.39484295       0.15192358
C        0.38974712       0.94183722       0.75159991
C       -0.73322327       0.36182467      -0.04584567
C       -1.54379279      -0.73370299       0.22616340
C       -2.16065658       0.47679849      -0.43184932
H        2.19627387      -1.13625404      -1.38493617
H        2.46390568       0.24706738       0.90010437
H        2.15645567       1.06346370      -0.57933239
H        0.39864297       2.03135715       0.74792084
H        0.25912960       0.65502999       1.79814277
H        0.12744319      -0.11106640      -1.19663659
H       -0.51588602      -1.83224681      -0.12660717
H       -1.91036161      -1.15813529       1.15171832
H       -2.40768527       0.46270093      -1.48896129
H       -2.78163108       1.14233502       0.16436709
17
Frame=10 idx=010771 GeodesicLength=1.519587625731433 rxn_smarts="[O:1]=[C:2]([C:3]([C:4]([C:5]1([H:13])[C:6]([H:14])([H:15])[C:7]1([H:16])[H:17])([H:11])[H:12])([H:9])[H:10])[H:8]>>[O:1]([C:2]([C:3]([C:4]([C:5]1=[C:6]([H:15])[C:7]1([H:16])[H:17])([H:11])[H:12])([H:9])[H:10])([H:8])[H:13])[H:14]"
O        0.96524086      -1.91587830       0.04877062
C        1.46767152      -0.90501888      -0.61580999
C        1.68421245       0.40903499       0.12716956
C        0.38623921       0.91585698       0.75677702
C       -0.74052108       0.36331104      -0.05401536
C       -1.56486221      -0.72655006       0.20815009
C       -2.16842706       0.50191947      -0.42785726
H        2.26904760      -1.17869853      -1.31480016
H        2.50035031       0.33506591       0.84460394
H        2.09433833       1.06641719      -0.65000671
H        0.39019826       2.00384961       0.80884091
H        0.26396931       0.57917387       1.78947863
H        0.12218966      -0.11932072      -1.21647965
H       -0.53207105      -1.84758482      -0.13024947
H       -1.94255451      -1.15893363       1.12562954
H       -2.41995321       0.51072809      -1.48398997
H       -2.77506840       1.16662779       0.18378826
17
Frame=11 idx=010771 GeodesicLength=1.6697559313062604 rxn_smarts="[O:1]=[C:2]([C:3]([C:4]([C:5]1([H:13])[C:6]([H:14])([H:15])[C:7]1([H:16])[H:17])([H:11])[H:12])([H:9])[H:10])[H:8]>>[O:1]([C:2]([C:3]([C:4]([C:5]1=[C:6]([H:15])[C:7]1([H:16])[H:17])([H:11])[H:12])([H:9])[H:10])([H:8])[H:13])[H:14]"
O        0.98595352      -1.91135233       0.09306079
C        1.50641039      -0.92340422      -0.59154097
C        1.68143125       0.42129447       0.10305440
C        0.38317681       0.89055269       0.75964959
C       -0.74799309       0.36520333      -0.06242843
C       -1.58530934      -0.71914882       0.19041394
C       -2.17655516       0.52696786      -0.42175252
H        2.34499159      -1.21540625      -1.23795473
H        2.52854785       0.42223165       0.78750116
H        2.03355128       1.06149557      -0.71665088
H        0.38427183       1.97441208       0.86468284
H        0.26858454       0.50749843       1.77705462
H        0.11575895      -0.12658317      -1.23779672
H       -0.54895017      -1.86277448      -0.13768628
H       -1.97210500      -1.16010564       1.10007732
H       -2.43353710       0.55944866      -1.47613563
H       -2.76822816       1.18967016       0.20645149
17
Frame=12 idx=010771 GeodesicLength=1.8198272121139116 rxn_smarts="[O:1]=[C:2]([C:3]([C:4]([C:5]1([H:13])[C:6]([H:14])([H:15])[C:7]1([H:16])[H:17])([H:11])[H:12])([H:9])[H:10])[H:8]>>[O:1]([C:2]([C:3]([C:4]([C:5]1=[C:6]([H:15])[C:7]1([H:16])[H:17])([H:11])[H:12])([H:9])[H:10])([H:8])[H:13])[H:14]"
O        1.00671764      -1.90681402       0.13420745
C        1.54735933      -0.94092147      -0.56576681
C        1.67803580       0.43160500       0.07940618
C        0.38052290       0.86586393       0.76031371
C       -0.75565192       0.36746333      -0.07109837
C       -1.60528656      -0.71148661       0.17294203
C       -2.18499682       0.55194466      -0.41355539
H        2.42345559      -1.24614830      -1.15423530
H        2.54898314       0.50821869       0.72865760
H        1.97477199       1.04888670      -0.77972228
H        0.38067984       1.94338277       0.91554413
H        0.27269990       0.43990965       1.76137186
H        0.10804551      -0.13270992      -1.26070316
H       -0.56665102      -1.87781436      -0.14929692
H       -1.99932397      -1.16169645       1.07501836
H       -2.44834849       0.60888653      -1.46535914
H       -2.76101286       1.21142985       0.23227606
17
Frame=13 idx=010771 GeodesicLength=1.9698231041570302 rxn_smarts="[O:1]=[C:2]([C:3]([C:4]([C:5]1([H:13])[C:6]([H:14])([H:15])[C:7]1([H:16])[H:17])([H:11])[H:12])([H:9])[H:10])[H:8]>>[O:1]([C:2]([C:3]([C:4]([C:5]1=[C:6]([H:15])[C:7]1([H:16])[H:17])([H:11])[H:12])([H:9])[H:10])([H:8])[H:13])[H:14]"
O        1.02761477      -1.90243065       0.17250310
C        1.59064553      -0.95758252      -0.53813994
C        1.67417567       0.43999695       0.05596090
C        0.37825406       0.84170146       0.75887050
C       -0.76353700       0.37011149      -0.08003320
C       -1.62489650      -0.70352463       0.15566397
C       -2.19374704       0.57689971      -0.40326768
H        2.50399211      -1.27079371      -1.06291990
H        2.56216925       0.59275102       0.66755892
H        1.91844334       1.02871444      -0.83979729
H        0.37925773       1.91098760       0.96176297
H        0.27626400       0.37610880       1.74284326
H        0.09885548      -0.13752070      -1.28534550
H       -0.58529214      -1.89265519      -0.16556385
H       -2.02442408      -1.16378518       1.05028152
H       -2.46439911       0.65911522      -1.45157918
H       -2.75337606       1.23190587       0.26120138
17
Frame=14 idx=010771 GeodesicLength=2.119631932930809 rxn_smarts="[O:1]=[C:2]([C:3]([C:4]([C:5]1([H:13])[C:6]([H:14])([H:15])[C:7]1([H:16])[H:17])([H:11])[H:12])([H:9])[H:10])[H:8]>>[O:1]([C:2]([C:3]([C:4]([C:5]1=[C:6]([H:15])[C:7]1([H:16])[H:17])([H:11])[H:12])([H:9])[H:10])([H:8])[H:13])[H:14]"
O        1.04875717      -1.89835982       0.20819884
C        1.63643299      -0.97335904      -0.50820321
C        1.66998178       0.44640829       0.03251810
C        0.37635989       0.81797684       0.75535988
C       -0.77163985       0.37315571      -0.08925990
C       -1.64419442      -0.69524817       0.13852199
C       -2.20271047       0.60185107      -0.39085634
H        2.58586572      -1.28893409      -0.96356328
H        2.56838162       0.67542962       0.60382379
H        1.86492832       1.00096418      -0.89729180
H        0.37991708       1.87743238       1.00341217
H        0.27912483       0.31588153       1.72181782
H        0.08801217      -0.14077935      -1.31188225
H       -0.60492524      -1.90719897      -0.18689738
H       -2.04755425      -1.16645643       1.02573310
H       -2.48157570       0.71022522      -1.43466473
H       -2.74516163       1.25101103       0.29323320
17
Frame=15 idx=010771 GeodesicLength=2.2693470042970825 rxn_smarts="[O:1]=[C:2]([C:3]([C:4]([C:5]1([H:13])[C:6]([H:14])([H:15])[C:7]1([H:16])[H:17])([H:11])[H:12])([H:9])[H:10])[H:8]>>[O:1]([C:2]([C:3]([C:4]([C:5]1=[C:6]([H:15])[C:7]1([H:16])[H:17])([H:11])[H:12])([H:9])[H:10])([H:8])[H:13])[H:14]"
O        1.07024822      -1.89471436       0.24144632
C        1.68492735      -0.98817031      -0.47548776
C        1.66557412       0.45080025       0.00875773
C        0.37486652       0.79459728       0.74981891
C       -0.78000054       0.37665841      -0.09879136
C       -1.66327684      -0.68661876       0.12140966
C       -2.21189737       0.62684150      -0.37622313
H        2.66863884      -1.30018561      -0.85497211
H        2.56798386       0.75593217       0.53667872
H        1.81451832       0.96547882      -0.95272757
H        0.38267839       1.84282846       1.04079500
H        0.28130556       0.25887939       1.69854159
H        0.07523969      -0.14220251      -1.34056294
H       -0.62566107      -1.92129665      -0.21389179
H       -2.06888727      -1.16983379       1.00113117
H       -2.49994311       0.76232791      -1.41440039
H       -2.73631465       1.26867781       0.32847796
17
Frame=16 idx=010771 GeodesicLength=2.4187806073930385 rxn_smarts="[O:1]=[C:2]([C:3]([C:4]([C:5]1([H:13])[C:6]([H:14])([H:15])[C:7]1([H:16])[H:17])([H:11])[H:12])([H:9])[H:10])[H:8]>>[O:1]([C:2]([C:3]([C:4]([C:5]1=[C:6]([H:15])[C:7]1([H:16])[H:17])([H:11])[H:12])([H:9])[H:10])([H:8])[H:13])[H:14]"
O        1.09226266      -1.89157695       0.27237961
C        1.73629546      -1.00183285      -0.43932214
C        1.66101385       0.45299551      -0.01555287
C        0.37380152       0.77143839       0.74220211
C       -0.78858804       0.38067180      -0.10866712
C       -1.68208466      -0.67758860       0.10423869
C       -2.22116652       0.65187378      -0.35925555
H        2.75131450      -1.30374726      -0.73635318
H        2.56104401       0.83360633       0.46558076
H        1.76740011       0.92186218      -1.00640139
H        0.38757047       1.80724382       1.07383717
H        0.28277386       0.20484867       1.67319469
H        0.06023628      -0.14135714      -1.37161973
H       -0.64749715      -1.93466860      -0.24704940
H       -2.08836307      -1.17399617       0.97626485
H       -2.51939369       0.81553811      -1.39051642
H       -2.72661960       1.28468898       0.36703993
