16
Frame=0 idx=009642 GeodesicLength=0.0 rxn_smarts="[C:1]([C@@:2]1([H:11])[N:3]([H:12])[C@:4]1([C@@:5]1([H:14])[C:6]([H:15])([H:16])[O:7]1)[H:13])([H:8])([H:9])[H:10]>>[C:1]([C@@:2]1([H:11])[N:3]([H:12])[C@:4]1([C:5]([O+:7]=[C-:6][H:16])([H:14])[H:15])[H:13])([H:8])([H:9])[H:10]"
C       -1.90905520      -0.42741663      -0.05421285
C       -1.07861934       0.64372297       0.60008600
N        0.02203787       0.31170110       1.50207567
C        0.32409663       0.91593313       0.21150538
C        0.99877927       0.11224560      -0.86880757
C        2.46841238      -1.03429445      -0.45743391
O        1.10925444      -1.28391996      -0.60120416
H       -2.43490580      -0.02489548      -0.92279220
H       -2.66107882      -0.79878220       0.64463753
H       -1.30493378      -1.27375959      -0.38183720
H       -1.64980361       1.50186730       0.94286233
H        0.20857094      -0.68613316       1.44360417
H        0.68171838       1.93930261       0.27241170
H        0.58127159       0.23028040      -1.86891290
H        2.07539097       0.47224680      -1.03365684
H        2.56886403      -0.59809848       0.57167481
16
Frame=1 idx=009642 GeodesicLength=0.06174712194255038 rxn_smarts="[C:1]([C@@:2]1([H:11])[N:3]([H:12])[C@:4]1([C@@:5]1([H:14])[C:6]([H:15])([H:16])[O:7]1)[H:13])([H:8])([H:9])[H:10]>>[C:1]([C@@:2]1([H:11])[N:3]([H:12])[C@:4]1([C:5]([O+:7]=[C-:6][H:16])([H:14])[H:15])[H:13])([H:8])([H:9])[H:10]"
C       -1.91111070      -0.42875549      -0.05331339
C       -1.08145072       0.64363801       0.59991717
N        0.01899334       0.31355838       1.50330912
C        0.32122078       0.91653159       0.21209211
C        1.00109145       0.11516716      -0.86665021
C        2.46123099      -1.03533483      -0.45832082
O        1.10489461      -1.28253494      -0.60223274
H       -2.43766453      -0.02725377      -0.92194567
H       -2.66254347      -0.80049055       0.64600064
H       -1.30644998      -1.27472027      -0.38073372
H       -1.65366307       1.50140744       0.94195249
H        0.20566034      -0.68433338       1.44667275
H        0.67707684       1.94065069       0.27249856
H        0.58430172       0.23777718      -1.86662758
H        2.09685708       0.46426247      -1.03978597
H        2.58155532      -0.59956968       0.56716726
16
Frame=2 idx=009642 GeodesicLength=0.12345954780199925 rxn_smarts="[C:1]([C@@:2]1([H:11])[N:3]([H:12])[C@:4]1([C@@:5]1([H:14])[C:6]([H:15])([H:16])[O:7]1)[H:13])([H:8])([H:9])[H:10]>>[C:1]([C@@:2]1([H:11])[N:3]([H:12])[C@:4]1([C:5]([O+:7]=[C-:6][H:16])([H:14])[H:15])[H:13])([H:8])([H:9])[H:10]"
C       -1.91319308      -0.43009575      -0.05242194
C       -1.08434175       0.64355073       0.59977907
N        0.01587839       0.31541486       1.50458248
C        0.31828283       0.91716619       0.21274073
C        1.00339962       0.11816156      -0.86439510
C        2.45405103      -1.03626381      -0.45900728
O        1.10054897      -1.28105097      -0.60326185
H       -2.44044150      -0.02960411      -0.92110631
H       -2.66403993      -0.80222929       0.64733402
H       -1.30797059      -1.27566247      -0.37964733
H       -1.65760316       1.50092531       0.94108336
H        0.20268416      -0.68252936       1.44976934
H        0.67238484       1.94202509       0.27267609
H        0.58740356       0.24537854      -1.86425125
H        2.11854561       0.45582453      -1.04635689
H        2.59441101      -0.60101104       0.56248288
16
Frame=3 idx=009642 GeodesicLength=0.18515868799512153 rxn_smarts="[C:1]([C@@:2]1([H:11])[N:3]([H:12])[C@:4]1([C@@:5]1([H:14])[C:6]([H:15])([H:16])[O:7]1)[H:13])([H:8])([H:9])[H:10]>>[C:1]([C@@:2]1([H:11])[N:3]([H:12])[C@:4]1([C:5]([O+:7]=[C-:6][H:16])([H:14])[H:15])[H:13])([H:8])([H:9])[H:10]"
C       -1.91530271      -0.43143789      -0.05153952
C       -1.08729535       0.64346108       0.59967331
N        0.01268906       0.31727083       1.50589877
C        0.31527989       0.91783970       0.21345547
C        1.00570280       0.12123317      -0.86203634
C        2.44687192      -1.03707188      -0.45948548
O        1.09621968      -1.27946412      -0.60428927
H       -2.44323614      -0.03194673      -0.92027564
H       -2.66556907      -0.80400087       0.64863505
H       -1.30949414      -1.27658518      -0.37857924
H       -1.66162856       1.50041950       0.94025667
H        0.19963949      -0.68072064       1.45289623
H        0.66763811       1.94342886       0.27295104
H        0.59058398       0.25309280      -1.86177978
H        2.14046554       0.44689982      -1.05339480
H        2.60743550      -0.60241844       0.55761353
16
Frame=4 idx=009642 GeodesicLength=0.2468581138461563 rxn_smarts="[C:1]([C@@:2]1([H:11])[N:3]([H:12])[C@:4]1([C@@:5]1([H:14])[C:6]([H:15])([H:16])[O:7]1)[H:13])([H:8])([H:9])[H:10]>>[C:1]([C@@:2]1([H:11])[N:3]([H:12])[C@:4]1([C:5]([O+:7]=[C-:6][H:16])([H:14])[H:15])[H:13])([H:8])([H:9])[H:10]"
C       -1.91743967      -0.43278230      -0.05066761
C       -1.09031446       0.64336902       0.59960150
N        0.00942108       0.31912666       1.50726130
C        0.31220906       0.91855499       0.21424097
C        1.00800110       0.12438680      -0.85956733
C        2.43969327      -1.03774823      -0.45974909
O        1.09190849      -1.27777035      -0.60531192
H       -2.44604745      -0.03428159      -0.91945570
H       -2.66713163      -0.80580792       0.64990033
H       -1.31101881      -1.27748728      -0.37753115
H       -1.66574417       1.49988858       0.93947414
H        0.19652332      -0.67890659       1.45605604
H        0.66283213       1.94486529       0.27333063
H        0.59384949       0.26092813      -1.85920797
H        2.16262371       0.43745175      -1.06092512
H        2.62063454      -0.60378695       0.55255097
16
Frame=5 idx=009642 GeodesicLength=0.3085761178953661 rxn_smarts="[C:1]([C@@:2]1([H:11])[N:3]([H:12])[C@:4]1([C@@:5]1([H:14])[C:6]([H:15])([H:16])[O:7]1)[H:13])([H:8])([H:9])[H:10]>>[C:1]([C@@:2]1([H:11])[N:3]([H:12])[C@:4]1([C:5]([O+:7]=[C-:6][H:16])([H:14])[H:15])[H:13])([H:8])([H:9])[H:10]"
C       -1.91960429      -0.43412973      -0.04980722
C       -1.09340237       0.64327465       0.59956506
N        0.00606989       0.32098327       1.50867336
C        0.30906712       0.91931522       0.21510166
C        1.01029348       0.12762758      -0.85698175
C        2.43251678      -1.03828213      -0.45979393
O        1.08761731      -1.27596522      -0.60632674
H       -2.44887497      -0.03660954      -0.91864802
H       -2.66872826      -0.80765337       0.65112735
H       -1.31254275      -1.27836787      -0.37650417
H       -1.66995531       1.49933124       0.93873685
H        0.19333276      -0.67708604       1.45925143
H        0.65796190       1.94633826       0.27382165
H        0.59720814       0.26889415      -1.85653142
H        2.18502874       0.42744299      -1.06897119
H        2.63401182      -0.60511345       0.54728708
16
Frame=6 idx=009642 GeodesicLength=0.3703269501810604 rxn_smarts="[C:1]([C@@:2]1([H:11])[N:3]([H:12])[C@:4]1([C@@:5]1([H:14])[C:6]([H:15])([H:16])[O:7]1)[H:13])([H:8])([H:9])[H:10]>>[C:1]([C@@:2]1([H:11])[N:3]([H:12])[C@:4]1([C:5]([O+:7]=[C-:6][H:16])([H:14])[H:15])[H:13])([H:8])([H:9])[H:10]"
C       -1.92179629      -0.43548072      -0.04896040
C       -1.09656283       0.64317795       0.59956621
N        0.00263027       0.32284122       1.51013906
C        0.30585028       0.92012467       0.21604360
C        1.01258012       0.13096320      -0.85427182
C        2.42534253      -1.03866104      -0.45961063
O        1.08334969      -1.27404175      -0.60733052
H       -2.45171734      -0.03893046      -0.91785511
H       -2.67035932      -0.80954115       0.65231151
H       -1.31406297      -1.27922513      -0.37550094
H       -1.67426858       1.49874525       0.93804773
H        0.19006448      -0.67525804       1.46248519
H        0.65302124       1.94785255       0.27443343
H        0.60066758       0.27700231      -1.85374350
H        2.20768707       0.41682184      -1.07756545
H        2.64757408      -0.60639070       0.54181164
16
Frame=7 idx=009642 GeodesicLength=0.43209698979823385 rxn_smarts="[C:1]([C@@:2]1([H:11])[N:3]([H:12])[C@:4]1([C@@:5]1([H:14])[C:6]([H:15])([H:16])[O:7]1)[H:13])([H:8])([H:9])[H:10]>>[C:1]([C@@:2]1([H:11])[N:3]([H:12])[C@:4]1([C:5]([O+:7]=[C-:6][H:16])([H:14])[H:15])[H:13])([H:8])([H:9])[H:10]"
C       -1.92401448      -0.43683578      -0.04812988
C       -1.09979914       0.64307899       0.59960691
N       -0.00090322       0.32470135       1.51166314
C        0.30255545       0.92098754       0.21707340
C        1.01486359       0.13440165      -0.85142837
C        2.41817244      -1.03887439      -0.45919231
O        1.07910859      -1.27199315      -0.60831847
H       -2.45457186      -0.04124431      -0.91708045
H       -2.67202461      -0.81147510       0.65344724
H       -1.31557548      -1.28005737      -0.37452434
H       -1.67869013       1.49812867       0.93740840
H        0.18671537      -0.67342133       1.46576092
H        0.64800419       1.94941320       0.27517623
H        0.60423637       0.28526352      -1.85083599
H        2.23059550       0.40553772      -1.08674126
H        2.66132742      -0.60761122       0.53611481
16
Frame=8 idx=009642 GeodesicLength=0.4939027405154502 rxn_smarts="[C:1]([C@@:2]1([H:11])[N:3]([H:12])[C@:4]1([C@@:5]1([H:14])[C:6]([H:15])([H:16])[O:7]1)[H:13])([H:8])([H:9])[H:10]>>[C:1]([C@@:2]1([H:11])[N:3]([H:12])[C@:4]1([C:5]([O+:7]=[C-:6][H:16])([H:14])[H:15])[H:13])([H:8])([H:9])[H:10]"
C       -1.92625833      -0.43819592      -0.04731772
C       -1.10311562       0.64297800       0.59968917
N       -0.00453656       0.32656528       1.51325001
C        0.29917816       0.92190920       0.21819736
C        1.01714395       0.13795242      -0.84844299
C        2.41100961      -1.03890611      -0.45853257
O        1.07489786      -1.26981090      -0.60928670
H       -2.45743739      -0.04355197      -0.91632648
H       -2.67372379      -0.81346027       0.65453010
H       -1.31707632      -1.28086275      -0.37357713
H       -1.68322771       1.49747916       0.93682105
H        0.18328226      -0.67157376       1.46908179
H        0.64290312       1.95102661       0.27605966
H        0.60792359       0.29369183      -1.84780208
H        2.25375926       0.39352968      -1.09652834
H        2.67527791      -0.60877051       0.53018488
16
Frame=9 idx=009642 GeodesicLength=0.5557162685961547 rxn_smarts="[C:1]([C@@:2]1([H:11])[N:3]([H:12])[C@:4]1([C@@:5]1([H:14])[C:6]([H:15])([H:16])[O:7]1)[H:13])([H:8])([H:9])[H:10]>>[C:1]([C@@:2]1([H:11])[N:3]([H:12])[C@:4]1([C:5]([O+:7]=[C-:6][H:16])([H:14])[H:15])[H:13])([H:8])([H:9])[H:10]"
C       -1.92852556      -0.43956219      -0.04652702
C       -1.10651618       0.64287551       0.59981481
N       -0.00827632       0.32843551       1.51490520
C        0.29571470       0.92289610       0.21942325
C        1.01942436       0.14162731      -0.84530551
C        2.40386218      -1.03874274      -0.45763140
O        1.07072270      -1.26748433      -0.61022929
H       -2.46031026      -0.04585473      -0.91559724
H       -2.67545535      -0.81550194       0.65555369
H       -1.31855910      -1.28163924      -0.37266207
H       -1.68788956       1.49679437       0.93628680
H        0.17976269      -0.66971213       1.47245188
H        0.63770925       1.95270019       0.27709600
H        0.61174049       0.30230329      -1.84463205
H        2.27716706       0.38072895      -1.10696197
H        2.68942890      -0.60986394       0.52401491
16
Frame=10 idx=009642 GeodesicLength=0.6175662311834808 rxn_smarts="[C:1]([C@@:2]1([H:11])[N:3]([H:12])[C@:4]1([C@@:5]1([H:14])[C:6]([H:15])([H:16])[O:7]1)[H:13])([H:8])([H:9])[H:10]>>[C:1]([C@@:2]1([H:11])[N:3]([H:12])[C@:4]1([C:5]([O+:7]=[C-:6][H:16])([H:14])[H:15])[H:13])([H:8])([H:9])[H:10]"
C       -1.93081580      -0.44093548      -0.04576061
C       -1.11000539       0.64277132       0.59998615
N       -0.01212891       0.33031290       1.51663347
C        0.29216035       0.92395291       0.22075785
C        1.02170529       0.14543478      -0.84200567
C        2.39672762      -1.03836839      -0.45647492
O        1.06658666      -1.26500596      -0.61114075
H       -2.46318893      -0.04815259      -0.91489606
H       -2.67721954      -0.81760529       0.65651226
H       -1.32002025      -1.28238484      -0.37178311
H       -1.69268348       1.49607146       0.93580854
H        0.17615256      -0.66783507       1.47587492
H        0.63241490       1.95443987       0.27829489
H        0.61569867       0.31111107      -1.84131801
H        2.30082343       0.36707586      -1.11807303
H        2.70379283      -0.61088256       0.51758408
16
Frame=11 idx=009642 GeodesicLength=0.6794404781752915 rxn_smarts="[C:1]([C@@:2]1([H:11])[N:3]([H:12])[C@:4]1([C@@:5]1([H:14])[C:6]([H:15])([H:16])[O:7]1)[H:13])([H:8])([H:9])[H:10]>>[C:1]([C@@:2]1([H:11])[N:3]([H:12])[C@:4]1([C:5]([O+:7]=[C-:6][H:16])([H:14])[H:15])[H:13])([H:8])([H:9])[H:10]"
C       -1.93312670      -0.44231709      -0.04502209
C       -1.11358799       0.64266582       0.60020528
N       -0.01610173       0.33220026       1.51844077
C        0.28851030       0.92508682       0.22220953
C        1.02398956       0.14938807      -0.83853207
C        2.38961319      -1.03776446      -0.45506015
O        1.06249572      -1.26236386      -0.61201443
H       -2.46606971      -0.05044696      -0.91422742
H       -2.67901473      -0.81977678       0.65739856
H       -1.32145274      -1.28309716      -0.37094388
H       -1.69761915       1.49530746       0.93538804
H        0.17244895      -0.66593901       1.47935536
H        0.62700986       1.95625449       0.27966879
H        0.61981102       0.32013329      -1.83784957
H        2.32471723       0.35249034      -1.12989506
H        2.71837692      -0.61182123       0.51087837
16
Frame=12 idx=009642 GeodesicLength=0.7413349944456264 rxn_smarts="[C:1]([C@@:2]1([H:11])[N:3]([H:12])[C@:4]1([C@@:5]1([H:14])[C:6]([H:15])([H:16])[O:7]1)[H:13])([H:8])([H:9])[H:10]>>[C:1]([C@@:2]1([H:11])[N:3]([H:12])[C@:4]1([C:5]([O+:7]=[C-:6][H:16])([H:14])[H:15])[H:13])([H:8])([H:9])[H:10]"
C       -1.93545550      -0.44370836      -0.04431590
C       -1.11726908       0.64255926       0.60047483
N       -0.02020271       0.33409996       1.52033355
C        0.28475927       0.92630578       0.22378768
C        1.02628035       0.15350203      -0.83487194
C        2.38252419      -1.03691070      -0.45337924
O        1.05845711      -1.25954446      -0.61284330
H       -2.46894831      -0.05273863      -0.91359661
H       -2.68083898      -0.82202381       0.65820389
H       -1.32284872      -1.28377330      -0.37014951
H       -1.70270688       1.49449862       0.93502812
H        0.16864873      -0.66402062       1.48289761
H        0.62148313       1.95815350       0.28123195
H        0.62409057       0.32938944      -1.83421528
H        2.34883549       0.33688186      -1.14246555
H        2.73319134      -0.61267058       0.50387969
16
Frame=13 idx=009642 GeodesicLength=0.8032277812539719 rxn_smarts="[C:1]([C@@:2]1([H:11])[N:3]([H:12])[C@:4]1([C@@:5]1([H:14])[C:6]([H:15])([H:16])[O:7]1)[H:13])([H:8])([H:9])[H:10]>>[C:1]([C@@:2]1([H:11])[N:3]([H:12])[C@:4]1([C:5]([O+:7]=[C-:6][H:16])([H:14])[H:15])[H:13])([H:8])([H:9])[H:10]"
C       -1.93779872      -0.44511130      -0.04364605
C       -1.12105359       0.64245223       0.60079641
N       -0.02443986       0.33601618       1.52231800
C        0.28090213       0.92761840       0.22550103
C        1.02858147       0.15779238      -0.83101258
C        2.37547037      -1.03578662      -0.45143476
O        1.05447820      -1.25653333      -0.61361927
H       -2.47182014      -0.05503039      -0.91300864
H       -2.68268916      -0.82435418       0.65892045
H       -1.32419906      -1.28441082      -0.36940387
H       -1.70795743       1.49364146       0.93472932
H        0.16475010      -0.66207461       1.48650635
H        0.61582245       1.96014747       0.28299756
H        0.62855445       0.33890123      -1.83040347
H        2.37315594       0.32015894      -1.15581272
H        2.74824285      -0.61342703       0.49657224
16
Frame=14 idx=009642 GeodesicLength=0.8651320212314499 rxn_smarts="[C:1]([C@@:2]1([H:11])[N:3]([H:12])[C@:4]1([C@@:5]1([H:14])[C:6]([H:15])([H:16])[O:7]1)[H:13])([H:8])([H:9])[H:10]>>[C:1]([C@@:2]1([H:11])[N:3]([H:12])[C@:4]1([C:5]([O+:7]=[C-:6][H:16])([H:14])[H:15])[H:13])([H:8])([H:9])[H:10]"
C       -1.94015341      -0.44652789      -0.04301727
C       -1.12494769       0.64234497       0.60117257
N       -0.02882248       0.33795241       1.52440114
C        0.27693222       0.92903389       0.22735955
C        1.03089561       0.16227562      -0.82693931
C        2.36845759      -1.03436765      -0.44921807
O        1.05056722      -1.25331522      -0.61433344
H       -2.47468100      -0.05732412      -0.91246910
H       -2.68456277      -0.82677699       0.65953903
H       -1.32549483      -1.28500668      -0.36871258
H       -1.71338320       1.49273167       0.93449433
H        0.16074958      -0.66009640       1.49018680
H        0.61001418       1.96224766       0.28498002
H        0.63322064       0.34869204      -1.82640203
H        2.39766356       0.30222027      -1.16997083
H        2.76354475      -0.61408356       0.48892918
16
Frame=15 idx=009642 GeodesicLength=0.9270303717719572 rxn_smarts="[C:1]([C@@:2]1([H:11])[N:3]([H:12])[C@:4]1([C@@:5]1([H:14])[C:6]([H:15])([H:16])[O:7]1)[H:13])([H:8])([H:9])[H:10]>>[C:1]([C@@:2]1([H:11])[N:3]([H:12])[C@:4]1([C:5]([O+:7]=[C-:6][H:16])([H:14])[H:15])[H:13])([H:8])([H:9])[H:10]"
C       -1.94251475      -0.44796094      -0.04243445
C       -1.12895714       0.64223815       0.60160496
N       -0.03335967       0.33991421       1.52658978
C        0.27284325       0.93056293       0.22937294
C        1.03322751       0.16697105      -0.82263739
C        2.36149642      -1.03262851      -0.44673255
O        1.04673358      -1.24987217      -0.61497628
H       -2.47752541      -0.05962373      -0.91198382
H       -2.68645492      -0.82930240       0.66005044
H       -1.32672430      -1.28555796      -0.36808060
H       -1.71899714       1.49176472       0.93432364
H        0.15664593      -0.65807895       1.49394409
H        0.60404308       1.96446722       0.28719324
H        0.63810929       0.35878813      -1.82219771
H        2.42232789       0.28295721      -1.18496419
H        2.77910637      -0.61463894       0.48092790
16
Frame=16 idx=009642 GeodesicLength=0.9888972987491641 rxn_smarts="[C:1]([C@@:2]1([H:11])[N:3]([H:12])[C@:4]1([C@@:5]1([H:14])[C:6]([H:15])([H:16])[O:7]1)[H:13])([H:8])([H:9])[H:10]>>[C:1]([C@@:2]1([H:11])[N:3]([H:12])[C@:4]1([C:5]([O+:7]=[C-:6][H:16])([H:14])[H:15])[H:13])([H:8])([H:9])[H:10]"
C       -1.94487684      -0.44941320      -0.04190391
C       -1.13308776       0.64213232       0.60209530
N       -0.03806141       0.34190717       1.52889165
C        0.26862878       0.93221712       0.23155229
C        1.03558348       0.17189981      -0.81808954
C        2.35459908      -1.03054132      -0.44397732
O        1.04298832      -1.24618451      -0.61553620
H       -2.48034623      -0.06193266      -0.91156031
H       -2.68835996      -0.83194160       0.66044307
H       -1.32787403      -1.28606124      -0.36751461
H       -1.72481306       1.49073551       0.93421809
H        0.15243762      -0.65601502       1.49778402
H        0.59789270       1.96682044       0.28965360
H        0.64324294       0.36921754      -1.81777509
H        2.44710614       0.26224899      -1.20081957
H        2.79494022      -0.61508932       0.47253854
