8
Frame=0 idx=003921 GeodesicLength=0.0 rxn_smarts="[o:1]1[c:2]([H:6])[c:3]([H:7])[c:4]([H:8])[n:5]1>>[O+:1](=[C:2]([C:4]#[C:3][H:7])[H:6])[N-:5][H:8]"
O        0.40460286      -1.69966077       0.05925277
C        1.04677920      -0.63899044       0.38297205
C       -0.45765995       1.80903924      -0.00581625
C       -0.65508491       0.62232577       0.06908467
N       -0.68003091      -2.20135810      -0.07537301
H        1.76183227      -0.39547007      -0.40971582
H       -0.23078198       2.84968172      -0.04400733
H       -1.18965658      -0.34556734       0.02360292
8
Frame=1 idx=003921 GeodesicLength=0.1563833674871726 rxn_smarts="[o:1]1[c:2]([H:6])[c:3]([H:7])[c:4]([H:8])[n:5]1>>[O+:1](=[C:2]([C:4]#[C:3][H:7])[H:6])[N-:5][H:8]"
O        0.41746120      -1.67810223       0.05613774
C        1.03984444      -0.59565891       0.35444424
C       -0.40862873       1.76502778      -0.00522073
C       -0.67773646       0.59047124       0.10741758
N       -0.69511275      -2.15201654      -0.00614034
H        1.78242034      -0.37756256      -0.41816726
H       -0.22115497       2.81425614      -0.01802376
H       -1.23709308      -0.36641492      -0.07044747
8
Frame=2 idx=003921 GeodesicLength=0.3135420859438436 rxn_smarts="[o:1]1[c:2]([H:6])[c:3]([H:7])[c:4]([H:8])[n:5]1>>[O+:1](=[C:2]([C:4]#[C:3][H:7])[H:6])[N-:5][H:8]"
O        0.42732022      -1.65804310       0.05700799
C        1.03333640      -0.55593888       0.32561417
C       -0.36703156       1.72073706       0.00476339
C       -0.69683801       0.55854352       0.13738248
N       -0.71051838      -2.09643521       0.05303304
H        1.80279862      -0.36391569      -0.42525335
H       -0.21629509       2.77613885       0.00016069
H       -1.27277220      -0.38108654      -0.15270841
8
Frame=3 idx=003921 GeodesicLength=0.47106309563872517 rxn_smarts="[o:1]1[c:2]([H:6])[c:3]([H:7])[c:4]([H:8])[n:5]1>>[O+:1](=[C:2]([C:4]#[C:3][H:7])[H:6])[N-:5][H:8]"
O        0.43553490      -1.63902808       0.05149497
C        1.02584065      -0.52085567       0.29994444
C       -0.33136779       1.67774102       0.01863535
C       -0.71210067       0.52757533       0.16794740
N       -0.72448347      -2.04077713       0.08703058
H        1.82570337      -0.34876893      -0.42137265
H       -0.21081214       2.73710796      -0.00135407
H       -1.30831485      -0.39299450      -0.20232601
8
Frame=4 idx=003921 GeodesicLength=0.6286796571475007 rxn_smarts="[o:1]1[c:2]([H:6])[c:3]([H:7])[c:4]([H:8])[n:5]1>>[O+:1](=[C:2]([C:4]#[C:3][H:7])[H:6])[N-:5][H:8]"
O        0.44247114      -1.62022474       0.03626713
C        1.01744625      -0.48953470       0.27692748
C       -0.30001743       1.63612341       0.03042027
C       -0.72318222       0.49818341       0.20211532
N       -0.73676516      -1.98790705       0.10204964
H        1.85165599      -0.33148771      -0.40556828
H       -0.20420484       2.69744641      -0.01725074
H       -1.34740373      -0.40259904      -0.22496082
8
Frame=5 idx=003921 GeodesicLength=0.7861621840366367 rxn_smarts="[o:1]1[c:2]([H:6])[c:3]([H:7])[c:4]([H:8])[n:5]1>>[O+:1](=[C:2]([C:4]#[C:3][H:7])[H:6])[N-:5][H:8]"
O        0.44820148      -1.60150062       0.01358747
C        1.00891074      -0.46097033       0.25494197
C       -0.27203893       1.59622103       0.03984368
C       -0.73008818       0.47025647       0.23837566
N       -0.74788919      -1.93787276       0.10598994
H        1.87947295      -0.31351876      -0.38074291
H       -0.19773175       2.65754886      -0.04143761
H       -1.38883711      -0.41016389      -0.23055819
8
Frame=6 idx=003921 GeodesicLength=0.9435312001631398 rxn_smarts="[o:1]1[c:2]([H:6])[c:3]([H:7])[c:4]([H:8])[n:5]1>>[O+:1](=[C:2]([C:4]#[C:3][H:7])[H:6])[N-:5][H:8]"
O        0.45270833      -1.58244247      -0.01621746
C        1.00065184      -0.43458311       0.23305708
C       -0.24673310       1.55794488       0.04481393
C       -0.73278997       0.44375187       0.27536217
N       -0.75810467      -1.89018300       0.10294007
H        1.90872009      -0.29604488      -0.34748975
H       -0.19235771       2.61776504      -0.06961555
H       -1.43209482      -0.41620834      -0.22285049
8
Frame=7 idx=003921 GeodesicLength=1.100814802524745 rxn_smarts="[o:1]1[c:2]([H:6])[c:3]([H:7])[c:4]([H:8])[n:5]1>>[O+:1](=[C:2]([C:4]#[C:3][H:7])[H:6])[N-:5][H:8]"
O        0.45606192      -1.56271431      -0.05194586
C        0.99305680      -0.40976553       0.21033290
C       -0.22374774       1.52114028       0.04358123
C       -0.73129183       0.41868999       0.31165460
N       -0.76748593      -1.84418487       0.09553911
H        1.93866530      -0.28069038      -0.30651042
H       -0.18902402       2.57882862      -0.09813776
H       -1.47623451      -0.42130382      -0.20451380
8
Frame=8 idx=003921 GeodesicLength=1.2579525773076254 rxn_smarts="[o:1]1[c:2]([H:6])[c:3]([H:7])[c:4]([H:8])[n:5]1>>[O+:1](=[C:2]([C:4]#[C:3][H:7])[H:6])[N-:5][H:8]"
O        0.45825864      -1.54199710      -0.09345426
C        0.98642168      -0.38636282       0.18674721
C       -0.20275894       1.48574290       0.03863127
C       -0.72562653       0.39474791       0.34760046
N       -0.77616242      -1.79943212       0.08420087
H        1.96784797      -0.26756661      -0.25814822
H       -0.18785770       2.54053510      -0.12842751
H       -1.52012269      -0.42566725      -0.17714982
8
Frame=9 idx=003921 GeodesicLength=1.4150168433121082 rxn_smarts="[o:1]1[c:2]([H:6])[c:3]([H:7])[c:4]([H:8])[n:5]1>>[O+:1](=[C:2]([C:4]#[C:3][H:7])[H:6])[N-:5][H:8]"
O        0.45956037      -1.52026843      -0.13835402
C        0.98095485      -0.36358249       0.16107090
C       -0.18384534       1.45174208       0.02837315
C       -0.71594380       0.37201552       0.38142728
N       -0.78406138      -1.75542894       0.07082809
H        1.99516913      -0.25832725      -0.20349014
H       -0.18927345       2.50390605      -0.15690192
H       -1.56256037      -0.43005654      -0.14295334
8
Frame=10 idx=003921 GeodesicLength=1.57190104408391 rxn_smarts="[o:1]1[c:2]([H:6])[c:3]([H:7])[c:4]([H:8])[n:5]1>>[O+:1](=[C:2]([C:4]#[C:3][H:7])[H:6])[N-:5][H:8]"
O        0.46039887      -1.49826470      -0.18349720
C        0.97676418      -0.34100693       0.13271318
C       -0.16693168       1.41927418       0.01403153
C       -0.70255584       0.35029338       0.41236004
N       -0.79135495      -1.71205099       0.05642568
H        2.01856521      -0.25276917      -0.14474796
H       -0.19271286       2.46943541      -0.18243052
H       -1.60217294      -0.43491117      -0.10485474
8
Frame=11 idx=003921 GeodesicLength=1.7286387094961457 rxn_smarts="[o:1]1[c:2]([H:6])[c:3]([H:7])[c:4]([H:8])[n:5]1>>[O+:1](=[C:2]([C:4]#[C:3][H:7])[H:6])[N-:5][H:8]"
O        0.46099246      -1.47618327      -0.22834646
C        0.97398213      -0.31871245       0.10234508
C       -0.15136457       1.38841186      -0.00158992
C       -0.68539238       0.32924309       0.44125990
N       -0.79824975      -1.66895433       0.04038513
H        2.03650210      -0.25021164      -0.08294797
H       -0.19824276       2.43640744      -0.20718462
H       -1.63822724      -0.44000070      -0.06392114
8
Frame=12 idx=003921 GeodesicLength=1.8852953184860683 rxn_smarts="[o:1]1[c:2]([H:6])[c:3]([H:7])[c:4]([H:8])[n:5]1>>[O+:1](=[C:2]([C:4]#[C:3][H:7])[H:6])[N-:5][H:8]"
O        0.46155708      -1.45427069      -0.27213781
C        0.97263418      -0.29668595       0.07059420
C       -0.13684163       1.35905028      -0.01820277
C       -0.66468295       0.30870382       0.46790527
N       -0.80482839      -1.62600455       0.02317104
H        2.04781984      -0.24993246      -0.01931294
H       -0.20524349       2.40475370      -0.23083095
H       -1.67041464      -0.44561416      -0.02118604
8
Frame=13 idx=003921 GeodesicLength=2.041902462228909 rxn_smarts="[o:1]1[c:2]([H:6])[c:3]([H:7])[c:4]([H:8])[n:5]1>>[O+:1](=[C:2]([C:4]#[C:3][H:7])[H:6])[N-:5][H:8]"
O        0.46220400      -1.43236219      -0.31493565
C        0.97288996      -0.27493369       0.03841305
C       -0.12281622       1.33121732      -0.03512998
C       -0.64057532       0.28864585       0.49241720
N       -0.81106540      -1.58290925       0.00502883
H        2.05196842      -0.25207406       0.04529596
H       -0.21405520       2.37421483      -0.25379642
H       -1.69855024      -0.45179882       0.02270700
8
Frame=14 idx=003921 GeodesicLength=2.198585960649562 rxn_smarts="[o:1]1[c:2]([H:6])[c:3]([H:7])[c:4]([H:8])[n:5]1>>[O+:1](=[C:2]([C:4]#[C:3][H:7])[H:6])[N-:5][H:8]"
O        0.46319648      -1.41072383      -0.35476369
C        0.97443049      -0.25412994       0.01011162
C       -0.10916490       1.30430403      -0.05224971
C       -0.61465924       0.26896375       0.51448543
N       -0.81733123      -1.53976668      -0.01375573
H        2.04914395      -0.25404631       0.10585889
H       -0.22236132       2.34449969      -0.27519255
H       -1.72325423      -0.45910073       0.06550574
8
Frame=15 idx=003921 GeodesicLength=2.3555503791692893 rxn_smarts="[o:1]1[c:2]([H:6])[c:3]([H:7])[c:4]([H:8])[n:5]1>>[O+:1](=[C:2]([C:4]#[C:3][H:7])[H:6])[N-:5][H:8]"
O        0.46451891      -1.38870494      -0.39088222
C        0.97705584      -0.23458584      -0.01041190
C       -0.09480387       1.27848898      -0.06625993
C       -0.58820924       0.24955080       0.53537304
N       -0.82410539      -1.49587464      -0.03379371
H        2.04233912      -0.25623185       0.15840948
H       -0.23162096       2.31427101      -0.29744157
H       -1.74517441      -0.46691353       0.10500681
8
Frame=16 idx=003921 GeodesicLength=2.512576598520635 rxn_smarts="[o:1]1[c:2]([H:6])[c:3]([H:7])[c:4]([H:8])[n:5]1>>[O+:1](=[C:2]([C:4]#[C:3][H:7])[H:6])[N-:5][H:8]"
O        0.46607457      -1.36744571      -0.42240589
C        0.98014236      -0.21619900      -0.02584500
C       -0.08027116       1.25371525      -0.07874237
C       -0.56196425       0.23053990       0.55438912
N       -0.83150419      -1.45170714      -0.05320618
H        2.03334629      -0.25764542       0.20364417
H       -0.24054136       2.28446371      -0.31816229
H       -1.76528226      -0.47572160       0.14032845
