14
Frame=0 idx=003264 GeodesicLength=0.0 rxn_smarts="[C:1]1([H:7])([H:8])[C@@:2]2([H:9])[C:3]([H:10])([H:11])[O:4][C:5]([H:12])([H:13])[C@@:6]12[H:14]>>[C:1]1([H:7])([H:8])[C:2]([H:9])=[C:3]([H:10])[O:4][C:5]([H:12])=[C:6]1[H:14].[H:11][H:13]"
C        1.31640033       0.40855511      -0.79865373
C        0.66383932       0.51442666       0.54543088
C       -0.71213390       0.99704706       0.57866844
O       -1.40651365       0.43626499      -0.41538275
C       -0.90183449      -0.77918245      -0.64382015
C        0.52534121      -0.78004212      -0.34549920
H        0.95168346       1.01262669      -1.62028188
H        2.38829079       0.27416450      -0.77164219
H        1.27154702       0.56964288       1.43765573
H       -1.07633808       1.94694433       0.93753485
H       -1.27228797      -0.40001858       1.53372055
H       -1.43112196      -1.38950498      -1.35932872
H       -1.34418809      -1.09516439       1.06260015
H        1.02731598      -1.71575975      -0.14100192
14
Frame=1 idx=003264 GeodesicLength=0.09401734270179518 rxn_smarts="[C:1]1([H:7])([H:8])[C@@:2]2([H:9])[C:3]([H:10])([H:11])[O:4][C:5]([H:12])([H:13])[C@@:6]12[H:14]>>[C:1]1([H:7])([H:8])[C:2]([H:9])=[C:3]([H:10])[O:4][C:5]([H:12])=[C:6]1[H:14].[H:11][H:13]"
C        1.31838542       0.40708050      -0.79609331
C        0.66678445       0.52418177       0.54698243
C       -0.71144946       0.99221077       0.59083043
O       -1.40632824       0.43295712      -0.40948022
C       -0.90166392      -0.78801127      -0.63461734
C        0.52662492      -0.78452049      -0.35387557
H        0.96052191       1.01201925      -1.62027772
H        2.39069474       0.27192950      -0.76846249
H        1.28076731       0.59835629       1.43373466
H       -1.06864081       1.95203793       0.93094605
H       -1.29418277      -0.39738411       1.54402071
H       -1.42685132      -1.38664558      -1.36328124
H       -1.36686432      -1.11164866       1.06869529
H        1.03220209      -1.72256304      -0.16912168
14
Frame=2 idx=003264 GeodesicLength=0.18785279017360507 rxn_smarts="[C:1]1([H:7])([H:8])[C@@:2]2([H:9])[C:3]([H:10])([H:11])[O:4][C:5]([H:12])([H:13])[C@@:6]12[H:14]>>[C:1]1([H:7])([H:8])[C:2]([H:9])=[C:3]([H:10])[O:4][C:5]([H:12])=[C:6]1[H:14].[H:11][H:13]"
C        1.32055190       0.40552412      -0.79347696
C        0.66993313       0.53419778       0.54848505
C       -0.71049308       0.98722746       0.60321203
O       -1.40583167       0.42960023      -0.40348498
C       -0.90124509      -0.79698178      -0.62515067
C        0.52805096      -0.78905275      -0.36245264
H        0.96976310       1.01131553      -1.62026524
H        2.39327221       0.26954171      -0.76514659
H        1.29007521       0.62810677       1.42928628
H       -1.06110599       1.95629287       0.92489176
H       -1.31678677      -0.39431836       1.55426890
H       -1.42264450      -1.38391971      -1.36639520
H       -1.39055659      -1.12829451       1.07441798
H        1.03701716      -1.72923937      -0.19818972
14
Frame=3 idx=003264 GeodesicLength=0.28156502333360617 rxn_smarts="[C:1]1([H:7])([H:8])[C@@:2]2([H:9])[C:3]([H:10])([H:11])[O:4][C:5]([H:12])([H:13])[C@@:6]12[H:14]>>[C:1]1([H:7])([H:8])[C:2]([H:9])=[C:3]([H:10])[O:4][C:5]([H:12])=[C:6]1[H:14].[H:11][H:13]"
C        1.32290958       0.40388033      -0.79079944
C        0.67329777       0.54448592       0.54993490
C       -0.70924057       0.98208018       0.61582832
O       -1.40500938       0.42617955      -0.39737736
C       -0.90055573      -0.80610747      -0.61539431
C        0.52962935      -0.79364309      -0.37123604
H        0.97942382       1.01050452      -1.62024066
H        2.39603228       0.26699149      -0.76168325
H        1.29945860       0.65894396       1.42425937
H       -1.05374936       1.95969331       0.91942844
H       -1.34011989      -0.39076960       1.56446306
H       -1.41850167      -1.38135759      -1.36863477
H       -1.41532641      -1.14511512       1.07971196
H        1.04175161      -1.73576639      -0.22826022
14
Frame=4 idx=003264 GeodesicLength=0.3752250206880317 rxn_smarts="[C:1]1([H:7])([H:8])[C@@:2]2([H:9])[C:3]([H:10])([H:11])[O:4][C:5]([H:12])([H:13])[C@@:6]12[H:14]>>[C:1]1([H:7])([H:8])[C:2]([H:9])=[C:3]([H:10])[O:4][C:5]([H:12])=[C:6]1[H:14].[H:11][H:13]"
C        1.32546798       0.40214319      -0.78805437
C        0.67689127       0.55505693       0.55132837
C       -0.70766718       0.97674793       0.62869899
O       -1.40384704       0.42267769      -0.39113370
C       -0.89957161      -0.81540209      -0.60532165
C        0.53137022      -0.79829488      -0.38023457
H        0.98952206       1.00957579      -1.62019801
H        2.39898363       0.26426901      -0.75805803
H        1.30890314       0.69092474       1.41859736
H       -1.04658029       1.96222662       0.91461100
H       -1.36419648      -0.38668185       1.57460397
H       -1.41442270      -1.37899444      -1.36996176
H       -1.44124304      -1.16213133       1.08451104
H        1.04639004      -1.74211732      -0.25938864
14
Frame=5 idx=003264 GeodesicLength=0.4688486942537902 rxn_smarts="[C:1]1([H:7])([H:8])[C@@:2]2([H:9])[C:3]([H:10])([H:11])[O:4][C:5]([H:12])([H:13])[C@@:6]12[H:14]>>[C:1]1([H:7])([H:8])[C:2]([H:9])=[C:3]([H:10])[O:4][C:5]([H:12])=[C:6]1[H:14].[H:11][H:13]"
C        1.32823575       0.40030764      -0.78523815
C        0.68072467       0.56592698       0.55265790
C       -0.70574646       0.97121469       0.64183998
O       -1.40233009       0.41907762      -0.38473028
C       -0.89826920      -0.82488081      -0.59490259
C        0.53328264      -0.80301058      -0.38945838
H        1.00007690       1.00851834      -1.62013608
H        2.40213401       0.26136442      -0.75425848
H        1.31838617       0.72409190       1.41223800
H       -1.03960659       1.96385530       0.91050332
H       -1.38902967      -0.38199811       1.58468421
H       -1.41040173      -1.37686002      -1.37032811
H       -1.46836974      -1.17935170       1.08874266
H        1.05091332      -1.74825567      -0.29161398
14
Frame=6 idx=003264 GeodesicLength=0.5625125236070951 rxn_smarts="[C:1]1([H:7])([H:8])[C@@:2]2([H:9])[C:3]([H:10])([H:11])[O:4][C:5]([H:12])([H:13])[C@@:6]12[H:14]>>[C:1]1([H:7])([H:8])[C:2]([H:9])=[C:3]([H:10])[O:4][C:5]([H:12])=[C:6]1[H:14].[H:11][H:13]"
C        1.33122227       0.39836500      -0.78233953
C        0.68481028       0.57710689       0.55392192
C       -0.70345027       0.96545334       0.65527780
O       -1.40044490       0.41535514      -0.37813349
C       -0.89662095      -0.83456372      -0.58409890
C        0.53537580      -0.80779539      -0.39891154
H        1.01110643       1.00731742      -1.62004335
H        2.40549152       0.25826372      -0.75026360
H        1.32788453       0.75851629       1.40511308
H       -1.03283531       1.96458190       0.90715574
H       -1.41462963      -0.37665028       1.59471191
H       -1.40643337      -1.37498909      -1.36970002
H       -1.49677741      -1.19680842       1.09232515
H        1.05530099      -1.75415279      -0.32501516
14
Frame=7 idx=003264 GeodesicLength=0.6562386615412398 rxn_smarts="[C:1]1([H:7])([H:8])[C@@:2]2([H:9])[C:3]([H:10])([H:11])[O:4][C:5]([H:12])([H:13])[C@@:6]12[H:14]>>[C:1]1([H:7])([H:8])[C:2]([H:9])=[C:3]([H:10])[O:4][C:5]([H:12])=[C:6]1[H:14].[H:11][H:13]"
C        1.33443702       0.39630832      -0.77934986
C        0.68916120       0.58861056       0.55511597
C       -0.70074652       0.95943463       0.66904153
O       -1.39817646       0.41148496      -0.37130719
C       -0.89459728      -0.84447217      -0.57286986
C        0.53766000      -0.81265343      -0.40860454
H        1.02262918       1.00596016      -1.61991249
H        2.40906411       0.25495425      -0.74605422
H        1.33736784       0.79425473       1.39714817
H       -1.02627350       1.96440320       0.90462570
H       -1.44100120      -0.37057427       1.60468638
H       -1.40251532      -1.37341996      -1.36803415
H       -1.52653640      -1.21452310       1.09516273
H        1.05952734      -1.75976788      -0.35964819
14
Frame=8 idx=003264 GeodesicLength=0.7500574995899325 rxn_smarts="[C:1]1([H:7])([H:8])[C@@:2]2([H:9])[C:3]([H:10])([H:11])[O:4][C:5]([H:12])([H:13])[C@@:6]12[H:14]>>[C:1]1([H:7])([H:8])[C:2]([H:9])=[C:3]([H:10])[O:4][C:5]([H:12])=[C:6]1[H:14].[H:11][H:13]"
C        1.33788852       0.39412781      -0.77625530
C        0.69379074       0.60045381       0.55623680
C       -0.69760343       0.95312621       0.68316600
O       -1.39551173       0.40743585      -0.36420671
C       -0.89216637      -0.85463086      -0.56116829
C        0.54014354      -0.81758938      -0.41854284
H        1.03466676       1.00442794      -1.61973053
H        2.41285840       0.25141846      -0.74160382
H        1.34680219       0.83137874       1.38825713
H       -1.01992432       1.96331465       0.90296618
H       -1.46813913      -0.36369788       1.61461450
H       -1.39863974      -1.37219191      -1.36528657
H       -1.55772558      -1.23252103       1.09714229
H        1.06356016      -1.76505241      -0.39558885
14
Frame=9 idx=003264 GeodesicLength=0.8443506781189758 rxn_smarts="[C:1]1([H:7])([H:8])[C@@:2]2([H:9])[C:3]([H:10])([H:11])[O:4][C:5]([H:12])([H:13])[C@@:6]12[H:14]>>[C:1]1([H:7])([H:8])[C:2]([H:9])=[C:3]([H:10])[O:4][C:5]([H:12])=[C:6]1[H:14].[H:11][H:13]"
C        1.34156421       0.39180833      -0.77302953
C        0.69869008       0.61266656       0.55728462
C       -0.69399245       0.94645644       0.69775036
O       -1.39245389       0.40312997      -0.35670231
C       -0.88930090      -0.86510544      -0.54886056
C        0.54282261      -0.82262227      -0.42870263
H        1.04721865       1.00268789      -1.61948385
H        2.41685955       0.24763703      -0.73686545
H        1.35614340       0.87001577       1.37826182
H       -1.01367224       1.96134785       0.90216513
H       -1.49606151      -0.35587735       1.62459107
H       -1.39469007      -1.37128953      -1.36148215
H       -1.59049308      -1.25091948       1.09802956
H        1.06736565      -1.76993578      -0.43295608
14
Frame=10 idx=003264 GeodesicLength=0.9387605538705049 rxn_smarts="[C:1]1([H:7])([H:8])[C@@:2]2([H:9])[C:3]([H:10])([H:11])[O:4][C:5]([H:12])([H:13])[C@@:6]12[H:14]>>[C:1]1([H:7])([H:8])[C:2]([H:9])=[C:3]([H:10])[O:4][C:5]([H:12])=[C:6]1[H:14].[H:11][H:13]"
C        1.34549691       0.38934285      -0.76966747
C        0.70388173       0.62525838       0.55824633
C       -0.68986557       0.93942956       0.71277317
O       -1.38896968       0.39857626      -0.34881852
C       -0.88595491      -0.87588639      -0.53596778
C        0.54571183      -0.82774175      -0.43911970
H        1.06034317       1.00073352      -1.61916264
H        2.42109677       0.24358610      -0.73181083
H        1.36532531       0.91019128       1.36712463
H       -1.00762358       1.95844297       0.90235975
H       -1.52472672      -0.34707559       1.63454251
H       -1.39076438      -1.37081635      -1.35648709
H       -1.62483296      -1.26967160       1.09777755
H        1.07088208      -1.77436922      -0.47178992
14
Frame=11 idx=003264 GeodesicLength=1.033249712667413 rxn_smarts="[C:1]1([H:7])([H:8])[C@@:2]2([H:9])[C:3]([H:10])([H:11])[O:4][C:5]([H:12])([H:13])[C@@:6]12[H:14]>>[C:1]1([H:7])([H:8])[C:2]([H:9])=[C:3]([H:10])[O:4][C:5]([H:12])=[C:6]1[H:14].[H:11][H:13]"
C        1.34969745       0.38672110      -0.76615498
C        0.70937062       0.63825427       0.55911047
C       -0.68517789       0.93200924       0.72827639
O       -1.38504124       0.39374189      -0.34050263
C       -0.88208678      -0.88699993      -0.52243382
C        0.54881324      -0.83294960      -0.44980478
H        1.07407288       0.99854655      -1.61875840
H        2.42557736       0.23924104      -0.72640169
H        1.37426824       0.95196628       1.35473177
H       -1.00177339       1.95458386       0.90361590
H       -1.55410641      -0.33720795       1.64447433
H       -1.38684991      -1.37082097      -1.35022823
H       -1.66080888      -1.28880572       1.09623087
H        1.07404472      -1.77828006      -0.51215522
14
Frame=12 idx=003264 GeodesicLength=1.1277909940622735 rxn_smarts="[C:1]1([H:7])([H:8])[C@@:2]2([H:9])[C:3]([H:10])([H:11])[O:4][C:5]([H:12])([H:13])[C@@:6]12[H:14]>>[C:1]1([H:7])([H:8])[C:2]([H:9])=[C:3]([H:10])[O:4][C:5]([H:12])=[C:6]1[H:14].[H:11][H:13]"
C        1.35417762       0.38392858      -0.76246963
C        0.71515772       0.65168537       0.55986291
C       -0.67988275       0.92416106       0.74430231
O       -1.38065174       0.38858794      -0.33169288
C       -0.87765199      -0.89847876      -0.50818725
C        0.55212697      -0.83824833      -0.46076306
H        1.08845095       0.99609781      -1.61825852
H        2.43030777       0.23456859      -0.72058025
H        1.38287462       0.99542038       1.34094851
H       -0.99611322       1.94974218       0.90600824
H       -1.58415864      -0.32617079       1.65440027
H       -1.38293431      -1.37135587      -1.34263262
H       -1.69847844      -1.30835320       1.09320928
H        1.07677543      -1.78158495      -0.55414730
14
Frame=13 idx=003264 GeodesicLength=1.2223221525093808 rxn_smarts="[C:1]1([H:7])([H:8])[C@@:2]2([H:9])[C:3]([H:10])([H:11])[O:4][C:5]([H:12])([H:13])[C@@:6]12[H:14]>>[C:1]1([H:7])([H:8])[C:2]([H:9])=[C:3]([H:10])[O:4][C:5]([H:12])=[C:6]1[H:14].[H:11][H:13]"
C        1.35894517       0.38095621      -0.75859801
C        0.72124374       0.66559686       0.56047711
C       -0.67392466       0.91585464       0.76088937
O       -1.37578803       0.38307387      -0.32232575
C       -0.87259641      -0.91034823      -0.49317295
C        0.55564994      -0.84362893      -0.47201967
H        1.10351966       0.99336398      -1.61765545
H        2.43528865       0.22953978      -0.71429351
H        1.39101300       1.04054212       1.32563939
H       -0.99064935       1.94388950       0.90960750
H       -1.61480438      -0.31385362       1.66433265
H       -1.37900932      -1.37247369      -1.33360236
H       -1.73786315      -1.32833911       1.08850306
H        1.07897515      -1.78417336      -0.59778137
14
Frame=14 idx=003264 GeodesicLength=1.3167942389688305 rxn_smarts="[C:1]1([H:7])([H:8])[C@@:2]2([H:9])[C:3]([H:10])([H:11])[O:4][C:5]([H:12])([H:13])[C@@:6]12[H:14]>>[C:1]1([H:7])([H:8])[C:2]([H:9])=[C:3]([H:10])[O:4][C:5]([H:12])=[C:6]1[H:14].[H:11][H:13]"
C        1.36401348       0.37777899      -0.75450620
C        0.72762008       0.68001586       0.56094268
C       -0.66724626       0.90704121       0.77810086
O       -1.37043494       0.37715068      -0.31231585
C       -0.86686912      -0.92264807      -0.47729845
C        0.55937159      -0.84909730      -0.48357560
H        1.11933674       0.99030625      -1.61692447
H        2.44052477       0.22410068      -0.70745711
H        1.39856147       1.08746652       1.30862906
H       -0.98536783       1.93703546       0.91448007
H       -1.64596022      -0.30016149       1.67430328
H       -1.37506316      -1.37422912      -1.32308862
H       -1.77901496      -1.34881053       1.08188284
H        1.08052836      -1.78594915      -0.64317247
14
Frame=15 idx=003264 GeodesicLength=1.4111243823018913 rxn_smarts="[C:1]1([H:7])([H:8])[C@@:2]2([H:9])[C:3]([H:10])([H:11])[O:4][C:5]([H:12])([H:13])[C@@:6]12[H:14]>>[C:1]1([H:7])([H:8])[C:2]([H:9])=[C:3]([H:10])[O:4][C:5]([H:12])=[C:6]1[H:14].[H:11][H:13]"
C        1.36939204       0.37437493      -0.75016304
C        0.73426768       0.69498793       0.56123094
C       -0.65978739       0.89768619       0.79598652
O       -1.36458576       0.37077049      -0.30157764
C       -0.86041704      -0.93541025      -0.46048963
C        0.56327063      -0.85464774      -0.49544928
H        1.13597119       0.98688498      -1.61604734
H        2.44601334       0.21819320      -0.69997630
H        1.40535712       1.13624842       1.28974037
H       -0.98026296       1.92917301       0.92069544
H       -1.67750042      -0.28498970       1.68434758
H       -1.37108736      -1.37667424      -1.31101556
H       -1.82192573      -1.36980736       1.07308924
H        1.08129465      -1.78678985      -0.69037129
14
Frame=16 idx=003264 GeodesicLength=1.5052268395135078 rxn_smarts="[C:1]1([H:7])([H:8])[C@@:2]2([H:9])[C:3]([H:10])([H:11])[O:4][C:5]([H:12])([H:13])[C@@:6]12[H:14]>>[C:1]1([H:7])([H:8])[C:2]([H:9])=[C:3]([H:10])[O:4][C:5]([H:12])=[C:6]1[H:14].[H:11][H:13]"
C        1.37509062       0.37071613      -0.74552899
C        0.74115402       0.71056649       0.56131018
C       -0.65149126       0.88776184       0.81459718
O       -1.35824416       0.36387963      -0.29001237
C       -0.85319164      -0.94866667      -0.44266976
C        0.56731203      -0.86027477      -0.50765224
H        1.15351093       0.98305115      -1.61500448
H        2.45174852       0.21174411      -0.69173002
H        1.41120693       1.18694338       1.26876582
H       -0.97531909       1.92029946       0.92831575
H       -1.70926540      -0.26823385       1.69452191
H       -1.36706088      -1.37985181      -1.29731446
H       -1.86656167      -1.39137835       1.06183896
H        1.08111106      -1.78655675      -0.73943748
