13
Frame=0 idx=002298 GeodesicLength=0.0 rxn_smarts="[C:1]([C:2]1([H:9])[C:3]([H:10])([H:11])[O:4][C:5]1([H:12])[H:13])([H:6])([H:7])[H:8]>>[C:1]([C:2](=[C:3]([H:10])[H:11])[H:9])([H:6])([H:7])[H:8].[O:4]=[C:5]([H:12])[H:13]"
C       -1.29949663      -0.89367902      -0.02342602
C       -0.04211971      -0.32369581       0.56682477
C        1.18412360      -0.44421846      -0.08132518
O        1.09812513       1.21156146      -1.25733138
C        0.38050864       1.34943449      -0.16869499
H       -2.17337467      -0.31968428       0.29151205
H       -1.46031343      -1.93078888       0.28242175
H       -1.25866886      -0.86526045      -1.11430626
H       -0.03133976      -0.11473249       1.62982433
H        1.28132078      -0.96675275      -1.02197566
H        2.10939644      -0.22545152       0.43565725
H        0.86468410       1.78404751       0.72376653
H       -0.65284566       1.73922024      -0.26294720
13
Frame=1 idx=002298 GeodesicLength=0.0642081401614602 rxn_smarts="[C:1]([C:2]1([H:9])[C:3]([H:10])([H:11])[O:4][C:5]1([H:12])[H:13])([H:6])([H:7])[H:8]>>[C:1]([C:2](=[C:3]([H:10])[H:11])[H:9])([H:6])([H:7])[H:8].[O:4]=[C:5]([H:12])[H:13]"
C       -1.29754347      -0.89661622      -0.02528879
C       -0.04101865      -0.32419440       0.56476091
C        1.18720996      -0.44835038      -0.08330989
O        1.08519648       1.21557575      -1.25749689
C        0.37509001       1.36700415      -0.16608556
H       -2.17094522      -0.31740868       0.28144336
H       -1.46153314      -1.93080167       0.28834601
H       -1.25422196      -0.87580053      -1.11625842
H       -0.03000807      -0.12929048       1.63074029
H        1.28323394      -0.98072367      -1.01917655
H        2.11277179      -0.24447204       0.43998076
H        0.86938235       1.80717160       0.71777394
H       -0.65761402       1.75790656      -0.25542918
13
Frame=2 idx=002298 GeodesicLength=0.1284325035752606 rxn_smarts="[C:1]([C:2]1([H:9])[C:3]([H:10])([H:11])[O:4][C:5]1([H:12])[H:13])([H:6])([H:7])[H:8]>>[C:1]([C:2](=[C:3]([H:10])[H:11])[H:9])([H:6])([H:7])[H:8].[O:4]=[C:5]([H:12])[H:13]"
C       -1.29546414      -0.89952773      -0.02720512
C       -0.03979001      -0.32467922       0.56268098
C        1.19042498      -0.45257928      -0.08533550
O        1.07181907       1.21959783      -1.25744314
C        0.36947157       1.38486313      -0.16334617
H       -2.16832681      -0.31512362       0.27121919
H       -1.46270757      -1.93070530       0.29419636
H       -1.24962111      -0.88636929      -1.11820472
H       -0.02858622      -0.14404821       1.63149571
H        1.28519560      -0.99505911      -1.01615320
H        2.11606316      -0.26417207       0.44438500
H        0.87410350       1.83095941       0.71136458
H       -0.66258202       1.77684347      -0.24765399
13
Frame=3 idx=002298 GeodesicLength=0.19267551136874547 rxn_smarts="[C:1]([C:2]1([H:9])[C:3]([H:10])([H:11])[O:4][C:5]1([H:12])[H:13])([H:6])([H:7])[H:8]>>[C:1]([C:2](=[C:3]([H:10])[H:11])[H:9])([H:6])([H:7])[H:8].[O:4]=[C:5]([H:12])[H:13]"
C       -1.29325134      -0.90241009      -0.02917204
C       -0.03842117      -0.32515436       0.56058595
C        1.19377879      -0.45690980      -0.08740880
O        1.05800725       1.22364165      -1.25713781
C        0.36364736       1.40301796      -0.16047205
H       -2.16550690      -0.31282466       0.26084794
H       -1.46383277      -1.93049612       0.29997083
H       -1.24486442      -0.89696066      -1.12014114
H       -0.02706224      -0.15900324       1.63208166
H        1.28719772      -1.00976313      -1.01290179
H        2.11925609      -0.28460353       0.44886426
H        0.87880881       1.85544029       0.70451834
H       -0.66775719       1.79602567      -0.23963536
13
Frame=4 idx=002298 GeodesicLength=0.2569397970088391 rxn_smarts="[C:1]([C:2]1([H:9])[C:3]([H:10])([H:11])[O:4][C:5]1([H:12])[H:13])([H:6])([H:7])[H:8]>>[C:1]([C:2](=[C:3]([H:10])[H:11])[H:9])([H:6])([H:7])[H:8].[O:4]=[C:5]([H:12])[H:13]"
C       -1.29089689      -0.90525959      -0.03118613
C       -0.03689806      -0.32562355       0.55847606
C        1.19728278      -0.46134673      -0.08953708
O        1.04377919       1.22772213      -1.25654748
C        0.35761123       1.42147547      -0.15745883
H       -2.16247218      -0.31050634       0.25033898
H       -1.46490354      -1.93017023       0.30566835
H       -1.23995017      -0.90756883      -1.12206316
H       -0.02542181      -0.17415177       1.63248826
H        1.28923137      -1.02483928      -1.00941876
H        2.12233248      -0.30582505       0.45341140
H        0.88345379       1.88064630       0.69721821
H       -0.67314820       1.81544746      -0.23138981
13
Frame=5 idx=002298 GeodesicLength=0.321224216696648 rxn_smarts="[C:1]([C:2]1([H:9])[C:3]([H:10])([H:11])[O:4][C:5]1([H:12])[H:13])([H:6])([H:7])[H:8]>>[C:1]([C:2](=[C:3]([H:10])[H:11])[H:9])([H:6])([H:7])[H:8].[O:4]=[C:5]([H:12])[H:13]"
C       -1.28839310      -0.90807139      -0.03324344
C       -0.03520613      -0.32609150       0.55635171
C        1.20094856      -0.46589650      -0.09172850
O        1.02915785       1.23185330      -1.25563850
C        0.35135853       1.44024136      -0.15430126
H       -2.15920853      -0.30816167       0.23970191
H       -1.46591635      -1.92972256       0.31128883
H       -1.23487716      -0.91818717      -1.12396613
H       -0.02364991      -0.18949011       1.63270812
H        1.29128663      -1.04029213      -1.00570165
H        2.12527546      -0.32788894       0.45801555
H        0.88798413       1.90660544       0.68944894
H       -0.67875999       1.83510188      -0.22293556
13
Frame=6 idx=002298 GeodesicLength=0.385532079957214 rxn_smarts="[C:1]([C:2]1([H:9])[C:3]([H:10])([H:11])[O:4][C:5]1([H:12])[H:13])([H:6])([H:7])[H:8]>>[C:1]([C:2](=[C:3]([H:10])[H:11])[H:9])([H:6])([H:7])[H:8].[O:4]=[C:5]([H:12])[H:13]"
C       -1.28573126      -0.91084203      -0.03533916
C       -0.03332974      -0.32656285       0.55421313
C        1.20478892      -0.47056655      -0.09399064
O        1.01417556       1.23605459      -1.25436984
C        0.34488284       1.45932239      -0.15099231
H       -2.15570154      -0.30578497       0.22894861
H       -1.46686457      -1.92914959       0.31683319
H       -1.22964450      -0.92881018      -1.12584421
H       -0.02173110      -0.20501260       1.63273217
H        1.29335114      -1.05612407      -1.00174943
H        2.12806035      -0.35085950       0.46266268
H        0.89234761       1.93335338       0.68119307
H       -0.68460371       1.85498198      -0.21429726
13
Frame=7 idx=002298 GeodesicLength=0.4498628435420844 rxn_smarts="[C:1]([C:2]1([H:9])[C:3]([H:10])([H:11])[O:4][C:5]1([H:12])[H:13])([H:6])([H:7])[H:8]>>[C:1]([C:2](=[C:3]([H:10])[H:11])[H:9])([H:6])([H:7])[H:8].[O:4]=[C:5]([H:12])[H:13]"
C       -1.28290352      -0.91356693      -0.03746744
C       -0.03125278      -0.32704350       0.55206089
C        1.20881676      -0.47536684      -0.09633124
O        0.99887242       1.24034434      -1.25269815
C        0.33817917       1.47872402      -0.14752469
H       -2.15193635      -0.30336804       0.21809214
H       -1.46774409      -1.92844640       0.32230399
H       -1.22425188      -0.93943201      -1.12769131
H       -0.01964748      -0.22071454       1.63255350
H        1.29541117      -1.07233694      -0.99756363
H        2.13066324      -0.37479399       0.46733374
H        0.89647943       1.96092233       0.67243640
H       -0.69068609       1.87507850      -0.20550420
13
Frame=8 idx=002298 GeodesicLength=0.5142175688532084 rxn_smarts="[C:1]([C:2]1([H:9])[C:3]([H:10])([H:11])[O:4][C:5]1([H:12])[H:13])([H:6])([H:7])[H:8]>>[C:1]([C:2](=[C:3]([H:10])[H:11])[H:9])([H:6])([H:7])[H:8].[O:4]=[C:5]([H:12])[H:13]"
C       -1.27990031      -0.91624222      -0.03962126
C       -0.02895696      -0.32753866       0.54989458
C        1.21304651      -0.48030784      -0.09875854
O        0.98329652       1.24474341      -1.25057720
C        0.33124237       1.49845227      -0.14389078
H       -2.14789685      -0.30090334       0.20714639
H       -1.46854834      -1.92760847       0.32770632
H       -1.21869955      -0.95004761      -1.12949999
H       -0.01738019      -0.23658919       1.63216456
H        1.29745128      -1.08893133      -0.99314701
H        2.13305223      -0.39976055       0.47200539
H        0.90031209       1.98935091       0.66317030
H       -0.69701879       1.89538263      -0.19659274
13
Frame=9 idx=002298 GeodesicLength=0.578597938144995 rxn_smarts="[C:1]([C:2]1([H:9])[C:3]([H:10])([H:11])[O:4][C:5]1([H:12])[H:13])([H:6])([H:7])[H:8]>>[C:1]([C:2](=[C:3]([H:10])[H:11])[H:9])([H:6])([H:7])[H:8].[O:4]=[C:5]([H:12])[H:13]"
C       -1.27671815      -0.91886242      -0.04179058
C       -0.02642567      -0.32805967       0.54771375
C        1.21748958      -0.48541154      -0.10128441
O        0.96751911       1.24927945      -1.24794013
C        0.32406387       1.51850983      -0.14007408
H       -2.14356532      -0.29837498       0.19612736
H       -1.46928577      -1.92662661       0.33304885
H       -1.21299229      -0.96065495      -1.13126026
H       -0.01490470      -0.25263201       1.63156560
H        1.29945416      -1.10590393      -0.98851692
H        2.13521486      -0.42580249       0.47664963
H        0.90374492       2.01866615       0.65337155
H       -0.70359461       1.91587316      -0.18761035
13
Frame=10 idx=002298 GeodesicLength=0.6429987304656871 rxn_smarts="[C:1]([C:2]1([H:9])[C:3]([H:10])([H:11])[O:4][C:5]1([H:12])[H:13])([H:6])([H:7])[H:8]>>[C:1]([C:2](=[C:3]([H:10])[H:11])[H:9])([H:6])([H:7])[H:8].[O:4]=[C:5]([H:12])[H:13]"
C       -1.27334391      -0.92142312      -0.04396904
C       -0.02363857      -0.32860765       0.54551826
C        1.22216440      -0.49068909      -0.10391219
O        0.95159130       1.25396604      -1.24475294
C        0.31664346       1.53890234      -0.13607204
H       -2.13892742      -0.29578102       0.18505369
H       -1.46993679      -1.92549854       0.33833475
H       -1.20713052      -0.97124372      -1.13296519
H       -0.01220478      -0.26883131       1.63074307
H        1.30140108      -1.12325720      -0.98366879
H        2.13709997      -0.45299370       0.48123585
H        0.90671851       2.04890898       0.64305152
H       -0.71043673       1.93654798      -0.17859695
13
Frame=11 idx=002298 GeodesicLength=0.707416489307298 rxn_smarts="[C:1]([C:2]1([H:9])[C:3]([H:10])([H:11])[O:4][C:5]1([H:12])[H:13])([H:6])([H:7])[H:8]>>[C:1]([C:2](=[C:3]([H:10])[H:11])[H:9])([H:6])([H:7])[H:8].[O:4]=[C:5]([H:12])[H:13]"
C       -1.26977077      -0.92391903      -0.04614684
C       -0.02057700      -0.32919068       0.54330783
C        1.22708603      -0.49616387      -0.10664851
O        0.93558868       1.25882349      -1.24096066
C        0.30897765       1.55963174      -0.13187469
H       -2.13396779      -0.29311236       0.17394649
H       -1.47049826      -1.92421774       0.34357040
H       -1.20111932      -0.98180661      -1.13460544
H       -0.00925930      -0.28517584       1.62969330
H        1.30327135      -1.14098887      -0.97861338
H        2.13867626      -0.48138200       0.48572706
H        0.90914480       2.08010960       0.63221140
H       -0.71755233       1.95739217      -0.16960695
13
Frame=12 idx=002298 GeodesicLength=0.7718489146835431 rxn_smarts="[C:1]([C:2]1([H:9])[C:3]([H:10])([H:11])[O:4][C:5]1([H:12])[H:13])([H:6])([H:7])[H:8]>>[C:1]([C:2](=[C:3]([H:10])[H:11])[H:9])([H:6])([H:7])[H:8].[O:4]=[C:5]([H:12])[H:13]"
C       -1.26599045      -0.92634554      -0.04831220
C       -0.01721998      -0.32981593       0.54108164
C        1.23227084      -0.50186379      -0.10949870
O        0.91960271       1.26387359      -1.23650404
C        0.30106471       1.58070025      -0.12747256
H       -2.12867076      -0.29035968       0.16282899
H       -1.47096203      -1.92277825       0.34876834
H       -1.19496539      -0.99233733      -1.13616897
H       -0.00604666      -0.30165383       1.62841097
H        1.30504119      -1.15909340      -0.97336823
H        2.13990163      -0.51102179       0.49007965
H        0.91093029       2.11230311       0.62086362
H       -0.72495611       1.97839259      -0.16070852
13
Frame=13 idx=002298 GeodesicLength=0.8362896533032609 rxn_smarts="[C:1]([C:2]1([H:9])[C:3]([H:10])([H:11])[O:4][C:5]1([H:12])[H:13])([H:6])([H:7])[H:8]>>[C:1]([C:2](=[C:3]([H:10])[H:11])[H:9])([H:6])([H:7])[H:8].[O:4]=[C:5]([H:12])[H:13]"
C       -1.26199721      -0.92869702      -0.05045240
C       -0.01354761      -0.33049263       0.53883942
C        1.23773345      -0.50782261      -0.11246738
O        0.90373242       1.26913552      -1.23132170
C        0.29290406       1.60210775      -0.12285332
H       -2.12302022      -0.28751002       0.15172418
H       -1.47132786      -1.92117165       0.35394236
H       -1.18867685      -1.00283154      -1.13764358
H       -0.00254474      -0.31825498       1.62689382
H        1.30668566      -1.17756483      -0.96795531
H        2.14074081      -0.54194495       0.49424489
H        0.91196946       2.14551584       0.60902191
H       -0.73265138       1.99953113      -0.15197291
13
Frame=14 idx=002298 GeodesicLength=0.9007372182904685 rxn_smarts="[C:1]([C:2]1([H:9])[C:3]([H:10])([H:11])[O:4][C:5]1([H:12])[H:13])([H:6])([H:7])[H:8]>>[C:1]([C:2](=[C:3]([H:10])[H:11])[H:9])([H:6])([H:7])[H:8].[O:4]=[C:5]([H:12])[H:13]"
C       -1.25778560      -0.93097055      -0.05255083
C       -0.00953914      -0.33123043       0.53657964
C        1.24348757      -0.51408173      -0.11555920
O        0.88810611       1.27463686      -1.22533667
C        0.28449393       1.62385406      -0.11800184
H       -2.11700242      -0.28455568       0.14066094
H       -1.47159172      -1.91939207       0.35911161
H       -1.18226652      -1.01328672      -1.13901377
H        0.00126840      -0.33496477       1.62513850
H        1.30817414      -1.19639226      -0.96240920
H        2.14115149      -0.57419102       0.49816874
H        0.91215962       2.17978457       0.59670573
H       -0.74065586       2.02078972      -0.14349364
13
Frame=15 idx=002298 GeodesicLength=0.9651868776337705 rxn_smarts="[C:1]([C:2]1([H:9])[C:3]([H:10])([H:11])[O:4][C:5]1([H:12])[H:13])([H:6])([H:7])[H:8]>>[C:1]([C:2](=[C:3]([H:10])[H:11])[H:9])([H:6])([H:7])[H:8].[O:4]=[C:5]([H:12])[H:13]"
C       -1.25335233      -0.93316243      -0.05459029
C       -0.00517440      -0.33203990       0.53430004
C        1.24954528      -0.52068878      -0.11877871
O        0.87286057       1.28040226      -1.21847257
C        0.27583380       1.64593736      -0.11290257
H       -2.11060365      -0.28148473       0.12966850
H       -1.47175411      -1.91743092       0.36429900
H       -1.17575004      -1.02370255      -1.14026273
H        0.00541551      -0.35176917       1.62314350
H        1.30947546      -1.21556557      -0.95677059
H        2.14109709      -0.60777966       0.50179304
H        0.91138741       2.21513644       0.58394650
H       -0.74898062       2.04214764      -0.13537312
13
Frame=16 idx=002298 GeodesicLength=1.0296359088737848 rxn_smarts="[C:1]([C:2]1([H:9])[C:3]([H:10])([H:11])[O:4][C:5]1([H:12])[H:13])([H:6])([H:7])[H:8]>>[C:1]([C:2](=[C:3]([H:10])[H:11])[H:9])([H:6])([H:7])[H:8].[O:4]=[C:5]([H:12])[H:13]"
C       -1.24869496      -0.93527050      -0.05655117
C       -0.00043317      -0.33293218       0.53199810
C        1.25591720      -0.52769727      -0.12212944
O        0.85815104       1.28645973      -1.21064458
C        0.26692292       1.66835616      -0.10753759
H       -2.10381204      -0.27828804       0.11877900
H       -1.47181456      -1.91528084       0.36953167
H       -1.16914631      -1.03408007      -1.14137173
H        0.00991809      -0.36865313       1.62090832
H        1.31055555      -1.23507072      -0.95108997
H        2.14053777      -0.64272749       0.50505655
H        0.90954101       2.25160088       0.57077895
H       -0.75764254       2.06358346      -0.12772811
