14
Frame=0 idx=005656 GeodesicLength=0.0 rxn_smarts="[C:1]([O:2][C:3]1([H:10])[C:4]([H:11])([H:12])[O:5][C:6]1([H:13])[H:14])([H:7])([H:8])[H:9]>>[C:1]([O:2][H:13])([H:7])([H:8])[H:9].[C:3]1([H:10])=[C:6]([H:14])[O:5][C:4]1([H:11])[H:12]"
C        1.88712924       0.03433646       0.75160318
O        0.87769633       0.87423427       0.24819405
C       -0.56601531       0.38240327      -0.88745433
C       -0.95848090      -1.03605896      -0.61525431
O       -1.88099474      -0.61389799       0.39582292
C       -1.50293622       0.75308119       0.10861152
H        1.48732282      -0.91863934       1.12124080
H        2.62551128      -0.16956513      -0.02863898
H        2.39934815       0.53095152       1.57976160
H       -0.16741429       0.84628827      -1.77569766
H       -0.19622095      -1.73029426      -0.25652822
H       -1.48368521      -1.47084745      -1.47216153
H       -0.24918141       1.00338138       0.72935585
H       -2.27207877       1.51462679       0.10114517
14
Frame=1 idx=005656 GeodesicLength=0.04525047944205537 rxn_smarts="[C:1]([O:2][C:3]1([H:10])[C:4]([H:11])([H:12])[O:5][C:6]1([H:13])[H:14])([H:7])([H:8])[H:9]>>[C:1]([O:2][H:13])([H:7])([H:8])[H:9].[C:3]1([H:10])=[C:6]([H:14])[O:5][C:4]1([H:11])[H:12]"
C        1.89231419       0.03232948       0.75205327
O        0.88190166       0.87346335       0.25292654
C       -0.56497918       0.38243336      -0.88794521
C       -0.96062187      -1.03668067      -0.61790460
O       -1.88698145      -0.61151355       0.38987359
C       -1.50628178       0.75230519       0.10570411
H        1.49423656      -0.92198798       1.11965091
H        2.63077685      -0.16794254      -0.02905224
H        2.40434264       0.52687383       1.58160856
H       -0.17767093       0.84696642      -1.78102754
H       -0.19835272      -1.72645813      -0.25071548
H       -1.48199318      -1.47768405      -1.47361194
H       -0.25193102       1.01308427       0.74115074
H       -2.27475976       1.51481102       0.09728930
14
Frame=2 idx=005656 GeodesicLength=0.09047746289449575 rxn_smarts="[C:1]([O:2][C:3]1([H:10])[C:4]([H:11])([H:12])[O:5][C:6]1([H:13])[H:14])([H:7])([H:8])[H:9]>>[C:1]([O:2][H:13])([H:7])([H:8])[H:9].[C:3]1([H:10])=[C:6]([H:14])[O:5][C:4]1([H:11])[H:12]"
C        1.89748150       0.03030898       0.75251518
O        0.88612902       0.87270028       0.25766620
C       -0.56393431       0.38247430      -0.88851671
C       -0.96271308      -1.03729889      -0.62058674
O       -1.89284987      -0.60912016       0.38392306
C       -1.50954517       0.75154162       0.10277797
H        1.50109799      -0.92537124       1.11795617
H        2.63608454      -0.16626405      -0.02939650
H        2.40924432       0.52271327       1.58354720
H       -0.18811466       0.84752553      -1.78643070
H       -0.20047930      -1.72257309      -0.24499710
H       -1.48031647      -1.48458318      -1.47495881
H       -0.25472093       1.02294568       0.75302082
H       -2.27736358       1.51500095       0.09347995
14
Frame=3 idx=005656 GeodesicLength=0.1356757763151043 rxn_smarts="[C:1]([O:2][C:3]1([H:10])[C:4]([H:11])([H:12])[O:5][C:6]1([H:13])[H:14])([H:7])([H:8])[H:9]>>[C:1]([O:2][H:13])([H:7])([H:8])[H:9].[C:3]1([H:10])=[C:6]([H:14])[O:5][C:4]1([H:11])[H:12]"
C        1.90262523       0.02827464       0.75299267
O        0.89038151       0.87194872       0.26240401
C       -0.56288244       0.38252993      -0.88917490
C       -0.96474916      -1.03791276      -0.62330760
O       -1.89858296      -0.60672546       0.37798003
C       -1.51272418       0.75078609       0.09983537
H        1.50788581      -0.92877340       1.11618429
H        2.64141871      -0.16456089      -0.02966854
H        2.41405786       0.51848254       1.58556600
H       -0.19874276       0.84796688      -1.79190551
H       -0.20258622      -1.71863900      -0.23939713
H       -1.47866075      -1.49153851      -1.47620426
H       -0.25754926       1.03297218       0.76496296
H       -2.27989139       1.51518903       0.08973260
14
Frame=4 idx=005656 GeodesicLength=0.18084000612413034 rxn_smarts="[C:1]([O:2][C:3]1([H:10])[C:4]([H:11])([H:12])[O:5][C:6]1([H:13])[H:14])([H:7])([H:8])[H:9]>>[C:1]([O:2][H:13])([H:7])([H:8])[H:9].[C:3]1([H:10])=[C:6]([H:14])[O:5][C:4]1([H:11])[H:12]"
C        1.90773873       0.02622599       0.75349007
O        0.89466213       0.87121305       0.26713140
C       -0.56182526       0.38260484      -0.88992572
C       -0.96672390      -1.03852112      -0.62607513
O       -1.90416279      -0.60433834       0.37205335
C       -1.51581690       0.75003351       0.09687903
H        1.51457636      -0.93217623       1.11437003
H        2.64675928      -0.16287093      -0.02986718
H        2.41879212       0.51419718       1.58764955
H       -0.20955147       0.84829395      -1.79744917
H       -0.20465726      -1.71465572      -0.23394146
H       -1.47703084      -1.49854265      -1.47735221
H       -0.26041445       1.04317049       0.77697439
H       -2.28234575       1.51536598       0.08606306
14
Frame=5 idx=005656 GeodesicLength=0.22596447207076356 rxn_smarts="[C:1]([O:2][C:3]1([H:10])[C:4]([H:11])([H:12])[O:5][C:6]1([H:13])[H:14])([H:7])([H:8])[H:9]>>[C:1]([O:2][H:13])([H:7])([H:8])[H:9].[C:3]1([H:10])=[C:6]([H:14])[O:5][C:4]1([H:11])[H:12]"
C        1.91281468       0.02416233       0.75401212
O        0.89897317       0.87049857       0.27184163
C       -0.56076420       0.38270444      -0.89077438
C       -0.96862997      -1.03912248      -0.62889824
O       -1.90957155      -0.60196894       0.36615091
C       -1.51882215       0.74927820       0.09391195
H        1.52114387      -0.93555881       1.11255637
H        2.65207980      -0.16123961      -0.02999527
H        2.42346238       0.50987581       1.58977698
H       -0.22053495       0.84851287      -1.80305672
H       -0.20667495      -1.71062309      -0.22865655
H       -1.47542904      -1.50558715      -1.47840894
H       -0.26331602       1.05354696       0.78905372
H       -2.28473107       1.51552089       0.08248641
14
Frame=6 idx=005656 GeodesicLength=0.2710438907697068 rxn_smarts="[C:1]([O:2][C:3]1([H:10])[C:4]([H:11])([H:12])[O:5][C:6]1([H:13])[H:14])([H:7])([H:8])[H:9]>>[C:1]([O:2][H:13])([H:7])([H:8])[H:9].[C:3]1([H:10])=[C:6]([H:14])[O:5][C:4]1([H:11])[H:12]"
C        1.91784487       0.02208270       0.75456468
O        0.90331691       0.86981190       0.27652810
C       -0.55970136       0.38283555      -0.89172598
C       -0.97045869      -1.03971475      -0.63178785
O       -1.91478984      -0.59962933       0.36028055
C       -1.52173952       0.74851368       0.09093771
H        1.52755851      -0.93889610       1.11079841
H        2.65734679      -0.15972333      -0.03005867
H        2.42809131       0.50554192       1.59192128
H       -0.23168581       0.84863285      -1.80872202
H       -0.20861949      -1.70654088      -0.22357215
H       -1.47385550      -1.51266233      -1.47938367
H       -0.26625422       1.06410739       0.80120034
H       -2.28705395       1.51564072       0.07901929
14
Frame=7 idx=005656 GeodesicLength=0.3160764035321065 rxn_smarts="[C:1]([O:2][C:3]1([H:10])[C:4]([H:11])([H:12])[O:5][C:6]1([H:13])[H:14])([H:7])([H:8])[H:9]>>[C:1]([O:2][H:13])([H:7])([H:8])[H:9].[C:3]1([H:10])=[C:6]([H:14])[O:5][C:4]1([H:11])[H:12]"
C        1.92281931       0.01998442       0.75515493
O        0.90769938       0.86915866       0.28118169
C       -0.55863625       0.38300668      -0.89278400
C       -0.97219939      -1.04029626      -0.63475581
O       -1.91979391      -0.59733569       0.35445288
C       -1.52456815       0.74772992       0.08796134
H        1.53378481      -0.94215870       1.10916283
H        2.66252205      -0.15839422      -0.03006338
H        2.43270215       0.50122540       1.59405030
H       -0.24300120       0.84867257      -1.81443907
H       -0.21046518      -1.70240798      -0.21872194
H       -1.47231267      -1.51975425      -1.48028832
H       -0.26922746       1.07486381       0.81341039
H       -2.28932347       1.51570565       0.07567815
14
Frame=8 idx=005656 GeodesicLength=0.3610545715071717 rxn_smarts="[C:1]([O:2][C:3]1([H:10])[C:4]([H:11])([H:12])[O:5][C:6]1([H:13])[H:14])([H:7])([H:8])[H:9]>>[C:1]([O:2][H:13])([H:7])([H:8])[H:9].[C:3]1([H:10])=[C:6]([H:14])[O:5][C:4]1([H:11])[H:12]"
C        1.92772592       0.01787141       0.75578877
O        0.91211182       0.86854709       0.28579947
C       -0.55757439       0.38321572      -0.89396386
C       -0.97384557      -1.04086764      -0.63781712
O       -1.92456788      -0.59509559       0.34866802
C       -1.52729179       0.74692226       0.08499006
H        1.53979315      -0.94531522       1.10771120
H        2.66755984      -0.15730746      -0.03001908
H        2.43732154       0.49695677       1.59612863
H       -0.25447219       0.84864269      -1.82020769
H       -0.21219529      -1.69822857      -0.21413362
H       -1.47079602      -1.52685592      -1.48113376
H       -0.27224393       1.08580575       0.82570597
H       -2.29152523       1.51570872       0.07248300
14
Frame=9 idx=005656 GeodesicLength=0.4059893176055741 rxn_smarts="[C:1]([O:2][C:3]1([H:10])[C:4]([H:11])([H:12])[O:5][C:6]1([H:13])[H:14])([H:7])([H:8])[H:9]>>[C:1]([O:2][H:13])([H:7])([H:8])[H:9].[C:3]1([H:10])=[C:6]([H:14])[O:5][C:4]1([H:11])[H:12]"
C        1.93257531       0.01574004       0.75646110
O        0.91656176       0.86797260       0.29038442
C       -0.55651196       0.38346819      -0.89525488
C       -0.97540265      -1.04142680      -0.64096266
O       -1.92913048      -0.59290485       0.34292539
C       -1.52992794       0.74609433       0.08201790
H        1.54560756      -0.94838690       1.10641578
H        2.67248717      -0.15643555      -0.02992974
H        2.44194439       0.49272168       1.59817104
H       -0.26609352       0.84853528      -1.82601748
H       -0.21381825      -1.69400059      -0.20978833
H       -1.46930561      -1.53396931      -1.48191940
H       -0.27530783       1.09693763       0.83808031
H       -2.29367797       1.51565425       0.06941654
14
Frame=10 idx=005656 GeodesicLength=0.4508822073166831 rxn_smarts="[C:1]([O:2][C:3]1([H:10])[C:4]([H:11])([H:12])[O:5][C:6]1([H:13])[H:14])([H:7])([H:8])[H:9]>>[C:1]([O:2][H:13])([H:7])([H:8])[H:9].[C:3]1([H:10])=[C:6]([H:14])[O:5][C:4]1([H:11])[H:12]"
C        1.93737664       0.01359397       0.75716258
O        0.92104156       0.86742991       0.29494713
C       -0.55545009       0.38375451      -0.89665676
C       -0.97688364      -1.04197663      -0.64418103
O       -1.93351294      -0.59074727       0.33721021
C       -1.53247692       0.74525494       0.07903866
H        1.55126511      -0.95140310       1.10521108
H        2.67733553      -0.15570978      -0.02980044
H        2.44654983       0.48849622       1.60020384
H       -0.27785746       0.84833302      -1.83186253
H       -0.21536135      -1.68972802      -0.20564761
H       -1.46783272      -1.54110737      -1.48263566
H       -0.27842394       1.10824747       0.85055114
H       -2.29576962       1.51556214       0.06645938
14
Frame=11 idx=005656 GeodesicLength=0.49573898449278386 rxn_smarts="[C:1]([O:2][C:3]1([H:10])[C:4]([H:11])([H:12])[O:5][C:6]1([H:13])[H:14])([H:7])([H:8])[H:9]>>[C:1]([O:2][H:13])([H:7])([H:8])[H:9].[C:3]1([H:10])=[C:6]([H:14])[O:5][C:4]1([H:11])[H:12]"
C        1.94213842       0.01143402       0.75788448
O        0.92555373       0.86691344       0.29948031
C       -0.55438891       0.38406812      -0.89817318
C       -0.97829942      -1.04251909      -0.64746106
O       -1.93773381      -0.58860895       0.33152274
C       -1.53493613       0.74441220       0.07604967
H        1.55679411      -0.95439100       1.10403010
H        2.68215575      -0.15506360      -0.02961401
H        2.45109863       0.48425064       1.60226304
H       -0.28977124       0.84801805      -1.83774714
H       -0.21683886      -1.68541475      -0.20168814
H       -1.46638515      -1.54828065      -1.48327036
H       -0.28159519       1.11973375       0.86312092
H       -2.29779193       1.51544782       0.06360262
14
Frame=12 idx=005656 GeodesicLength=0.5405656109252637 rxn_smarts="[C:1]([O:2][C:3]1([H:10])[C:4]([H:11])([H:12])[O:5][C:6]1([H:13])[H:14])([H:7])([H:8])[H:9]>>[C:1]([O:2][H:13])([H:7])([H:8])[H:9].[C:3]1([H:10])=[C:6]([H:14])[O:5][C:4]1([H:11])[H:12]"
C        1.94686297       0.00925957       0.75862282
O        0.93009292       0.86642175       0.30399493
C       -0.55332944       0.38440910      -0.89980322
C       -0.97965071      -1.04305409      -0.65079934
O       -1.94181206      -0.58648537       0.32584759
C       -1.53730902       0.74356874       0.07304918
H        1.56220620      -0.95735693       1.10286722
H        2.68694384      -0.15449094      -0.02938371
H        2.45560296       0.47998213       1.60434083
H       -0.30183163       0.84759232      -1.84366489
H       -0.21825773      -1.68105805      -0.19788971
H       -1.46494395      -1.55549599      -1.48382400
H       -0.28483212       1.13138858       0.87580789
H       -2.29974222       1.51531916       0.06083441
14
Frame=13 idx=005656 GeodesicLength=0.5853643850245288 rxn_smarts="[C:1]([O:2][C:3]1([H:10])[C:4]([H:11])([H:12])[O:5][C:6]1([H:13])[H:14])([H:7])([H:8])[H:9]>>[C:1]([O:2][H:13])([H:7])([H:8])[H:9].[C:3]1([H:10])=[C:6]([H:14])[O:5][C:4]1([H:11])[H:12]"
C        1.95154989       0.00706914       0.75937697
O        0.93465607       0.86595514       0.30849940
C       -0.55226933       0.38477997      -0.90154750
C       -0.98093485      -1.04357957      -0.65419660
O       -1.94575221      -0.58437684       0.32017854
C       -1.53959707       0.74272446       0.07003553
H        1.56750307      -0.96029922       1.10173336
H        2.69168714      -0.15400219      -0.02912037
H        2.46007961       0.47568969       1.60642516
H       -0.31403614       0.84705913      -1.84960869
H       -0.21961519      -1.67665511      -0.19424754
H       -1.46350041      -1.56275353      -1.48429754
H       -0.28814574       1.14321525       0.88862183
H       -2.30162485       1.51517367       0.05814746
14
Frame=14 idx=005656 GeodesicLength=0.630135105013849 rxn_smarts="[C:1]([O:2][C:3]1([H:10])[C:4]([H:11])([H:12])[O:5][C:6]1([H:13])[H:14])([H:7])([H:8])[H:9]>>[C:1]([O:2][H:13])([H:7])([H:8])[H:9].[C:3]1([H:10])=[C:6]([H:14])[O:5][C:4]1([H:11])[H:12]"
C        1.95620286       0.00486647       0.76014213
O        0.93924564       0.86551119       0.31298297
C       -0.55121335       0.38517509      -0.90340996
C       -0.98216197      -1.04409898      -0.65765117
O       -1.94954958      -0.58227900       0.31453036
C       -1.54179751       0.74188210       0.06700859
H        1.57269280      -0.96322287       1.10060203
H        2.69641182      -0.15356556      -0.02881295
H        2.46450325       0.47136557       1.60853497
H       -0.32636743       0.84640739      -1.85557807
H       -0.22091443      -1.67221160      -0.19077180
H       -1.46208123      -1.57005177      -1.48468090
H       -0.29153528       1.15520766       0.90157013
H       -2.30343562       1.51501430       0.05553365
14
Frame=15 idx=005656 GeodesicLength=0.6748836950240475 rxn_smarts="[C:1]([O:2][C:3]1([H:10])[C:4]([H:11])([H:12])[O:5][C:6]1([H:13])[H:14])([H:7])([H:8])[H:9]>>[C:1]([O:2][H:13])([H:7])([H:8])[H:9].[C:3]1([H:10])=[C:6]([H:14])[O:5][C:4]1([H:11])[H:12]"
C        1.96082389       0.00265163       0.76091813
O        0.94386254       0.86508878       0.31744253
C       -0.55016158       0.38559464      -0.90539545
C       -0.98333280      -1.04461211      -0.66116421
O       -1.95320975      -0.58019059       0.30889789
C       -1.54391061       0.74104224       0.06396660
H        1.57778266      -0.96613121       1.09947251
H        2.70112354      -0.15318180      -0.02845972
H        2.46887448       0.46700745       1.61067277
H       -0.33883264       0.84563827      -1.86157279
H       -0.22215583      -1.66772677      -0.18745826
H       -1.46068329      -1.57739417      -1.48497344
H       -0.29500609       1.16737023       0.91465676
H       -2.30517451       1.51484339       0.05299668
14
Frame=16 idx=005656 GeodesicLength=0.7196135243089222 rxn_smarts="[C:1]([O:2][C:3]1([H:10])[C:4]([H:11])([H:12])[O:5][C:6]1([H:13])[H:14])([H:7])([H:8])[H:9]>>[C:1]([O:2][H:13])([H:7])([H:8])[H:9].[C:3]1([H:10])=[C:6]([H:14])[O:5][C:4]1([H:11])[H:12]"
C        1.96542062       0.00042716       0.76169749
O        0.94850290       0.86468025       0.32188202
C       -0.54911499       0.38603336      -0.90750452
C       -0.98445770      -1.04512004      -0.66472737
O       -1.95675659      -0.57809907       0.30327009
C       -1.54593761       0.74021129       0.06090467
H        1.58280311      -0.96904240       1.09830150
H        2.70584888      -0.15280567      -0.02805853
H        2.47317676       0.46260115       1.61285329
H       -0.35142851       0.84473605      -1.86759289
H       -0.22335645      -1.66319752      -0.18428176
H       -1.45930210      -1.58478844      -1.48516768
H       -0.29856769       1.17968617       0.92790003
H       -2.30683064       1.51467770       0.05052367
