15
Frame=0 idx=008843 GeodesicLength=0.0 rxn_smarts="[C:1]([C@@:2]1([C:3]([C:4]#[N:5])([H:11])[H:12])[C:6]([H:13])([H:14])[N:7]1[H:15])([H:8])([H:9])[H:10]>>[C:1](/[C:2]([C:3]([C:4]#[N:5])([H:11])[H:12])=[N:7]/[C:6]([H:13])([H:14])[H:15])([H:8])([H:9])[H:10]"
C       -0.95904655       1.21812393      -0.22707906
C       -0.33677930      -0.16654233      -0.36794103
C        1.16872074      -0.11680247      -0.73284021
C        1.98219982       0.56779031       0.26592340
N        2.58836889       1.09562615       1.08508992
C       -0.63527984      -1.14032544       0.83081565
N       -1.06082807      -1.20146739      -0.85981559
H       -0.42575873       1.83550332       0.49811237
H       -0.92335428       1.72562052      -1.19320257
H       -2.00354872       1.12553047       0.06708088
H        1.27574829       0.40074439      -1.68859931
H        1.53475145      -1.13519229      -0.86648850
H       -1.27383335      -0.63633173       1.54784179
H        0.29492244      -1.55504419       1.20743486
H       -1.22628282      -2.01723318       0.43366745
15
Frame=1 idx=008843 GeodesicLength=0.09271046806809881 rxn_smarts="[C:1]([C@@:2]1([C:3]([C:4]#[N:5])([H:11])[H:12])[C:6]([H:13])([H:14])[N:7]1[H:15])([H:8])([H:9])[H:10]>>[C:1](/[C:2]([C:3]([C:4]#[N:5])([H:11])[H:12])=[N:7]/[C:6]([H:13])([H:14])[H:15])([H:8])([H:9])[H:10]"
C       -0.96239708       1.22413693      -0.23953863
C       -0.33343299      -0.15728126      -0.36494331
C        1.17012683      -0.10960081      -0.73084641
C        1.98509493       0.56540773       0.27339720
N        2.59335467       1.08988242       1.09312544
C       -0.63022285      -1.15327446       0.83438344
N       -1.05804773      -1.20114997      -0.83391963
H       -0.43103165       1.85226422       0.47787678
H       -0.93046299       1.72227713      -1.21077763
H       -2.00558334       1.13122954       0.05918510
H        1.27902871       0.41472414      -1.68263158
H        1.53551863      -1.12747310      -0.87059023
H       -1.25195910      -0.65058649       1.56716971
H        0.30118356      -1.58052214       1.19419179
H       -1.26116961      -2.02003387       0.43391797
15
Frame=2 idx=008843 GeodesicLength=0.18546695301716626 rxn_smarts="[C:1]([C@@:2]1([C:3]([C:4]#[N:5])([H:11])[H:12])[C:6]([H:13])([H:14])[N:7]1[H:15])([H:8])([H:9])[H:10]>>[C:1](/[C:2]([C:3]([C:4]#[N:5])([H:11])[H:12])=[N:7]/[C:6]([H:13])([H:14])[H:15])([H:8])([H:9])[H:10]"
C       -0.96579506       1.23004634      -0.25217279
C       -0.33018523      -0.14801375      -0.36168325
C        1.17144181      -0.10235021      -0.72867407
C        1.98789537       0.56305680       0.28094486
N        2.59827408       1.08406548       1.10126277
C       -0.62482724      -1.16662213       0.83818273
N       -1.05525050      -1.20037554      -0.80789824
H       -0.43640797       1.86900570       0.45718466
H       -0.93757898       1.71846770      -1.22857525
H       -2.00764960       1.13697720       0.05114422
H        1.28226936       0.42869083      -1.67644693
H        1.53615355      -1.11967750      -0.87454848
H       -1.22947321      -0.66583711       1.58662070
H        0.30766234      -1.60611862       1.18056417
H       -1.29652871      -2.02131519       0.43409491
15
Frame=3 idx=008843 GeodesicLength=0.27825819393596807 rxn_smarts="[C:1]([C@@:2]1([C:3]([C:4]#[N:5])([H:11])[H:12])[C:6]([H:13])([H:14])[N:7]1[H:15])([H:8])([H:9])[H:10]>>[C:1](/[C:2]([C:3]([C:4]#[N:5])([H:11])[H:12])=[N:7]/[C:6]([H:13])([H:14])[H:15])([H:8])([H:9])[H:10]"
C       -0.96923545       1.23585169      -0.26497332
C       -0.32704555      -0.13873312      -0.35813895
C        1.17265249      -0.09506185      -0.72631689
C        1.99060450       0.56073434       0.28855487
N        2.60313384       1.07818438       1.10947824
C       -0.61909352      -1.18039429       0.84220595
N       -1.05246760      -1.19913184      -0.78173755
H       -0.44188477       1.88571328       0.43604245
H       -0.94467896       1.71418534      -1.24657828
H       -2.00974770       1.14279133       0.04295198
H        1.28545193       0.44261937      -1.67004820
H        1.53663437      -1.11181988      -0.87834885
H       -1.20644175      -0.68215826       1.60616580
H        0.31437039      -1.63175561       1.16659433
H       -1.33225223      -2.02102490       0.43414843
15
Frame=4 idx=008843 GeodesicLength=0.37105379080083434 rxn_smarts="[C:1]([C@@:2]1([C:3]([C:4]#[N:5])([H:11])[H:12])[C:6]([H:13])([H:14])[N:7]1[H:15])([H:8])([H:9])[H:10]>>[C:1](/[C:2]([C:3]([C:4]#[N:5])([H:11])[H:12])=[N:7]/[C:6]([H:13])([H:14])[H:15])([H:8])([H:9])[H:10]"
C       -0.97271284       1.24155755      -0.27793456
C       -0.32402340      -0.12942686      -0.35428550
C        1.17374507      -0.08774397      -0.72376812
C        1.99322630       0.55843786       0.29621696
N        2.60794847       1.07224287       1.11774771
C       -0.61302398      -1.19460981       0.84644700
N       -1.04973001      -1.19740357      -0.75541622
H       -0.44745764       1.90238018       0.41444991
H       -0.95174202       1.70942360      -1.26477416
H       -2.01187802       1.14869644       0.03459937
H        1.28855781       0.45648789      -1.66343819
H        1.53693703      -1.10391240      -0.88197927
H       -1.18295168      -0.69963780       1.62577010
H        0.32131673      -1.65736898       1.15231405
H       -1.36821182      -2.01912299       0.43405091
15
Frame=5 idx=008843 GeodesicLength=0.4638165507778045 rxn_smarts="[C:1]([C@@:2]1([C:3]([C:4]#[N:5])([H:11])[H:12])[C:6]([H:13])([H:14])[N:7]1[H:15])([H:8])([H:9])[H:10]>>[C:1](/[C:2]([C:3]([C:4]#[N:5])([H:11])[H:12])=[N:7]/[C:6]([H:13])([H:14])[H:15])([H:8])([H:9])[H:10]"
C       -0.97622479       1.24716650      -0.29105447
C       -0.32112896      -0.12008356      -0.35009656
C        1.17470519      -0.08040379      -0.72101945
C        1.99576257       0.55616327       0.30392562
N        2.61273155       1.06624042       1.12605362
C       -0.60662108      -1.20929016       0.85089980
N       -1.04706788      -1.19517313      -0.72891561
H       -0.45312352       1.91900359       0.39240127
H       -0.95875315       1.70417107      -1.28315673
H       -2.01404352       1.15471296       0.02607703
H        1.29156947       0.47027774      -1.65661699
H        1.53703791      -1.09596463      -0.88542885
H       -1.15907225      -0.71834864       1.64541287
H        0.32851731      -1.68290584       1.13774631
H       -1.40428885      -2.01556580       0.43377215
15
Frame=6 idx=008843 GeodesicLength=0.5565210863934993 rxn_smarts="[C:1]([C@@:2]1([C:3]([C:4]#[N:5])([H:11])[H:12])[C:6]([H:13])([H:14])[N:7]1[H:15])([H:8])([H:9])[H:10]>>[C:1](/[C:2]([C:3]([C:4]#[N:5])([H:11])[H:12])=[N:7]/[C:6]([H:13])([H:14])[H:15])([H:8])([H:9])[H:10]"
C       -0.97976678       1.25269133      -0.30433278
C       -0.31837119      -0.11068012      -0.34554237
C        1.17551830      -0.07304379      -0.71806296
C        1.99821867       0.55391015       0.31167336
N        2.61751024       1.06017089       1.13437557
C       -0.59989220      -1.22444145       0.85555709
N       -1.04451178      -1.19241834      -0.70219610
H       -0.45887377       1.93559369       0.36988268
H       -0.96569658       1.69842086      -1.30172391
H       -2.01624534       1.16087525       0.01737497
H        1.29446965       0.48397414      -1.64958570
H        1.53690931      -1.08798399      -0.88868907
H       -1.13490742      -0.73838732       1.66504830
H        0.33597299      -1.70831921       1.12290397
H       -1.44033411      -2.01036208       0.43331696
15
Frame=7 idx=008843 GeodesicLength=0.6491364036437909 rxn_smarts="[C:1]([C@@:2]1([C:3]([C:4]#[N:5])([H:11])[H:12])[C:6]([H:13])([H:14])[N:7]1[H:15])([H:8])([H:9])[H:10]>>[C:1](/[C:2]([C:3]([C:4]#[N:5])([H:11])[H:12])=[N:7]/[C:6]([H:13])([H:14])[H:15])([H:8])([H:9])[H:10]"
C       -0.98333774       1.25813793      -0.31777742
C       -0.31575583      -0.10119389      -0.34059509
C        1.17617424      -0.06566127      -0.71488664
C        2.00059630       0.55167887       0.31946674
N        2.62230119       1.05403734       1.14270198
C       -0.59283668      -1.24008722       0.86039750
N       -1.04208254      -1.18913123      -0.67521809
H       -0.46470827       1.95215406       0.34687108
H       -0.97256097       1.69215610      -1.32047552
H       -2.01848782       1.16720637       0.00847290
H        1.29724807       0.49757319      -1.64233915
H        1.53653456      -1.07996793      -0.89175352
H       -1.11051320      -0.75982623       1.68466101
H        0.34369022      -1.73360622       1.10775838
H       -1.47626152      -2.00346986       0.43271583
15
Frame=8 idx=008843 GeodesicLength=0.7416060410081077 rxn_smarts="[C:1]([C@@:2]1([C:3]([C:4]#[N:5])([H:11])[H:12])[C:6]([H:13])([H:14])[N:7]1[H:15])([H:8])([H:9])[H:10]>>[C:1](/[C:2]([C:3]([C:4]#[N:5])([H:11])[H:12])=[N:7]/[C:6]([H:13])([H:14])[H:15])([H:8])([H:9])[H:10]"
C       -0.98693460       1.26351782      -0.33139338
C       -0.31329283      -0.09159861      -0.33522568
C        1.17665900      -0.05825327      -0.71148060
C        2.00289868       0.54946746       0.32730795
N        2.62712675       1.04783373       1.15102411
C       -0.58545914      -1.25624083       0.86540501
N       -1.03980226      -1.18528692      -0.64793541
H       -0.47061948       1.96869690       0.32333903
H       -0.97933460       1.68536148      -1.33941579
H       -2.02077408       1.17373837      -0.00064614
H        1.29989191       0.51107074      -1.63487420
H        1.53588844      -1.07191546      -0.89462040
H       -1.08597501      -0.78275427       1.70420777
H        0.35166925      -1.75874966       1.09229124
H       -1.51194204      -1.99488747       0.43201647
15
Frame=9 idx=008843 GeodesicLength=0.8339885397586364 rxn_smarts="[C:1]([C@@:2]1([C:3]([C:4]#[N:5])([H:11])[H:12])[C:6]([H:13])([H:14])[N:7]1[H:15])([H:8])([H:9])[H:10]>>[C:1](/[C:2]([C:3]([C:4]#[N:5])([H:11])[H:12])=[N:7]/[C:6]([H:13])([H:14])[H:15])([H:8])([H:9])[H:10]"
C       -0.99054508       1.26888088      -0.34520221
C       -0.31098061      -0.08181623      -0.32938087
C        1.17695991      -0.05079333      -0.70782801
C        2.00513026       0.54727339       0.33520604
N        2.63203245       1.04153175       1.15932643
C       -0.57778024      -1.27293103       0.87049088
N       -1.03769334      -1.18087452      -0.62020669
H       -0.47659137       1.98526626       0.29923912
H       -0.98599826       1.67803996      -1.35855445
H       -2.02310077       1.18055778      -0.01003834
H        1.30239009       0.52448559      -1.62717813
H        1.53493732      -1.06380017      -0.89729560
H       -1.06139720      -0.80731385       1.72353604
H        0.35987236      -1.78372895       1.07646717
H       -1.54723551      -1.98477752       0.43141862
15
Frame=10 idx=008843 GeodesicLength=0.9262792609978518 rxn_smarts="[C:1]([C@@:2]1([C:3]([C:4]#[N:5])([H:11])[H:12])[C:6]([H:13])([H:14])[N:7]1[H:15])([H:8])([H:9])[H:10]>>[C:1](/[C:2]([C:3]([C:4]#[N:5])([H:11])[H:12])=[N:7]/[C:6]([H:13])([H:14])[H:15])([H:8])([H:9])[H:10]"
C       -0.99418378       1.27419058      -0.35920954
C       -0.30883007      -0.07186105      -0.32304027
C        1.17706843      -0.04328783      -0.70391095
C        2.00729039       0.54510229       0.34317753
N        2.63701846       1.03513853       1.16762442
C       -0.56977150      -1.29014281       0.87570697
N       -1.03576416      -1.17585783      -0.59205100
H       -0.48263825       2.00185063       0.27452288
H       -0.99257066       1.67012265      -1.37790372
H       -2.02548118       1.18762972      -0.01969048
H        1.30473830       0.53780911      -1.61923951
H        1.53367388      -1.05562766      -0.89976155
H       -1.03674433      -0.83347711       1.74277920
H        0.36832145      -1.80859688       1.06020430
H       -1.58212699      -1.97299232       0.43079174
15
Frame=11 idx=008843 GeodesicLength=1.018511867308886 rxn_smarts="[C:1]([C@@:2]1([C:3]([C:4]#[N:5])([H:11])[H:12])[C:6]([H:13])([H:14])[N:7]1[H:15])([H:8])([H:9])[H:10]>>[C:1](/[C:2]([C:3]([C:4]#[N:5])([H:11])[H:12])=[N:7]/[C:6]([H:13])([H:14])[H:15])([H:8])([H:9])[H:10]"
C       -0.99785515       1.27945329      -0.37343377
C       -0.30684657      -0.06169271      -0.31616366
C        1.17697308      -0.03572197      -0.69970819
C        2.00937812       0.54295402       0.35124269
N        2.64211318       1.02862878       1.17592666
C       -0.56143712      -1.30787847       0.88102694
N       -1.03402670      -1.17020822      -0.56339409
H       -0.48876121       2.01847167       0.24913075
H       -0.99905570       1.66156780      -1.39748149
H       -2.02792319       1.19498216      -0.02962844
H        1.30693090       0.55105358      -1.61103965
H        1.53207510      -1.04738267      -0.90201225
H       -1.01201581      -0.86128583       1.76193102
H        0.37699084      -1.83336946       1.04342609
H       -1.61653978      -1.95957195       0.43017740
15
Frame=12 idx=008843 GeodesicLength=1.110720906068247 rxn_smarts="[C:1]([C@@:2]1([C:3]([C:4]#[N:5])([H:11])[H:12])[C:6]([H:13])([H:14])[N:7]1[H:15])([H:8])([H:9])[H:10]>>[C:1](/[C:2]([C:3]([C:4]#[N:5])([H:11])[H:12])=[N:7]/[C:6]([H:13])([H:14])[H:15])([H:8])([H:9])[H:10]"
C       -1.00156313       1.28467180      -0.38789290
C       -0.30503439      -0.05126903      -0.30870712
C        1.17666331      -0.02807894      -0.69519516
C        2.01139440       0.54083165       0.35942374
N        2.64734556       1.02198316       1.18424111
C       -0.55277210      -1.32613419       0.88643015
N       -1.03248709      -1.16389811      -0.53415361
H       -0.49496268       2.03514598       0.22299546
H       -1.00545805       1.65232368      -1.41730200
H       -2.03043478       1.20263997      -0.03988237
H        1.30896310       0.56423221      -1.60255823
H        1.53011874      -1.03904670      -0.90403831
H       -0.98720721      -0.89078990       1.78098203
H        0.38584946      -1.85807474       1.02603726
H       -1.65041514      -1.94453682       0.42961995
15
Frame=13 idx=008843 GeodesicLength=1.202904032163146 rxn_smarts="[C:1]([C@@:2]1([C:3]([C:4]#[N:5])([H:11])[H:12])[C:6]([H:13])([H:14])[N:7]1[H:15])([H:8])([H:9])[H:10]>>[C:1](/[C:2]([C:3]([C:4]#[N:5])([H:11])[H:12])=[N:7]/[C:6]([H:13])([H:14])[H:15])([H:8])([H:9])[H:10]"
C       -1.00531334       1.28984726      -0.40260828
C       -0.30339651      -0.04054381      -0.30062541
C        1.17612901      -0.02033980      -0.69034711
C        2.01334071       0.53873714       0.36774608
N        2.65275672       1.01517369       1.19257691
C       -0.54378476      -1.34490485       0.89188800
N       -1.03114763      -1.15688896      -0.50423699
H       -0.50124764       2.05188890       0.19604728
H       -1.01178412       1.64233122      -1.43738248
H       -2.03302533       1.21062465      -0.05048181
H        1.31083306       0.57736237      -1.59377249
H        1.52778039      -1.03059995      -0.90583313
H       -0.96231300      -0.92204676       1.79991075
H        0.39485109      -1.88272437       1.00794176
H       -1.68367865      -1.92791673       0.42917693
15
Frame=14 idx=008843 GeodesicLength=1.2951174200910065 rxn_smarts="[C:1]([C@@:2]1([C:3]([C:4]#[N:5])([H:11])[H:12])[C:6]([H:13])([H:14])[N:7]1[H:15])([H:8])([H:9])[H:10]>>[C:1](/[C:2]([C:3]([C:4]#[N:5])([H:11])[H:12])=[N:7]/[C:6]([H:13])([H:14])[H:15])([H:8])([H:9])[H:10]"
C       -1.00910941       1.29497511      -0.41760028
C       -0.30193213      -0.02946506      -0.29186961
C        1.17536366      -0.01248047      -0.68513472
C        2.01522238       0.53667634       0.37623711
N        2.65838385       1.00818220       1.20094304
C       -0.53446634      -1.36418324       0.89736970
N       -1.03000256      -1.14914880      -0.47353160
H       -0.50762252       2.06870786       0.16820219
H       -1.01803943       1.63152043      -1.45773336
H       -2.03570326       1.21895314      -0.06146376
H        1.31254144       0.59046634      -1.58465621
H        1.52504050      -1.02201510      -0.90738732
H       -0.93731805      -0.95511655       1.81869681
H        0.40394422      -1.90734792       0.98901820
H       -1.71630235      -1.90972428       0.42890980
15
Frame=15 idx=008843 GeodesicLength=1.3873800376228886 rxn_smarts="[C:1]([C@@:2]1([C:3]([C:4]#[N:5])([H:11])[H:12])[C:6]([H:13])([H:14])[N:7]1[H:15])([H:8])([H:9])[H:10]>>[C:1](/[C:2]([C:3]([C:4]#[N:5])([H:11])[H:12])=[N:7]/[C:6]([H:13])([H:14])[H:15])([H:8])([H:9])[H:10]"
C       -1.01295511       1.30004446      -0.43289162
C       -0.30063775      -0.01797785      -0.28239219
C        1.17436282      -0.00447487      -0.67952975
C        2.01704741       0.53465588       0.38492365
N        2.66427098       1.00098848       1.20934853
C       -0.52481308      -1.38396248       0.90283565
N       -1.02903809      -1.14063732      -0.44191331
H       -0.51409461       2.08560460       0.13937872
H       -1.02422776       1.61981369      -1.47836383
H       -2.03847718       1.22763378      -0.07286648
H        1.31409175       0.60356938      -1.57518298
H        1.52187952      -1.01326271      -0.90869328
H       -0.91222277      -0.99008420       1.83729198
H        0.41306892      -1.93195425       0.96914528
H       -1.74825505      -1.88995660       0.42890963
15
Frame=16 idx=008843 GeodesicLength=1.4797088927811555 rxn_smarts="[C:1]([C@@:2]1([C:3]([C:4]#[N:5])([H:11])[H:12])[C:6]([H:13])([H:14])[N:7]1[H:15])([H:8])([H:9])[H:10]>>[C:1](/[C:2]([C:3]([C:4]#[N:5])([H:11])[H:12])=[N:7]/[C:6]([H:13])([H:14])[H:15])([H:8])([H:9])[H:10]"
C       -1.01685356       1.30504133      -0.44850506
C       -0.29950456      -0.00601998      -0.27214239
C        1.17312546       0.00370688      -0.67350159
C        2.01882700       0.53268385       0.39383435
N        2.67047083       0.99356994       1.21780001
C       -0.51482551      -1.40423848       0.90823270
N       -1.02823787      -1.13130468      -0.40923443
H       -0.52067371       2.10257529       0.10948605
H       -1.03035401       1.60712271      -1.49928016
H       -2.04135512       1.23667037      -0.08473220
H        1.31549190       0.61670068      -1.56532389
H        1.51827816      -1.00430981      -0.90974227
H       -0.88704004      -1.02705219       1.85562526
H        0.42215382      -1.95653706       0.94819515
H       -1.77950276      -1.86860883       0.42928846
