13
Frame=0 idx=003884 GeodesicLength=0.0 rxn_smarts="[O:1]([C:2]([C:3]([N:4]([C:5](=[O:6])[H:13])[H:12])([H:10])[H:11])([H:8])[H:9])[H:7]>>[O:1]1[C:2]([H:8])([H:9])[C:3]([H:10])([H:11])[N:4]([H:12])[C@:5]1([O:6][H:7])[H:13]"
O       -0.26343250      -1.11961072       0.86548431
C       -1.08918407      -0.68288531      -0.15000121
C       -0.54710473       0.67515809      -0.68223817
N        0.90216414       0.53367007      -0.62672068
C        1.33258044       0.08044070       0.56186567
O        0.94634428       0.61018933       1.69147392
H        0.09475143      -0.09204733       1.71296788
H       -2.12031339      -0.53118964       0.18973530
H       -1.11705204      -1.41668844      -0.97045060
H       -0.84124352       1.49372781      -0.02644371
H       -0.86157871       0.90682197      -1.69861071
H        1.30595852       0.04084706      -1.40937344
H        2.25811010      -0.49843361       0.54231146
13
Frame=1 idx=003884 GeodesicLength=0.05393207042677982 rxn_smarts="[O:1]([C:2]([C:3]([N:4]([C:5](=[O:6])[H:13])[H:12])([H:10])[H:11])([H:8])[H:9])[H:7]>>[O:1]1[C:2]([H:8])([H:9])[C:3]([H:10])([H:11])[N:4]([H:12])[C@:5]1([O:6][H:7])[H:13]"
O       -0.28059165      -1.10651382       0.88315085
C       -1.09204605      -0.68157741      -0.15019122
C       -0.55002983       0.67377363      -0.68358321
N        0.89963591       0.53860241      -0.62300175
C        1.33328920       0.06578420       0.56014110
O        0.97082087       0.60226951       1.69396995
H        0.09144373      -0.08127011       1.73143002
H       -2.12880563      -0.53679676       0.17388947
H       -1.10145496      -1.42252941      -0.96453220
H       -0.85146417       1.49408722      -0.03294110
H       -0.86180655       0.89914822      -1.70229431
H        1.31293554       0.06935054      -1.41474461
H        2.25807359      -0.51432822       0.52870702
13
Frame=2 idx=003884 GeodesicLength=0.10771569362134154 rxn_smarts="[O:1]([C:2]([C:3]([N:4]([C:5](=[O:6])[H:13])[H:12])([H:10])[H:11])([H:8])[H:9])[H:7]>>[O:1]1[C:2]([H:8])([H:9])[C:3]([H:10])([H:11])[N:4]([H:12])[C@:5]1([O:6][H:7])[H:13]"
O       -0.29804305      -1.09259114       0.90088636
C       -1.09486533      -0.68026837      -0.15027082
C       -0.55299060       0.67229866      -0.68509997
N        0.89705594       0.54377338      -0.61900566
C        1.33374570       0.05086702       0.55822993
O        0.99554687       0.59324178       1.69628882
H        0.08843360      -0.07005923       1.74996704
H       -2.13701297      -0.54258777       0.15799279
H       -1.08561015      -1.42843615      -0.95787133
H       -0.86200883       1.49442429      -0.03998715
H       -0.86179120       0.89098933      -1.70623969
H        1.32013428       0.09917334      -1.41937267
H        2.25740574      -0.53082515       0.51448236
13
Frame=3 idx=003884 GeodesicLength=0.16150124869583404 rxn_smarts="[O:1]([C:2]([C:3]([N:4]([C:5](=[O:6])[H:13])[H:12])([H:10])[H:11])([H:8])[H:9])[H:7]>>[O:1]1[C:2]([H:8])([H:9])[C:3]([H:10])([H:11])[N:4]([H:12])[C@:5]1([O:6][H:7])[H:13]"
O       -0.31576258      -1.07785089       0.91867844
C       -1.09765878      -0.67897595      -0.15023562
C       -0.55598022       0.67074415      -0.68683466
N        0.89442552       0.54921592      -0.61473456
C        1.33395542       0.03571026       0.55614050
O        1.02051409       0.58306205       1.69847349
H        0.08577762      -0.05846297       1.76862941
H       -2.14493144      -0.54858313       0.14210573
H       -1.06960643      -1.43443707      -0.95046902
H       -0.87286848       1.49478283      -0.04764851
H       -0.86150244       0.88232920      -1.71053311
H        1.32754393       0.13036474      -1.42320099
H        2.25609380      -0.54789914       0.49962889
13
Frame=4 idx=003884 GeodesicLength=0.2152457752951861 rxn_smarts="[O:1]([C:2]([C:3]([N:4]([C:5](=[O:6])[H:13])[H:12])([H:10])[H:11])([H:8])[H:9])[H:7]>>[O:1]1[C:2]([H:8])([H:9])[C:3]([H:10])([H:11])[N:4]([H:12])[C@:5]1([O:6][H:7])[H:13]"
O       -0.33371038      -1.06226759       0.93646755
C       -1.10042165      -0.67768445      -0.15007318
C       -0.55899251       0.66909674      -0.68880537
N        0.89174139       0.55493784      -0.61017140
C        1.33390723       0.02033307       0.55385468
O        1.04566988       0.57165759       1.70051272
H        0.08350418      -0.04652405       1.78739423
H       -2.15253460      -0.55475528       0.12629878
H       -1.05348409      -1.44049829      -0.94229265
H       -0.88406601       1.49515013      -0.05598959
H       -0.86089476       0.87311535      -1.71518893
H        1.33515859       0.16294109      -1.42611832
H        2.25412273      -0.56550215       0.48411145
13
Frame=5 idx=003884 GeodesicLength=0.26903980964545393 rxn_smarts="[O:1]([C:2]([C:3]([N:4]([C:5](=[O:6])[H:13])[H:12])([H:10])[H:11])([H:8])[H:9])[H:7]>>[O:1]1[C:2]([H:8])([H:9])[C:3]([H:10])([H:11])[N:4]([H:12])[C@:5]1([O:6][H:7])[H:13]"
O       -0.35185030      -1.04584829       0.95421402
C       -1.10317407      -0.67640168      -0.14978085
C       -0.56202406       0.66735718      -0.69105510
N        0.88900584       0.56097110      -0.60530521
C        1.33360924       0.00476328       0.55137704
O        1.07101129       0.55897197       1.70244251
H        0.08167757      -0.03429398       1.80628036
H       -2.15982141      -0.56109912       0.11063390
H       -1.03734156      -1.44663071      -0.93333308
H       -0.89560439       1.49554247      -0.06509512
H       -0.85993627       0.86331230      -1.72027367
H        1.34296227       0.19694075      -1.42802879
H        2.25148584      -0.58358528       0.46792399
13
Frame=6 idx=003884 GeodesicLength=0.32267310944552613 rxn_smarts="[O:1]([C:2]([C:3]([N:4]([C:5](=[O:6])[H:13])[H:12])([H:10])[H:11])([H:8])[H:9])[H:7]>>[O:1]1[C:2]([H:8])([H:9])[C:3]([H:10])([H:11])[N:4]([H:12])[C@:5]1([O:6][H:7])[H:13]"
O       -0.37014417      -1.02850363       0.97184127
C       -1.10588074      -0.67507640      -0.14933158
C       -0.56505428       0.66548956      -0.69356397
N        0.88619690       0.56729232      -0.60009761
C        1.33302964      -0.01100280       0.54865994
O        1.09640670       0.54493050       1.70414933
H        0.08028350      -0.02183129       1.82521132
H       -2.16674615      -0.56757836       0.09519879
H       -1.02114795      -1.45273790      -0.92353341
H       -0.90750674       1.49591400      -0.07500584
H       -0.85853559       0.85282843      -1.72572686
H        1.35093803       0.23236128      -1.42879238
H        2.24816085      -0.60208571       0.45099100
13
Frame=7 idx=003884 GeodesicLength=0.37620132631330927 rxn_smarts="[O:1]([C:2]([C:3]([N:4]([C:5](=[O:6])[H:13])[H:12])([H:10])[H:11])([H:8])[H:9])[H:7]>>[O:1]1[C:2]([H:8])([H:9])[C:3]([H:10])([H:11])[N:4]([H:12])[C@:5]1([O:6][H:7])[H:13]"
O       -0.38852447      -1.01027246       0.98929984
C       -1.10855910      -0.67371041      -0.14871588
C       -0.56807405       0.66348208      -0.69637891
N        0.88332441       0.57392861      -0.59453855
C        1.33217779      -0.02690198       0.54568861
O        1.12183725       0.52945278       1.70570025
H        0.07937079      -0.00917927       1.84421354
H       -2.17330597      -0.57413398       0.08007274
H       -1.00502394      -1.45882241      -0.91289561
H       -0.91978773       1.49624591      -0.08582381
H       -0.85664373       0.84160806      -1.73160717
H        1.35907651       0.26921743      -1.42827735
H        2.24413223      -0.62091436       0.43326232
13
Frame=8 idx=003884 GeodesicLength=0.42978437854650825 rxn_smarts="[O:1]([C:2]([C:3]([N:4]([C:5](=[O:6])[H:13])[H:12])([H:10])[H:11])([H:8])[H:9])[H:7]>>[O:1]1[C:2]([H:8])([H:9])[C:3]([H:10])([H:11])[N:4]([H:12])[C@:5]1([O:6][H:7])[H:13]"
O       -0.40696360      -0.99114989       1.00657964
C       -1.11123509      -0.67230994      -0.14792826
C       -0.57107972       0.66134005      -0.69954725
N        0.88037969       0.58091785      -0.58861158
C        1.33107730      -0.04293368       0.54247684
O        1.14730362       0.51250286       1.70710868
H        0.07900884       0.00359214       1.86332294
H       -2.17952939      -0.58078322       0.06530960
H       -0.98906085      -1.46489948      -0.90141777
H       -0.93244214       1.49657488      -0.09764770
H       -0.85421764       0.82961225      -1.73798898
H        1.36733183       0.30756878      -1.42640291
H        2.23942715      -0.64003258       0.41474676
13
Frame=9 idx=003884 GeodesicLength=0.4833457929429501 rxn_smarts="[O:1]([C:2]([C:3]([N:4]([C:5](=[O:6])[H:13])[H:12])([H:10])[H:11])([H:8])[H:9])[H:7]>>[O:1]1[C:2]([H:8])([H:9])[C:3]([H:10])([H:11])[N:4]([H:12])[C@:5]1([O:6][H:7])[H:13]"
O       -0.42540217      -0.97111966       1.02361213
C       -1.11390416      -0.67084615      -0.14695186
C       -0.57405196       0.65903952      -0.70308380
N        0.87735160       0.58825916      -0.58229238
C        1.32971998      -0.05907017       0.53899420
O        1.17271542       0.49401861       1.70834104
H        0.07921975       0.01640247       1.88251902
H       -2.18540023      -0.58746408       0.05100571
H       -0.97331863      -1.47092269      -0.88908395
H       -0.94547917       1.49686811      -0.11055678
H       -0.85117151       0.81676635      -1.74486715
H        1.37566613       0.34739146      -1.42303005
H        2.23405495      -0.65932291       0.39539387
13
Frame=10 idx=003884 GeodesicLength=0.5368841609055468 rxn_smarts="[O:1]([C:2]([C:3]([N:4]([C:5](=[O:6])[H:13])[H:12])([H:10])[H:11])([H:8])[H:9])[H:7]>>[O:1]1[C:2]([H:8])([H:9])[C:3]([H:10])([H:11])[N:4]([H:12])[C@:5]1([O:6][H:7])[H:13]"
O       -0.44377889      -0.95019000       1.04034074
C       -1.11657900      -0.66929891      -0.14577394
C       -0.57697316       0.65656386      -0.70701691
N        0.87423337       0.59596113      -0.57556093
C        1.32811439      -0.07527997       0.53522294
O        1.19800289       0.47395099       1.70938266
H        0.08003850       0.02915388       1.90180446
H       -2.19092728      -0.59411853       0.03725601
H       -0.95789454      -1.47686305      -0.87589406
H       -0.95889741       1.49710647      -0.12464641
H       -0.84742518       0.80300653      -1.75225997
H        1.38403058       0.38865609      -1.41803041
H        2.22805573      -0.67864849       0.37517582
13
Frame=11 idx=003884 GeodesicLength=0.5903993570214858 rxn_smarts="[O:1]([C:2]([C:3]([N:4]([C:5](=[O:6])[H:13])[H:12])([H:10])[H:11])([H:8])[H:9])[H:7]>>[O:1]1[C:2]([H:8])([H:9])[C:3]([H:10])([H:11])[N:4]([H:12])[C@:5]1([O:6][H:7])[H:13]"
O       -0.46203192      -0.92837044       1.05671442
C       -1.11927238      -0.66764641      -0.14438246
C       -0.57982334       0.65389564      -0.71137304
N        0.87101466       0.60403103      -0.56839577
C        1.32627044      -0.09153301       0.53114400
O        1.22309498       0.45226066       1.71021296
H        0.08149813       0.04174474       1.92118618
H       -2.19612391      -0.60068379       0.02415119
H       -0.94288419      -1.48269321      -0.86185421
H       -0.97268862       1.49726801      -0.14001238
H       -0.84289260       0.78826761      -1.76017857
H        1.39236166       0.43132441      -1.41127905
H        2.22147709      -0.69786524       0.35406673
13
Frame=12 idx=003884 GeodesicLength=0.6438929246032655 rxn_smarts="[O:1]([C:2]([C:3]([N:4]([C:5](=[O:6])[H:13])[H:12])([H:10])[H:11])([H:8])[H:9])[H:7]>>[O:1]1[C:2]([H:8])([H:9])[C:3]([H:10])([H:11])[N:4]([H:12])[C@:5]1([O:6][H:7])[H:13]"
O       -0.48009848      -0.90567336       1.07268553
C       -1.12199893      -0.66586446      -0.14276579
C       -0.58258089       0.65101706      -0.71617737
N        0.86768328       0.61247421      -0.56077606
C        1.32420084      -0.10779874       0.52673729
O        1.24791769       0.42891959       1.71080521
H        0.08362941       0.05406368       1.94067512
H       -2.20101053      -0.60709007       0.01177951
H       -0.92838387      -1.48838619      -0.84697475
H       -0.98683929       1.49732671      -0.15675165
H       -0.83748357       0.77248580      -1.76862634
H        1.40058510       0.47534368      -1.40265662
H        2.21437924      -0.71681791       0.33204592
13
Frame=13 idx=003884 GeodesicLength=0.6973658079801696 rxn_smarts="[O:1]([C:2]([C:3]([N:4]([C:5](=[O:6])[H:13])[H:12])([H:10])[H:11])([H:8])[H:9])[H:7]>>[O:1]1[C:2]([H:8])([H:9])[C:3]([H:10])([H:11])[N:4]([H:12])[C@:5]1([O:6][H:7])[H:13]"
O       -0.49791529      -0.88211299       1.08821065
C       -1.12477437      -0.66392668      -0.14091324
C       -0.58522240       0.64791016      -0.72145304
N        0.86422483       0.62129447      -0.55268136
C        1.32192014      -0.12404516       0.52198116
O        1.27239522       0.40391152       1.71112661
H        0.08646026       0.06599110       1.96028654
H       -2.20561326      -0.61326086       0.00022426
H       -0.91448846      -1.49391611      -0.83126962
H       -1.00132936       1.49725173      -0.17496101
H       -0.83110436       0.75559941      -1.77759724
H        1.40861510       0.52064528      -1.39205077
H        2.20683196      -0.73534189       0.30909706
13
Frame=14 idx=003884 GeodesicLength=0.7508211059069595 rxn_smarts="[O:1]([C:2]([C:3]([N:4]([C:5](=[O:6])[H:13])[H:12])([H:10])[H:11])([H:8])[H:9])[H:7]>>[O:1]1[C:2]([H:8])([H:9])[C:3]([H:10])([H:11])[N:4]([H:12])[C@:5]1([O:6][H:7])[H:13]"
O       -0.51542040      -0.85770438       1.10325141
C       -1.12761560      -0.66180438      -0.13881493
C       -0.58772268       0.64455690      -0.72722073
N        0.86062252       0.63049357      -0.54409203
C        1.31944471      -0.14023980       0.51685219
O        1.29645096       0.37723272       1.71113735
H        0.09001369       0.07739958       1.98003976
H       -2.20996389      -0.61911350      -0.01043750
H       -0.90128983      -1.49925818      -0.81475512
H       -1.01613144       1.49700734      -0.19473598
H       -0.82365850       0.73754944      -1.78707430
H        1.41635465       0.56714546      -1.37935924
H        2.19891581      -0.75326477       0.28520910
13
Frame=15 idx=003884 GeodesicLength=0.8042605489552112 rxn_smarts="[O:1]([C:2]([C:3]([N:4]([C:5](=[O:6])[H:13])[H:12])([H:10])[H:11])([H:8])[H:9])[H:7]>>[O:1]1[C:2]([H:8])([H:9])[C:3]([H:10])([H:11])[N:4]([H:12])[C@:5]1([O:6][H:7])[H:13]"
O       -0.53255134      -0.83246469       1.11777314
C       -1.13053971      -0.65946686      -0.13646283
C       -0.59005445       0.64093984      -0.73349794
N        0.85685732       0.64007160      -0.53499084
C        1.31679218      -0.15634594       0.51132597
O        1.32000677       0.34889500       1.71079258
H        0.09430710       0.08815256       1.99995855
H       -2.21409761      -0.62455955      -0.02013535
H       -0.88887645      -1.50438830      -0.79745128
H       -1.03120850       1.49655230      -0.21616780
H       -0.81504923       0.71828275      -1.79702802
H        1.42369542       0.61473774      -1.36449440
H        2.19071851      -0.77040645       0.26037820
13
Frame=16 idx=003884 GeodesicLength=0.8576889987113515 rxn_smarts="[O:1]([C:2]([C:3]([N:4]([C:5](=[O:6])[H:13])[H:12])([H:10])[H:11])([H:8])[H:9])[H:7]>>[O:1]1[C:2]([H:8])([H:9])[C:3]([H:10])([H:11])[N:4]([H:12])[C@:5]1([O:6][H:7])[H:13]"
O       -0.54924792      -0.80641051       1.13174653
C       -1.13356451      -0.65688077      -0.13384952
C       -0.59218933       0.63704148      -0.74029879
N        0.85290754       0.65002386      -0.52536322
C        1.31398178      -0.17232767       0.50537646
O        1.34298472       0.31892634       1.71003782
H        0.09935049       0.09810389       2.02006910
H       -2.21805445      -0.62950485      -0.02880749
H       -0.87733169      -1.50928259      -0.77937759
H       -1.04651420       1.49584018      -0.23934430
H       -0.80518142       0.69775049      -1.80741463
H        1.43052074       0.66330450      -1.34738541
H        2.18233824      -0.78658437       0.23461105
