11
Frame=0 idx=003829 GeodesicLength=0.0 rxn_smarts="[C:1]([C@@:2]([O:3][H:10])([C:4]#[C:5][H:11])[H:9])([H:6])([H:7])[H:8]>>[C:1]([C:2](=[O:3])[H:9])([H:6])([H:7])[H:8].[C:4](#[C:5][H:11])[H:10]"
C       -0.80781323      -1.19633758      -0.01497949
C       -0.61239451       0.26463728      -0.01204627
O       -0.80181428       0.90945746       1.07458562
C        1.30258214       1.67179035       0.03185601
C        1.87988836       0.64311283      -0.32693908
H       -1.88531634      -1.37868232      -0.10166181
H       -0.45362368      -1.63714024       0.91428829
H       -0.31841195      -1.64813812      -0.87517380
H       -0.59563604       0.80501687      -0.95064080
H       -0.19609605       1.74169529       0.90677945
H        2.48863561      -0.17541177      -0.64606810
11
Frame=1 idx=003829 GeodesicLength=0.09248100335779183 rxn_smarts="[C:1]([C@@:2]([O:3][H:10])([C:4]#[C:5][H:11])[H:9])([H:6])([H:7])[H:8]>>[C:1]([C:2](=[O:3])[H:9])([H:6])([H:7])[H:8].[C:4](#[C:5][H:11])[H:10]"
C       -0.82462049      -1.19999821      -0.00914939
C       -0.61526399       0.26083893      -0.01071518
O       -0.81796064       0.91078951       1.07283428
C        1.29363249       1.64859247       0.03438256
C        1.90885035       0.64688574      -0.32952587
H       -1.90104826      -1.37484027      -0.11835649
H       -0.49361404      -1.63838805       0.92985359
H       -0.31942015      -1.66156135      -0.85515777
H       -0.60988971       0.79452678      -0.95451196
H       -0.17752517       1.74003000       0.92114195
H        2.55685962      -0.12687555      -0.68079572
11
Frame=2 idx=003829 GeodesicLength=0.18371125892348605 rxn_smarts="[C:1]([C@@:2]([O:3][H:10])([C:4]#[C:5][H:11])[H:9])([H:6])([H:7])[H:8]>>[C:1]([C:2](=[O:3])[H:9])([H:6])([H:7])[H:8].[C:4](#[C:5][H:11])[H:10]"
C       -0.84160171      -1.20370485      -0.00331492
C       -0.61821617       0.25685721      -0.00993425
O       -0.83424702       0.91263206       1.06995368
C        1.28571082       1.62359409       0.03735690
C        1.93918697       0.65126470      -0.33160107
H       -1.91646001      -1.37132938      -0.13440649
H       -0.53336862      -1.63891216       0.94497086
H       -0.32144077      -1.67545028      -0.83476970
H       -0.62361997       0.78352875      -0.95893068
H       -0.15786394       1.73723067       0.93574618
H        2.62192041      -0.07571082      -0.71507052
11
Frame=3 idx=003829 GeodesicLength=0.274453616475613 rxn_smarts="[C:1]([C@@:2]([O:3][H:10])([C:4]#[C:5][H:11])[H:9])([H:6])([H:7])[H:8]>>[C:1]([C:2](=[O:3])[H:9])([H:6])([H:7])[H:8].[C:4](#[C:5][H:11])[H:10]"
C       -0.85934458      -1.20759749       0.00262782
C       -0.62121351       0.25244218      -0.00951590
O       -0.85012989       0.91471066       1.06623675
C        1.27873345       1.59663674       0.04015419
C        1.97077979       0.65662362      -0.33452044
H       -1.93216258      -1.36782742      -0.15034014
H       -0.57428076      -1.63900329       0.95995092
H       -0.32472921      -1.69016044      -0.81357140
H       -0.63721187       0.77183437      -0.96368553
H       -0.13663130       1.73284471       0.95076560
H        2.68619046      -0.02050364      -0.74810186
11
Frame=4 idx=003829 GeodesicLength=0.3652972764304837 rxn_smarts="[C:1]([C@@:2]([O:3][H:10])([C:4]#[C:5][H:11])[H:9])([H:6])([H:7])[H:8]>>[C:1]([C:2](=[O:3])[H:9])([H:6])([H:7])[H:8].[C:4](#[C:5][H:11])[H:10]"
C       -0.87846187      -1.21178864       0.00864854
C       -0.62441797       0.24737833      -0.00927319
O       -0.86467749       0.91656861       1.06226592
C        1.27241911       1.56766247       0.04131860
C        2.00309337       0.66361252      -0.34100412
H       -1.94882046      -1.36408296      -0.16616045
H       -0.61712535      -1.63902500       0.97466670
H       -0.33008693      -1.70583746      -0.79166300
H       -0.65174615       0.75947150      -0.96843753
H       -0.11299166       1.72623270       0.96636121
H        2.75281539       0.03980793      -0.77672267
11
Frame=5 idx=003829 GeodesicLength=0.4560220543784707 rxn_smarts="[C:1]([C@@:2]([O:3][H:10])([C:4]#[C:5][H:11])[H:9])([H:6])([H:7])[H:8]>>[C:1]([C:2](=[O:3])[H:9])([H:6])([H:7])[H:8].[C:4](#[C:5][H:11])[H:10]"
C       -0.89879803      -1.21624108       0.01483919
C       -0.62767172       0.24165579      -0.00940808
O       -0.87832215       0.91853510       1.05752898
C        1.26709703       1.53638146       0.04177056
C        2.03666351       0.67225259      -0.34927128
H       -1.96626607      -1.36016297      -0.18169374
H       -0.66163312      -1.63865293       0.98927073
H       -0.33747582      -1.72261365      -0.76889623
H       -0.66629982       0.74620982      -0.97350914
H       -0.08721703       1.71739334       0.98227228
H        2.81992322       0.10524253      -0.80290328
11
Frame=6 idx=003829 GeodesicLength=0.5468137404679352 rxn_smarts="[C:1]([C@@:2]([O:3][H:10])([C:4]#[C:5][H:11])[H:9])([H:6])([H:7])[H:8]>>[C:1]([C:2](=[O:3])[H:9])([H:6])([H:7])[H:8].[C:4](#[C:5][H:11])[H:10]"
C       -0.92065734      -1.22101766       0.02119739
C       -0.63095157       0.23509708      -0.00996082
O       -0.89060666       0.92045504       1.05208751
C        1.26276107       1.50262905       0.04090878
C        2.07148923       0.68303028      -0.35990875
H       -1.98494507      -1.35591813      -0.19635754
H       -0.70763643      -1.63800781       1.00359835
H       -0.34782751      -1.74063238      -0.74564393
H       -0.68104917       0.73189912      -0.97891308
H       -0.05896304       1.70599380       0.99824081
H        2.88838651       0.17647161      -0.82524871
11
Frame=7 idx=003829 GeodesicLength=0.6374820979511479 rxn_smarts="[C:1]([C@@:2]([O:3][H:10])([C:4]#[C:5][H:11])[H:9])([H:6])([H:7])[H:8]>>[C:1]([C:2](=[O:3])[H:9])([H:6])([H:7])[H:8].[C:4](#[C:5][H:11])[H:10]"
C       -0.94394594      -1.22603537       0.02783050
C       -0.63424594       0.22772857      -0.01105709
O       -0.90186144       0.92264584       1.04555248
C        1.25986134       1.46571093       0.03977747
C        2.10761624       0.69610340      -0.37264192
H       -2.00468629      -1.35140899      -0.21041276
H       -0.75529905      -1.63668987       1.01794367
H       -0.36074470      -1.75995060      -0.72146399
H       -0.69533257       0.71644006      -0.98486791
H       -0.02830643       1.69181070       1.01424989
H        2.95694478       0.25364533      -0.84491033
11
Frame=8 idx=003829 GeodesicLength=0.7266768203121007 rxn_smarts="[C:1]([C@@:2]([O:3][H:10])([C:4]#[C:5][H:11])[H:9])([H:6])([H:7])[H:8]>>[C:1]([C:2](=[O:3])[H:9])([H:6])([H:7])[H:8].[C:4](#[C:5][H:11])[H:10]"
C       -0.96701024      -1.23087597       0.03447404
C       -0.63731286       0.22019112      -0.01326202
O       -0.91375237       0.92611502       1.03657616
C        1.25936598       1.42514789       0.04285728
C        2.14624166       0.71103200      -0.38052842
H       -2.02410879      -1.34732590      -0.22247479
H       -0.80064203      -1.63396296       1.03175044
H       -0.37539260      -1.77951890      -0.69768591
H       -0.70619732       0.69996331      -0.99235524
H        0.00174141       1.67711549       1.02890194
H        3.01706717       0.33211892      -0.86825349
11
Frame=9 idx=003829 GeodesicLength=0.815911547236607 rxn_smarts="[C:1]([C@@:2]([O:3][H:10])([C:4]#[C:5][H:11])[H:9])([H:6])([H:7])[H:8]>>[C:1]([C:2](=[O:3])[H:9])([H:6])([H:7])[H:8].[C:4](#[C:5][H:11])[H:10]"
C       -0.99184886      -1.23598737       0.04156045
C       -0.64008229       0.21152584      -0.01606729
O       -0.92437395       0.93001618       1.02602114
C        1.26120853       1.37960305       0.04694379
C        2.18711727       0.72817516      -0.38769401
H       -2.04498508      -1.34266851      -0.23404145
H       -0.84824667      -1.63034793       1.04592830
H       -0.39299444      -1.80075353      -0.67255252
H       -0.71517045       0.68171215      -1.00072454
H        0.03373218       1.66008797       1.04255918
H        3.07564375       0.41863699      -0.89193304
11
Frame=10 idx=003829 GeodesicLength=0.9067738875235363 rxn_smarts="[C:1]([C@@:2]([O:3][H:10])([C:4]#[C:5][H:11])[H:9])([H:6])([H:7])[H:8]>>[C:1]([C:2](=[O:3])[H:9])([H:6])([H:7])[H:8].[C:4](#[C:5][H:11])[H:10]"
C       -1.02103831      -1.24187574       0.04955216
C       -0.64343168       0.20066138      -0.01900943
O       -0.93002226       0.93270922       1.01595593
C        1.26435053       1.32799406       0.04413900
C        2.22731576       0.75009209      -0.40768303
H       -2.06997474      -1.33657330      -0.24470648
H       -0.90160786      -1.62664423       1.06086340
H       -0.41675457      -1.82479551      -0.64546340
H       -0.72742337       0.66156059      -1.00873655
H        0.07293890       1.63663441       1.05558761
H        3.14564761       0.52023704      -0.90049922
11
Frame=11 idx=003829 GeodesicLength=0.9975199707342686 rxn_smarts="[C:1]([C@@:2]([O:3][H:10])([C:4]#[C:5][H:11])[H:9])([H:6])([H:7])[H:8]>>[C:1]([C:2](=[O:3])[H:9])([H:6])([H:7])[H:8].[C:4](#[C:5][H:11])[H:10]"
C       -1.05268856      -1.24806117       0.05799503
C       -0.64669919       0.18816613      -0.02271662
O       -0.93202902       0.93501854       1.00503211
C        1.27033505       1.26905461       0.03943333
C        2.26871207       0.77616582      -0.43035051
H       -2.09766776      -1.32943622      -0.25281974
H       -0.95591330      -1.62224722       1.07576155
H       -0.44601075      -1.85046087      -0.61841208
H       -0.73928710       0.63965140      -1.01741670
H        0.11601477       1.61012544       1.06524079
H        3.21523379       0.63202354      -0.90174716
11
Frame=12 idx=003829 GeodesicLength=1.0878579435068934 rxn_smarts="[C:1]([C@@:2]([O:3][H:10])([C:4]#[C:5][H:11])[H:9])([H:6])([H:7])[H:8]>>[C:1]([C:2](=[O:3])[H:9])([H:6])([H:7])[H:8].[C:4](#[C:5][H:11])[H:10]"
C       -1.08727993      -1.25430542       0.06720454
C       -0.64686196       0.17297190      -0.02740075
O       -0.93292961       0.93877077       0.98926049
C        1.28423264       1.19622120       0.04500963
C        2.31790271       0.80261936      -0.43708507
H       -2.12708594      -1.31956553      -0.26314520
H       -1.01704356      -1.61501435       1.09207639
H       -0.47939339      -1.87994162      -0.58702284
H       -0.73997162       0.61283180      -1.02865651
H        0.15984150       1.58294044       1.07104630
H        3.26858916       0.76247145      -0.92128699
11
Frame=13 idx=003829 GeodesicLength=1.177010911086907 rxn_smarts="[C:1]([C@@:2]([O:3][H:10])([C:4]#[C:5][H:11])[H:9])([H:6])([H:7])[H:8]>>[C:1]([C:2](=[O:3])[H:9])([H:6])([H:7])[H:8].[C:4](#[C:5][H:11])[H:10]"
C       -1.12464166      -1.26075282       0.07707993
C       -0.64678627       0.15544002      -0.03272087
O       -0.92691172       0.94106275       0.97353725
C        1.30266897       1.11055536       0.04743019
C        2.36232369       0.84085299      -0.45826963
H       -2.16004384      -1.30797003      -0.26880670
H       -1.07709734      -1.60729153       1.10820011
H       -0.52048739      -1.91070941      -0.55696205
H       -0.74147433       0.58402456      -1.04007109
H        0.21016062       1.55342118       1.06966805
H        3.32228927       0.90136694      -0.91908518
11
Frame=14 idx=003829 GeodesicLength=1.2632401386439567 rxn_smarts="[C:1]([C@@:2]([O:3][H:10])([C:4]#[C:5][H:11])[H:9])([H:6])([H:7])[H:8]>>[C:1]([C:2](=[O:3])[H:9])([H:6])([H:7])[H:8].[C:4](#[C:5][H:11])[H:10]"
C       -1.16384943      -1.26660581       0.08704618
C       -0.64442490       0.13559767      -0.03912665
O       -0.91429674       0.94291171       0.95584891
C        1.32867512       1.00801391       0.05248918
C        2.40525460       0.88476975      -0.47076435
H       -2.19479989      -1.29349805      -0.27306661
H       -1.13802305      -1.59726155       1.12423220
H       -0.56704795      -1.94292344      -0.52647217
H       -0.73748500       0.55235063      -1.05293581
H        0.26631752       1.52406428       1.05871959
H        3.35967972       1.05258090      -0.91597047
11
Frame=15 idx=003829 GeodesicLength=1.3463462087082219 rxn_smarts="[C:1]([C@@:2]([O:3][H:10])([C:4]#[C:5][H:11])[H:9])([H:6])([H:7])[H:8]>>[C:1]([C:2](=[O:3])[H:9])([H:6])([H:7])[H:8].[C:4](#[C:5][H:11])[H:10]"
C       -1.20042571      -1.27101404       0.09686287
C       -0.64174916       0.11629512      -0.04816369
O       -0.89343840       0.94397939       0.93793878
C        1.35287440       0.90842283       0.03704488
C        2.44399164       0.92780166      -0.46782436
H       -2.22805226      -1.27867283      -0.27260582
H       -1.19109052      -1.58512963       1.13952909
H       -0.61427819      -1.97274878      -0.49851952
H       -0.74092956       0.52226959      -1.06708008
H        0.33259216       1.48906287       1.04094965
H        3.38050559       1.19973383      -0.89813178
11
Frame=16 idx=003829 GeodesicLength=1.4244932831901473 rxn_smarts="[C:1]([C@@:2]([O:3][H:10])([C:4]#[C:5][H:11])[H:9])([H:6])([H:7])[H:8]>>[C:1]([C:2](=[O:3])[H:9])([H:6])([H:7])[H:8].[C:4](#[C:5][H:11])[H:10]"
C       -1.22699425      -1.27351767       0.10508469
C       -0.64246491       0.10308746      -0.05835122
O       -0.87183792       0.94483975       0.92434887
C        1.36796374       0.83004977       0.00284314
C        2.46855532       0.96382512      -0.46173582
H       -2.25345845      -1.26979952      -0.26679135
H       -1.22386921      -1.57387271       1.15190163
H       -0.65041774      -1.99352142      -0.47812824
H       -0.75978137       0.50178653      -1.07953846
H        0.39793786       1.45686508       1.01984992
H        3.39436694       1.31025761      -0.85948316
