15
Frame=0 idx=010451 GeodesicLength=0.0 rxn_smarts="[O:1]([C:2]([C:3]1([C:4]([O:5][H:13])([H:11])[H:12])[C:6]([H:14])([H:15])[O:7]1)([H:9])[H:10])[H:8]>>[C@:3]1([C:4]([O:5][H:13])([H:11])[H:12])([H:8])[C:6]([H:14])([H:15])[O:7]1.[O:1]=[C:2]([H:9])[H:10]"
O       -2.45525473      -0.86314699      -0.47066635
C       -1.75348212      -0.40641421       0.53905216
C        0.01114278       0.09179760      -0.15278164
C        1.11113111      -0.79585731       0.37134834
O        2.38749662      -0.34760281      -0.00353414
C        0.17262268       1.51451518      -0.40859381
O        0.19631853       0.58491797      -1.48540543
H       -1.15690301      -0.46779528      -0.60581082
H       -2.00380043       0.57372302       0.97177028
H       -1.36504564      -1.11358516       1.29042963
H        1.08374932      -0.80082048       1.46277447
H        0.92661894      -1.82325820       0.02965616
H        2.40624464      -0.28530853      -0.96278777
H        1.13245887       1.96914119      -0.18591183
H       -0.69329752       2.16969395      -0.38953923
15
Frame=1 idx=010451 GeodesicLength=0.11611457204118601 rxn_smarts="[O:1]([C:2]([C:3]1([C:4]([O:5][H:13])([H:11])[H:12])[C:6]([H:14])([H:15])[O:7]1)([H:9])[H:10])[H:8]>>[C@:3]1([C:4]([O:5][H:13])([H:11])[H:12])([H:8])[C:6]([H:14])([H:15])[O:7]1.[O:1]=[C:2]([H:9])[H:10]"
O       -2.48124263      -0.82310582      -0.44457987
C       -1.75534799      -0.39922298       0.56104395
C        0.01432036       0.08452141      -0.17067607
C        1.11059891      -0.80189978       0.36285688
O        2.38960715      -0.33066056       0.02682442
C        0.17073046       1.50730011      -0.42899454
O        0.21923450       0.57309992      -1.50113090
H       -1.16635749      -0.46833062      -0.62897343
H       -1.99886950       0.56794325       1.02568042
H       -1.36615358      -1.12318612       1.29551407
H        1.06393304      -0.83523172       1.45293613
H        0.94642094      -1.82601226       0.00145422
H        2.42871624      -0.25440122      -0.93099008
H        1.12155525       1.96916274      -0.18420352
H       -0.69714566       2.16002365      -0.43676170
15
Frame=2 idx=010451 GeodesicLength=0.23209671547574817 rxn_smarts="[O:1]([C:2]([C:3]1([C:4]([O:5][H:13])([H:11])[H:12])[C:6]([H:14])([H:15])[O:7]1)([H:9])[H:10])[H:8]>>[C@:3]1([C:4]([O:5][H:13])([H:11])[H:12])([H:8])[C:6]([H:14])([H:15])[O:7]1.[O:1]=[C:2]([H:9])[H:10]"
O       -2.50456171      -0.78243872      -0.41787242
C       -1.75676450      -0.39139244       0.58368924
C        0.01728774       0.07687994      -0.18909071
C        1.10990212      -0.80807479       0.35407583
O        2.39014857      -0.31392837       0.05756467
C        0.16866144       1.49981202      -0.44950895
O        0.24255274       0.56151795      -1.51675933
H       -1.17602177      -0.46899566      -0.65348593
H       -1.99350740       0.56189262       1.07950390
H       -1.36747871      -1.13195610       1.30103221
H        1.04430979      -0.87001840       1.44173579
H        0.96691113      -1.82839370      -0.02659295
H        2.44959170      -0.22348101      -0.89815330
H        1.10966567       1.96896921      -0.18219355
H       -0.70069681       2.14960744      -0.48394448
15
Frame=3 idx=010451 GeodesicLength=0.3479604031861774 rxn_smarts="[O:1]([C:2]([C:3]1([C:4]([O:5][H:13])([H:11])[H:12])[C:6]([H:14])([H:15])[O:7]1)([H:9])[H:10])[H:8]>>[C@:3]1([C:4]([O:5][H:13])([H:11])[H:12])([H:8])[C:6]([H:14])([H:15])[O:7]1.[O:1]=[C:2]([H:9])[H:10]"
O       -2.52501959      -0.74135078      -0.39063133
C       -1.75766542      -0.38288926       0.60707533
C        0.02002931       0.06886250      -0.20805076
C        1.10901823      -0.81440294       0.34497334
O        2.38905582      -0.29746141       0.08865038
C        0.16642918       1.49204938      -0.47010092
O        0.26629332       0.55022608      -1.53226162
H       -1.18590790      -0.46974930      -0.67945814
H       -1.98792213       0.55563977       1.13320367
H       -1.36892233      -1.13976588       1.30715894
H        1.02489525      -0.90519212       1.42913755
H        0.98806543      -1.83039621      -0.05449545
H        2.46879300      -0.19258307      -0.86429933
H        1.09676740       1.96851816      -0.17984998
H       -0.70390955       2.13849510      -0.53105165
15
Frame=4 idx=010451 GeodesicLength=0.4637165106709498 rxn_smarts="[O:1]([C:2]([C:3]1([C:4]([O:5][H:13])([H:11])[H:12])[C:6]([H:14])([H:15])[O:7]1)([H:9])[H:10])[H:8]>>[C@:3]1([C:4]([O:5][H:13])([H:11])[H:12])([H:8])[C:6]([H:14])([H:15])[O:7]1.[O:1]=[C:2]([H:9])[H:10]"
O       -2.54239049      -0.70009174      -0.36293225
C       -1.75797653      -0.37367362       0.63129434
C        0.02252953       0.06045795      -0.22758589
C        1.10792556      -0.82091419       0.33550899
O        2.38626549      -0.28132598       0.12004504
C        0.16404937       1.48401810      -0.49073123
O        0.29047259       0.53928648      -1.54760963
H       -1.19604044      -0.47053685      -0.70702047
H       -1.98237203       0.54926199       1.18673245
H       -1.37036556      -1.14644777       1.31409825
H        1.00570366      -0.94077977       1.41509687
H        1.00985489      -1.83202355      -0.08227349
H        2.48624581      -0.16174894      -0.82944867
H        1.08284065       1.96777246      -0.17713367
H       -0.70674250       2.12674543      -0.57804066
15
Frame=5 idx=010451 GeodesicLength=0.5793866159633945 rxn_smarts="[O:1]([C:2]([C:3]1([C:4]([O:5][H:13])([H:11])[H:12])[C:6]([H:14])([H:15])[O:7]1)([H:9])[H:10])[H:8]>>[C@:3]1([C:4]([O:5][H:13])([H:11])[H:12])([H:8])[C:6]([H:14])([H:15])[O:7]1.[O:1]=[C:2]([H:9])[H:10]"
O       -2.55648936      -0.65898485      -0.33487397
C       -1.75761158      -0.36369746       0.65644176
C        0.02477462       0.05165625      -0.24772867
C        1.10659725      -0.82763964       0.32563085
O        2.38170532      -0.26559805       0.15170816
C        0.16153652       1.47571851      -0.51135330
O        0.31511638       0.52876535      -1.56276712
H       -1.20641632      -0.47128775      -0.73631477
H       -1.97713968       0.54289290       1.24002868
H       -1.37164049      -1.15181112       1.32210630
H        0.98673610      -0.97681331       1.39955492
H        1.03224825      -1.83326605      -0.10997061
H        2.50187272      -0.13102251      -0.79362081
H        1.06785808       1.96667413      -0.17398778
H       -0.70914781       2.11441361      -0.62485364
15
Frame=6 idx=010451 GeodesicLength=0.694982389753551 rxn_smarts="[O:1]([C:2]([C:3]1([C:4]([O:5][H:13])([H:11])[H:12])[C:6]([H:14])([H:15])[O:7]1)([H:9])[H:10])[H:8]>>[C@:3]1([C:4]([O:5][H:13])([H:11])[H:12])([H:8])[C:6]([H:14])([H:15])[O:7]1.[O:1]=[C:2]([H:9])[H:10]"
O       -2.56706478      -0.61842148      -0.30653461
C       -1.75647800      -0.35289994       0.68261751
C        0.02675067       0.04244830      -0.26851629
C        1.10500983      -0.83462645       0.31527500
O        2.37530918      -0.25037426       0.18359870
C        0.15890946       1.46716444      -0.53191505
O        0.34023962       0.51874133      -1.57769821
H       -1.21705749      -0.47191548      -0.76750927
H       -1.97259573       0.53667218       1.29301146
H       -1.37254969      -1.15560158       1.33148260
H        0.96799796      -1.01334966       1.38243704
H        1.05520619      -1.83413352      -0.13764492
H        2.51560004      -0.10045737      -0.75683112
H        1.05180046       1.96517724      -0.17034749
H       -0.71107773       2.10157625      -0.67142533
15
Frame=7 idx=010451 GeodesicLength=0.8105232249403126 rxn_smarts="[O:1]([C:2]([C:3]1([C:4]([O:5][H:13])([H:11])[H:12])[C:6]([H:14])([H:15])[O:7]1)([H:9])[H:10])[H:8]>>[C@:3]1([C:4]([O:5][H:13])([H:11])[H:12])([H:8])[C:6]([H:14])([H:15])[O:7]1.[O:1]=[C:2]([H:9])[H:10]"
O       -2.57389591      -0.57888030      -0.27801271
C       -1.75446956      -0.34120540       0.70992577
C        0.02844556       0.03282691      -0.28999116
C        1.10313522      -0.84192595       0.30436250
O        2.36700240      -0.23576611       0.21567460
C        0.15618703       1.45836602      -0.55235825
O        0.36586357       0.50929771      -1.59235974
H       -1.22796511      -0.47231040      -0.80078771
H       -1.96915399       0.53079416       1.34558811
H       -1.37283171      -1.15753109       1.34258945
H        0.94947847      -1.05045657       1.36364635
H        1.07868743      -1.83462558      -0.16538123
H        2.52735192      -0.07011247      -0.71908759
H        1.03464181       1.96321640      -0.16613086
H       -0.71247715       2.08831269      -0.71767752
15
Frame=8 idx=010451 GeodesicLength=0.9260368305870643 rxn_smarts="[O:1]([C:2]([C:3]1([C:4]([O:5][H:13])([H:11])[H:12])[C:6]([H:14])([H:15])[O:7]1)([H:9])[H:10])[H:8]>>[C@:3]1([C:4]([O:5][H:13])([H:11])[H:12])([H:8])[C:6]([H:14])([H:15])[O:7]1.[O:1]=[C:2]([H:9])[H:10]"
O       -2.57671784      -0.54092076      -0.24938224
C       -1.75147253      -0.32852108       0.73847349
C        0.02984672       0.02278786      -0.31220290
C        1.10094750      -0.84960487       0.29280343
O        2.35671539      -0.22191039       0.24789700
C        0.15339119       1.44934811      -0.57262235
O        0.39200036       0.50052931      -1.60670964
H       -1.23915992      -0.47233815      -0.83636392
H       -1.96731670       0.52545771       1.39765028
H       -1.37216897      -1.15725088       1.35583221
H        0.93116368      -1.08822066       1.34306752
H        1.10264223      -1.83476000      -0.19327670
H        2.53705625      -0.04006159      -0.68038758
H        1.01636353       1.96073490      -0.16125000
H       -0.71329087       2.07473049      -0.76352860
15
Frame=9 idx=010451 GeodesicLength=1.0415433716790932 rxn_smarts="[O:1]([C:2]([C:3]1([C:4]([O:5][H:13])([H:11])[H:12])[C:6]([H:14])([H:15])[O:7]1)([H:9])[H:10])[H:8]>>[C@:3]1([C:4]([O:5][H:13])([H:11])[H:12])([H:8])[C:6]([H:14])([H:15])[O:7]1.[O:1]=[C:2]([H:9])[H:10]"
O       -2.57542228      -0.50523346      -0.22081598
C       -1.74733716      -0.31473020       0.76838066
C        0.03094833       0.01233439      -0.33520757
C        1.09839660      -0.85770911       0.28047868
O        2.34432981      -0.20895461       0.28022002
C        0.15054149       1.44009876      -0.59263410
O        0.41869626       0.49252507      -1.62068225
H       -1.25056763      -0.47181618      -0.87443893
H       -1.96756422       0.52098331       1.44907105
H       -1.37011439      -1.15440765       1.37173782
H        0.91297409      -1.12672186       1.32053651
H        1.12702302      -1.83448279      -0.22147974
H        2.54461688      -0.01038113      -0.64071612
H        0.99690983       1.95759698      -0.15558472
H       -0.71343063       2.06089849      -0.80886532
15
Frame=10 idx=010451 GeodesicLength=1.1571049890864211 rxn_smarts="[O:1]([C:2]([C:3]1([C:4]([O:5][H:13])([H:11])[H:12])[C:6]([H:14])([H:15])[O:7]1)([H:9])[H:10])[H:8]>>[C@:3]1([C:4]([O:5][H:13])([H:11])[H:12])([H:8])[C:6]([H:14])([H:15])[O:7]1.[O:1]=[C:2]([H:9])[H:10]"
O       -2.56963039      -0.47258867      -0.19230895
C       -1.74193925      -0.29970602       0.79974333
C        0.03173795       0.00147655      -0.35907105
C        1.09545908      -0.86633512       0.26728574
O        2.32978803      -0.19710455       0.31259542
C        0.14766861       1.43068544      -0.61231893
O        0.44593684       0.48541495      -1.63423885
H       -1.26224885      -0.47053588      -0.91529899
H       -1.97061725       0.51752192       1.49967151
H       -1.36619406      -1.14848012       1.39079612
H        0.89488241      -1.16604759       1.29591607
H        1.15174857      -1.83386241      -0.25008299
H        2.54995578       0.01878413      -0.60007019
H        0.97629126       1.95377119      -0.14904362
H       -0.71283872       2.04700617      -0.85357462
15
Frame=11 idx=010451 GeodesicLength=1.2727837468856742 rxn_smarts="[O:1]([C:2]([C:3]1([C:4]([O:5][H:13])([H:11])[H:12])[C:6]([H:14])([H:15])[O:7]1)([H:9])[H:10])[H:8]>>[C@:3]1([C:4]([O:5][H:13])([H:11])[H:12])([H:8])[C:6]([H:14])([H:15])[O:7]1.[O:1]=[C:2]([H:9])[H:10]"
O       -2.55911548      -0.44387257      -0.16392960
C       -1.73512223      -0.28329228       0.83266437
C        0.03220961      -0.00976591      -0.38386975
C        1.09208136      -0.87555407       0.25309695
O        2.31297720      -0.18657660       0.34497546
C        0.14479977       1.42113532      -0.63159891
O        0.47374095       0.47931334      -1.64731888
H       -1.27417750      -0.46821585      -0.95919840
H       -1.97715873       0.51528525       1.54924923
H       -1.35976899      -1.13892432       1.41359289
H        0.87677185      -1.20626501       1.26902113
H        1.17673701      -1.83289416      -0.27922003
H        2.55296966       0.04728243      -0.55842327
H        0.95447909       1.94914193      -0.14151355
H       -0.71142356       2.03320250      -0.89752764
15
Frame=12 idx=010451 GeodesicLength=1.3886624449108096 rxn_smarts="[O:1]([C:2]([C:3]1([C:4]([O:5][H:13])([H:11])[H:12])[C:6]([H:14])([H:15])[O:7]1)([H:9])[H:10])[H:8]>>[C@:3]1([C:4]([O:5][H:13])([H:11])[H:12])([H:8])[C:6]([H:14])([H:15])[O:7]1.[O:1]=[C:2]([H:9])[H:10]"
O       -2.54357111      -0.42004504      -0.13567281
C       -1.72673272      -0.26530587       0.86723206
C        0.03235822      -0.02136273      -0.40969076
C        1.08820414      -0.88544444       0.23778541
O        2.29378016      -0.17761770       0.37732110
C        0.14196593       1.41149019      -0.65040648
O        0.50211057       0.47433171      -1.65986498
H       -1.28636967      -0.46450400      -1.00637698
H       -1.98795221       0.51435749       1.59755319
H       -1.35007839      -1.12508056       1.44070805
H        0.85848317      -1.24742432       1.23965438
H        1.20188562      -1.83159501      -0.30900529
H        2.55355054       0.07492801      -0.51572719
H        0.93145666       1.94360058      -0.13290248
H       -0.70909090       2.01967168      -0.94060719
15
Frame=13 idx=010451 GeodesicLength=1.5048584649115602 rxn_smarts="[O:1]([C:2]([C:3]1([C:4]([O:5][H:13])([H:11])[H:12])[C:6]([H:14])([H:15])[O:7]1)([H:9])[H:10])[H:8]>>[C@:3]1([C:4]([O:5][H:13])([H:11])[H:12])([H:8])[C:6]([H:14])([H:15])[O:7]1.[O:1]=[C:2]([H:9])[H:10]"
O       -2.52265750      -0.40205821      -0.10746966
C       -1.71662932      -0.24554541       0.90350556
C        0.03218288      -0.03327364      -0.43663424
C        1.08375668      -0.89607426       0.22123738
O        2.27205940      -0.17048421       0.40961245
C        0.13919829       1.40178992      -0.66870260
O        0.53103889       0.47055331      -1.67182588
H       -1.29887919      -0.45896502      -1.05700645
H       -2.00373412       0.51462783       1.64430747
H       -1.33624418      -1.10620644       1.47265275
H        0.83978432      -1.28952461       1.20762005
H        1.22708228      -1.82998584      -0.33951080
H        2.55157936       0.10150808      -0.47190086
H        0.90720504       1.93703296      -0.12315983
H       -0.70574283       2.00660553      -0.98272533
15
Frame=14 idx=010451 GeodesicLength=1.6215127632591035 rxn_smarts="[O:1]([C:2]([C:3]1([C:4]([O:5][H:13])([H:11])[H:12])[C:6]([H:14])([H:15])[O:7]1)([H:9])[H:10])[H:8]>>[C@:3]1([C:4]([O:5][H:13])([H:11])[H:12])([H:8])[C:6]([H:14])([H:15])[O:7]1.[O:1]=[C:2]([H:9])[H:10]"
O       -2.49603582      -0.39071572      -0.07922986
C       -1.70469757      -0.22382166       0.94149119
C        0.03169247      -0.04544389      -0.46480963
C        1.07865012      -0.90747806       0.20338785
O        2.24764784      -0.16541646       0.44184678
C        0.13653341       1.39207022      -0.68650198
O        0.56050808       0.46801217      -1.68316639
H       -1.31180908      -0.45107767      -1.11110542
H       -2.02509205       0.51566845       1.68926335
H       -1.31728261      -1.08156282       1.50975703
H        0.82035027      -1.33244690       1.17277899
H        1.25219037      -1.82809050      -0.37069643
H        2.54690881       0.12678370      -0.42684416
H        0.88170837       1.92932782      -0.11231853
H       -0.70127260       1.99419132      -1.02385280
15
Frame=15 idx=010451 GeodesicLength=1.7388122698584867 rxn_smarts="[O:1]([C:2]([C:3]1([C:4]([O:5][H:13])([H:11])[H:12])[C:6]([H:14])([H:15])[O:7]1)([H:9])[H:10])[H:8]>>[C@:3]1([C:4]([O:5][H:13])([H:11])[H:12])([H:8])[C:6]([H:14])([H:15])[O:7]1.[O:1]=[C:2]([H:9])[H:10]"
O       -2.46338186      -0.38637930      -0.05082541
C       -1.69090608      -0.20000716       0.98109609
C        0.03091919      -0.05780545      -0.49431990
C        1.07279413      -0.91962369       0.18427246
O        2.22037704      -0.16258217       0.47402462
C        0.13401948       1.38235908      -0.70390565
O        0.59048667       0.46665132      -1.69387789
H       -1.32534208      -0.44028759      -1.16843511
H       -2.05228802       0.51652780       1.73229382
H       -1.29228054      -1.05053934       1.55193819
H        0.79977703      -1.37585572       1.13513774
H        1.27705397      -1.82595076      -0.40230749
H        2.53938122       0.15049828      -0.38047574
H        0.85496844       1.92041230      -0.10056323
H       -0.69557859       1.98258238      -1.06405249
15
Frame=16 idx=010451 GeodesicLength=1.856988654456719 rxn_smarts="[O:1]([C:2]([C:3]1([C:4]([O:5][H:13])([H:11])[H:12])[C:6]([H:14])([H:15])[O:7]1)([H:9])[H:10])[H:8]>>[C@:3]1([C:4]([O:5][H:13])([H:11])[H:12])([H:8])[C:6]([H:14])([H:15])[O:7]1.[O:1]=[C:2]([H:9])[H:10]"
O       -2.42452621      -0.38861634      -0.02211592
C       -1.67535871      -0.17409897       1.02207056
C        0.02993530      -0.07027378      -0.52522511
C        1.06612027      -0.93236906       0.16409426
O        2.19013276      -0.16200852       0.50611374
C        0.13172368       1.37267364      -0.72111513
O        0.62092145       0.46628911      -1.70397706
H       -1.33972692      -0.42611969      -1.22839958
H       -2.08504001       0.51556487       1.77348821
H       -1.26061183      -1.01284607       1.59844301
H        0.77763685      -1.41909346       1.09497726
H        1.30148421      -1.82363712      -0.43376426
H        2.52885474       0.17239221      -0.33281207
H        0.82703155       1.91028375      -0.08828199
H       -0.68857714       1.97185942      -1.10349591
