14
Frame=0 idx=009248 GeodesicLength=0.0 rxn_smarts="[C:1]([C@@:2]([C:3](=[O:4])[H:12])([C:5](=[O:6])[N:7]([H:13])[H:14])[H:11])([H:8])([H:9])[H:10]>>[C:1](/[C:2]([C:3](=[O:4])[H:12])=[C:5](/[O:6][H:11])[N:7]([H:13])[H:14])([H:8])([H:9])[H:10]"
C       -0.99247614      -1.24349930       0.16395607
C       -0.45493427       0.13184082      -0.12713195
C       -1.04693134       1.25095611       0.59989055
O       -2.08489576       1.18872334       1.22202728
C        0.92885398       0.33982533      -0.50956757
O        0.98714229       1.21622065      -1.43667634
N        2.00828947      -0.27911207      -0.05871421
H       -0.63885942      -1.63515654       1.12503574
H       -2.07768937      -1.18717638       0.23582464
H       -0.73171208      -1.95972236      -0.61673703
H       -0.24440945       0.99272578      -1.34817092
H       -0.49657506       2.21231525       0.52332543
H        1.94638774      -0.89660226       0.72953447
H        2.89780943      -0.13133842      -0.50259622
14
Frame=1 idx=009248 GeodesicLength=0.05634773701336573 rxn_smarts="[C:1]([C@@:2]([C:3](=[O:4])[H:12])([C:5](=[O:6])[N:7]([H:13])[H:14])[H:11])([H:8])([H:9])[H:10]>>[C:1](/[C:2]([C:3](=[O:4])[H:12])=[C:5](/[O:6][H:11])[N:7]([H:13])[H:14])([H:8])([H:9])[H:10]"
C       -0.98432345      -1.23758276       0.17695874
C       -0.45090938       0.13814154      -0.12055874
C       -1.06082084       1.25669996       0.59532506
O       -2.09927168       1.18839031       1.21540507
C        0.93579093       0.35327091      -0.48467174
O        1.00354489       1.23454935      -1.40719559
N        2.01192072      -0.29859758      -0.07079644
H       -0.63658194      -1.61964349       1.14376155
H       -2.07045888      -1.18742623       0.23976799
H       -0.71653959      -1.95922586      -0.59637992
H       -0.24274638       0.99630733      -1.34831860
H       -0.54162103       2.23242786       0.48736230
H        1.94580878      -0.98156951       0.66071655
H        2.90620784      -0.11574183      -0.49137625
14
Frame=2 idx=009248 GeodesicLength=0.11141117528995839 rxn_smarts="[C:1]([C@@:2]([C:3](=[O:4])[H:12])([C:5](=[O:6])[N:7]([H:13])[H:14])[H:11])([H:8])([H:9])[H:10]>>[C:1](/[C:2]([C:3](=[O:4])[H:12])=[C:5](/[O:6][H:11])[N:7]([H:13])[H:14])([H:8])([H:9])[H:10]"
C       -0.97558722      -1.23174055       0.18963112
C       -0.44704083       0.14453399      -0.11480615
C       -1.07538464       1.26214341       0.58953448
O       -2.11340873       1.18719482       1.20890786
C        0.94296719       0.36682606      -0.45850352
O        1.02100825       1.25398401      -1.37528999
N        2.01443914      -0.31705678      -0.08209344
H       -0.63246918      -1.60418190       1.16154960
H       -2.06247336      -1.18839312       0.24451536
H       -0.70130862      -1.95848663      -0.57666515
H       -0.23951950       1.00050756      -1.34852960
H       -0.58598641       2.24969844       0.45246983
H        1.94247524      -1.05561515       0.59225129
H        2.91228866      -0.10941414      -0.48297168
14
Frame=3 idx=009248 GeodesicLength=0.16616344451012174 rxn_smarts="[C:1]([C@@:2]([C:3](=[O:4])[H:12])([C:5](=[O:6])[N:7]([H:13])[H:14])[H:11])([H:8])([H:9])[H:10]>>[C:1](/[C:2]([C:3](=[O:4])[H:12])=[C:5](/[O:6][H:11])[N:7]([H:13])[H:14])([H:8])([H:9])[H:10]"
C       -0.96702419      -1.22590629       0.20301794
C       -0.44307315       0.15065845      -0.10886431
C       -1.08945616       1.26750718       0.58337465
O       -2.12730697       1.18667587       1.20164533
C        0.95033526       0.37945899      -0.43124277
O        1.03895759       1.27305412      -1.34164222
N        2.01619087      -0.33539385      -0.09382087
H       -0.62711847      -1.58905841       1.17929843
H       -2.05448663      -1.18915796       0.25140747
H       -0.68780093      -1.95753237      -0.55688125
H       -0.23518628       1.00397493      -1.34868054
H       -0.63013793       2.26494740       0.41587676
H        1.93743315      -1.12734944       0.51564575
H        2.91867384      -0.10187862      -0.46913437
14
Frame=4 idx=009248 GeodesicLength=0.2204177945225935 rxn_smarts="[C:1]([C@@:2]([C:3](=[O:4])[H:12])([C:5](=[O:6])[N:7]([H:13])[H:14])[H:11])([H:8])([H:9])[H:10]>>[C:1](/[C:2]([C:3](=[O:4])[H:12])=[C:5](/[O:6][H:11])[N:7]([H:13])[H:14])([H:8])([H:9])[H:10]"
C       -0.95828672      -1.22018580       0.21661990
C       -0.43924682       0.15659053      -0.10358706
C       -1.10374022       1.27258991       0.57602558
O       -2.14091018       1.18606162       1.19401352
C        0.95779569       0.39145053      -0.40310030
O        1.05761147       1.29248786      -1.30591116
N        2.01702904      -0.35289655      -0.10503715
H       -0.62019806      -1.57400412       1.19668839
H       -2.04619496      -1.19029031       0.25992466
H       -0.67505802      -1.95664150      -0.53717958
H       -0.22946804       1.00751400      -1.34904481
H       -0.67315200       2.27768861       0.37938388
H        1.92962668      -1.19235587       0.43536929
H        2.92419213      -0.09800892      -0.45416516
14
Frame=5 idx=009248 GeodesicLength=0.2745650584599888 rxn_smarts="[C:1]([C@@:2]([C:3](=[O:4])[H:12])([C:5](=[O:6])[N:7]([H:13])[H:14])[H:11])([H:8])([H:9])[H:10]>>[C:1](/[C:2]([C:3](=[O:4])[H:12])=[C:5](/[O:6][H:11])[N:7]([H:13])[H:14])([H:8])([H:9])[H:10]"
C       -0.94961749      -1.21454016       0.23104585
C       -0.43548034       0.16218975      -0.09844266
C       -1.11761517       1.27751002       0.56807703
O       -2.15448628       1.18612543       1.18522346
C        0.96527790       0.40233503      -0.37397275
O        1.07675515       1.31166514      -1.26810625
N        2.01699244      -0.37007999      -0.11623446
H       -0.61163796      -1.55916579       1.21416840
H       -2.03784762      -1.19137311       0.27091086
H       -0.66393290      -1.95576734      -0.51721546
H       -0.22247900       1.01059962      -1.34941226
H       -0.71556483       2.28830125       0.34137513
H        1.92003879      -1.25355858       0.34633824
H        2.92959731      -0.09424126      -0.43375512
14
Frame=6 idx=009248 GeodesicLength=0.32832403649163366 rxn_smarts="[C:1]([C@@:2]([C:3](=[O:4])[H:12])([C:5](=[O:6])[N:7]([H:13])[H:14])[H:11])([H:8])([H:9])[H:10]>>[C:1](/[C:2]([C:3](=[O:4])[H:12])=[C:5](/[O:6][H:11])[N:7]([H:13])[H:14])([H:8])([H:9])[H:10]"
C       -0.94057741      -1.20906485       0.24536734
C       -0.43177209       0.16758065      -0.09405495
C       -1.13183018       1.28184321       0.55901800
O       -2.16826831       1.18566858       1.17545905
C        0.97285530       0.41270965      -0.34361640
O        1.09662561       1.33162359      -1.22733987
N        2.01595742      -0.38658396      -0.12692509
H       -0.60189671      -1.54433984       1.23121820
H       -2.02902522      -1.19303750       0.28257123
H       -0.65269703      -1.95510238      -0.49734148
H       -0.21377782       1.01429892      -1.34963518
H       -0.75657388       2.29642034       0.30414291
H        1.90763225      -1.30492750       0.25831736
H        2.93334807      -0.09708890      -0.41718112
14
Frame=7 idx=009248 GeodesicLength=0.3821942738058266 rxn_smarts="[C:1]([C@@:2]([C:3](=[O:4])[H:12])([C:5](=[O:6])[N:7]([H:13])[H:14])[H:11])([H:8])([H:9])[H:10]>>[C:1](/[C:2]([C:3](=[O:4])[H:12])=[C:5](/[O:6][H:11])[N:7]([H:13])[H:14])([H:8])([H:9])[H:10]"
C       -0.93149662      -1.20368102       0.26055030
C       -0.42811030       0.17259812      -0.08983016
C       -1.14573086       1.28591951       0.54926887
O       -2.18233675       1.18573598       1.16406665
C        0.98040274       0.42193540      -0.31185559
O        1.11705397       1.35139884      -1.18370199
N        2.01397952      -0.40270726      -0.13691203
H       -0.59069506      -1.52958821       1.24854737
H       -2.02005821      -1.19471378       0.29643467
H       -0.64260800      -1.95461432      -0.47691389
H       -0.20341991       1.01777392      -1.34962545
H       -0.79701964       2.30244479       0.26524271
H        1.89356099      -1.35094478       0.16219834
H        2.93647814      -0.10155718      -0.39746981
14
Frame=8 idx=009248 GeodesicLength=0.4360370248838243 rxn_smarts="[C:1]([C@@:2]([C:3](=[O:4])[H:12])([C:5](=[O:6])[N:7]([H:13])[H:14])[H:11])([H:8])([H:9])[H:10]>>[C:1](/[C:2]([C:3](=[O:4])[H:12])=[C:5](/[O:6][H:11])[N:7]([H:13])[H:14])([H:8])([H:9])[H:10]"
C       -0.92226253      -1.19853345       0.27581336
C       -0.42442613       0.17723310      -0.08615615
C       -1.15950175       1.28936383       0.53879663
O       -2.19684595       1.18550980       1.15101483
C        0.98796121       0.43017537      -0.27897993
O        1.13791289       1.37146053      -1.13704140
N        2.01104034      -0.41855829      -0.14703046
H       -0.57894021      -1.51492188       1.26577867
H       -2.01087523      -1.19676944       0.31078717
H       -0.63248444      -1.95456556      -0.45618034
H       -0.19143848       1.02181005      -1.34925733
H       -0.83564159       2.30615560       0.22683963
H        1.87718372      -1.38765604       0.06693363
H        2.93831815      -0.11070364      -0.38131831
14
Frame=9 idx=009248 GeodesicLength=0.4899961933664208 rxn_smarts="[C:1]([C@@:2]([C:3](=[O:4])[H:12])([C:5](=[O:6])[N:7]([H:13])[H:14])[H:11])([H:8])([H:9])[H:10]>>[C:1](/[C:2]([C:3](=[O:4])[H:12])=[C:5](/[O:6][H:11])[N:7]([H:13])[H:14])([H:8])([H:9])[H:10]"
C       -0.91304387      -1.19361947       0.29136195
C       -0.42070628       0.18140016      -0.08282875
C       -1.17278949       1.29229059       0.52786746
O       -2.21161658       1.18526699       1.13629411
C        0.99543489       0.43710113      -0.24503337
O        1.15902444       1.39133787      -1.08740628
N        2.00713200      -0.43418968      -0.15727655
H       -0.56689738      -1.50036875       1.28312981
H       -2.00165460      -1.19894065       0.32576824
H       -0.62258031      -1.95498934      -0.43492320
H       -0.17792517       1.02616593      -1.34844384
H       -0.87265793       2.30769774       0.18807667
H        1.85921253      -1.41625092      -0.02943496
H        2.93906778      -0.12290160      -0.36715130
14
Frame=10 idx=009248 GeodesicLength=0.5440597494993374 rxn_smarts="[C:1]([C@@:2]([C:3](=[O:4])[H:12])([C:5](=[O:6])[N:7]([H:13])[H:14])[H:11])([H:8])([H:9])[H:10]>>[C:1](/[C:2]([C:3](=[O:4])[H:12])=[C:5](/[O:6][H:11])[N:7]([H:13])[H:14])([H:8])([H:9])[H:10]"
C       -0.90384766      -1.18898021       0.30701589
C       -0.41690195       0.18503474      -0.07995774
C       -1.18557535       1.29457063       0.51643870
O       -2.22676298       1.18477904       1.11957562
C        1.00276881       0.44261990      -0.21035789
O        1.18011407       1.41082002      -1.03510854
N        2.00231349      -0.44948485      -0.16815146
H       -0.55509425      -1.48580673       1.30064510
H       -1.99240488      -1.20133046       0.34073431
H       -0.61243244      -1.95604662      -0.41298831
H       -0.16311930       1.03095364      -1.34720286
H       -0.90705543       2.30717807       0.15013376
H        1.83931890      -1.43643502      -0.12424585
H        2.93867896      -0.13787216      -0.35653073
14
Frame=11 idx=009248 GeodesicLength=0.598210850534209 rxn_smarts="[C:1]([C@@:2]([C:3](=[O:4])[H:12])([C:5](=[O:6])[N:7]([H:13])[H:14])[H:11])([H:8])([H:9])[H:10]>>[C:1](/[C:2]([C:3](=[O:4])[H:12])=[C:5](/[O:6][H:11])[N:7]([H:13])[H:14])([H:8])([H:9])[H:10]"
C       -0.89484154      -1.18466378       0.32259535
C       -0.41300296       0.18810274      -0.07747548
C       -1.19757934       1.29626245       0.50481996
O       -2.24193040       1.18404773       1.10127105
C        1.00989266       0.44657105      -0.17530506
O        1.20091931       1.42951196      -0.98065746
N        1.99670077      -0.46427633      -0.17971961
H       -0.54409287      -1.47134815       1.31826530
H       -1.98332861      -1.20381062       0.35517043
H       -0.60195550      -1.95775428      -0.39046596
H       -0.14738754       1.03611786      -1.34555337
H       -0.93869601       2.30481622       0.11301457
H        1.81808281      -1.44882373      -0.21618179
H        2.93721924      -0.15475312      -0.34977795
14
Frame=12 idx=009248 GeodesicLength=0.6523485577595417 rxn_smarts="[C:1]([C@@:2]([C:3](=[O:4])[H:12])([C:5](=[O:6])[N:7]([H:13])[H:14])[H:11])([H:8])([H:9])[H:10]>>[C:1](/[C:2]([C:3](=[O:4])[H:12])=[C:5](/[O:6][H:11])[N:7]([H:13])[H:14])([H:8])([H:9])[H:10]"
C       -0.88613615      -1.18067275       0.33796144
C       -0.40901455       0.19057404      -0.07533864
C       -1.20858671       1.29742142       0.49322187
O       -2.25674719       1.18310412       1.08177947
C        1.01669782       0.44884014      -0.14023790
O        1.22115564       1.44697990      -0.92465638
N        1.99033997      -0.47839448      -0.19203379
H       -0.53430244      -1.45699839       1.33594098
H       -1.97453425      -1.20624729       0.36870330
H       -0.59107132      -1.96006006      -0.36743687
H       -0.13112513       1.04148208      -1.34359419
H       -0.96738740       2.30079467       0.07684626
H        1.79600552      -1.45419306      -0.30455288
H        2.93470618      -0.17263035      -0.34660267
14
Frame=13 idx=009248 GeodesicLength=0.7065333159060835 rxn_smarts="[C:1]([C@@:2]([C:3](=[O:4])[H:12])([C:5](=[O:6])[N:7]([H:13])[H:14])[H:11])([H:8])([H:9])[H:10]>>[C:1](/[C:2]([C:3](=[O:4])[H:12])=[C:5](/[O:6][H:11])[N:7]([H:13])[H:14])([H:8])([H:9])[H:10]"
C       -0.87771603      -1.17701043       0.35300975
C       -0.40487193       0.19249321      -0.07351070
C       -1.21859962       1.29805335       0.48175422
O       -2.27136103       1.18180759       1.06088208
C        1.02322796       0.44949563      -0.10549197
O        1.24066737       1.46306417      -0.86766396
N        1.98342279      -0.49164290      -0.20545201
H       -0.52593521      -1.44275469       1.35365315
H       -1.96601908      -1.20875590       0.38097920
H       -0.57954618      -1.96294484      -0.34390373
H       -0.11469905       1.04708503      -1.34138717
H       -0.99268042       2.29547822       0.04240059
H        1.77280848      -1.45347688      -0.38775906
H        2.93130198      -0.19089155      -0.34751037
14
Frame=14 idx=009248 GeodesicLength=0.7606706666193498 rxn_smarts="[C:1]([C@@:2]([C:3](=[O:4])[H:12])([C:5](=[O:6])[N:7]([H:13])[H:14])[H:11])([H:8])([H:9])[H:10]>>[C:1](/[C:2]([C:3](=[O:4])[H:12])=[C:5](/[O:6][H:11])[N:7]([H:13])[H:14])([H:8])([H:9])[H:10]"
C       -0.86970141      -1.17369342       0.36766561
C       -0.40068138       0.19383603      -0.07202409
C       -1.22754726       1.29826789       0.47046201
O       -2.28532003       1.18031739       1.03923599
C        1.02933677       0.44851179      -0.07138968
O        1.25926541       1.47736774      -0.81040754
N        1.97598543      -0.50390705      -0.21946177
H       -0.51912142      -1.42863370       1.37131681
H       -1.95790520      -1.21121748       0.39198794
H       -0.56748133      -1.96634119      -0.31997892
H       -0.09851751       1.05263004      -1.33920201
H       -1.01459587       2.28915189       0.00963938
H        1.74924262      -1.44751585      -0.46654367
H        2.92704117      -0.20877408      -0.35130006
14
Frame=15 idx=009248 GeodesicLength=0.8147570701708118 rxn_smarts="[C:1]([C@@:2]([C:3](=[O:4])[H:12])([C:5](=[O:6])[N:7]([H:13])[H:14])[H:11])([H:8])([H:9])[H:10]>>[C:1](/[C:2]([C:3](=[O:4])[H:12])=[C:5](/[O:6][H:11])[N:7]([H:13])[H:14])([H:8])([H:9])[H:10]"
C       -0.86205951      -1.17069059       0.38175830
C       -0.39635875       0.19471538      -0.07076473
C       -1.23539953       1.29811668       0.45959315
O       -2.29862973       1.17851826       1.01694088
C        1.03511398       0.44608188      -0.03820409
O        1.27689040       1.48982938      -0.75352348
N        1.96822685      -0.51501176      -0.23424141
H       -0.51391006      -1.41474791       1.38874196
H       -1.95015432      -1.21368904       0.40141677
H       -0.55478279      -1.97007030      -0.29593165
H       -0.08295820       1.05810111      -1.33712055
H       -1.03316254       2.28213223      -0.02104714
H        1.72509641      -1.43743559      -0.53930364
H        2.92208779      -0.22584973      -0.35831436
14
Frame=16 idx=009248 GeodesicLength=0.8688686197492523 rxn_smarts="[C:1]([C@@:2]([C:3](=[O:4])[H:12])([C:5](=[O:6])[N:7]([H:13])[H:14])[H:11])([H:8])([H:9])[H:10]>>[C:1](/[C:2]([C:3](=[O:4])[H:12])=[C:5](/[O:6][H:11])[N:7]([H:13])[H:14])([H:8])([H:9])[H:10]"
C       -0.85480553      -1.16798600       0.39544620
C       -0.39200868       0.19510175      -0.06978242
C       -1.24225210       1.29767122       0.44897929
O       -2.31116654       1.17656507       0.99415929
C        1.04046291       0.44217601      -0.00589380
O        1.29355452       1.50035724      -0.69700731
N        1.96009295      -0.52509964      -0.24931716
H       -0.51018906      -1.40094513       1.40606036
H       -1.94276565      -1.21612979       0.40962275
H       -0.54152759      -1.97412292      -0.27154814
H       -0.06804750       1.06329716      -1.33529990
H       -1.04862591       2.27460738      -0.04996279
H        1.70085815      -1.42360135      -0.60809198
H        2.91642004      -0.24189100      -0.36736438
