14
Frame=0 idx=007353 GeodesicLength=0.0 rxn_smarts="[O:1]=[C:2]1[C:3]([H:8])([H:9])[N:4]2[C:5]([H:10])([H:11])[C:6]([H:12])([H:13])[C@@:7]12[H:14]>>[O:1]=[C:2]([C@@:7]1([H:14])[N+:4]([C-:3]([H:8])[H:9])=[C:5]([H:11])[C:6]1([H:12])[H:13])[H:10]"
O        1.73606343       1.72208883      -0.52264321
C        0.97202159       0.86431307      -0.09545475
C        1.42110429      -0.69554223       0.32017937
N        0.04202921      -0.97812949      -0.01349988
C       -0.94060672      -0.54622425       0.76836782
C       -1.61244941       0.27867717      -0.29872227
C       -0.23101553       0.13277544      -0.94457670
H        2.11067443      -1.10233445      -0.41753803
H        1.70568234      -0.92921020       1.34391016
H        0.30448499       1.00371895       0.88925374
H       -1.10873273      -0.79697108       1.80782560
H       -1.90921108       1.28648488      -0.01601104
H       -2.43408690      -0.22379526      -0.81356109
H       -0.05595791      -0.01585135      -2.00752966
14
Frame=1 idx=007353 GeodesicLength=0.0997698943334411 rxn_smarts="[O:1]=[C:2]1[C:3]([H:8])([H:9])[N:4]2[C:5]([H:10])([H:11])[C:6]([H:12])([H:13])[C@@:7]12[H:14]>>[O:1]=[C:2]([C@@:7]1([H:14])[N+:4]([C-:3]([H:8])[H:9])=[C:5]([H:11])[C:6]1([H:12])[H:13])[H:10]"
O        1.72218260       1.73761047      -0.53621633
C        0.97066267       0.87450090      -0.10321875
C        1.42462712      -0.70622953       0.31861906
N        0.04400988      -0.97806465      -0.00630264
C       -0.93593664      -0.53057490       0.78011333
C       -1.60817126       0.28121335      -0.29830259
C       -0.22459292       0.13307270      -0.94188077
H        2.11237985      -1.10990953      -0.42202131
H        1.71312646      -0.94152340       1.34079418
H        0.29568639       1.00222508       0.90630517
H       -1.12658336      -0.81088451       1.80747561
H       -1.90503472       1.29278576      -0.02845991
H       -2.42824175      -0.22449678      -0.81206428
H       -0.05411432      -0.01972497      -2.00484079
14
Frame=2 idx=007353 GeodesicLength=0.19946873963302292 rxn_smarts="[O:1]=[C:2]1[C:3]([H:8])([H:9])[N:4]2[C:5]([H:10])([H:11])[C:6]([H:12])([H:13])[C@@:7]12[H:14]>>[O:1]=[C:2]([C@@:7]1([H:14])[N+:4]([C-:3]([H:8])[H:9])=[C:5]([H:11])[C:6]1([H:12])[H:13])[H:10]"
O        1.70809502       1.75326741      -0.55033994
C        0.96940526       0.88489028      -0.11141356
C        1.42818649      -0.71709991       0.31722325
N        0.04616115      -0.97785179       0.00104019
C       -0.93103764      -0.51496532       0.79197409
C       -1.60371555       0.28374446      -0.29753579
C       -0.21812125       0.13339418      -0.93903737
H        2.11408540      -1.11771468      -0.42629818
H        1.72048341      -0.95376568       1.33789802
H        0.28688748       1.00106074       0.92357540
H       -1.14509846      -0.82504797       1.80555672
H       -1.90063017       1.29889840      -0.04048462
H       -2.42227672      -0.22510363      -0.81018614
H       -0.05242440      -0.02370651      -2.00197205
14
Frame=3 idx=007353 GeodesicLength=0.2991864368708807 rxn_smarts="[O:1]=[C:2]1[C:3]([H:8])([H:9])[N:4]2[C:5]([H:10])([H:11])[C:6]([H:12])([H:13])[C@@:7]12[H:14]>>[O:1]=[C:2]([C@@:7]1([H:14])[N+:4]([C-:3]([H:8])[H:9])=[C:5]([H:11])[C:6]1([H:12])[H:13])[H:10]"
O        1.69378569       1.76907578      -0.56499274
C        0.96825570       0.89546504      -0.12003302
C        1.43180641      -0.72818983       0.31599785
N        0.04848996      -0.97751330       0.00851086
C       -0.92596174      -0.49947583       0.80394586
C       -1.59912265       0.28625874      -0.29643743
C       -0.21160263       0.13374157      -0.93606405
H        2.11584129      -1.12575217      -0.43038521
H        1.72778361      -0.96600010       1.33524582
H        0.27802996       1.00018358       0.94113669
H       -1.16413067      -0.83923322       1.80209386
H       -1.89605587       1.30480686      -0.05206599
H       -2.41624010      -0.22559969      -0.80799054
H       -0.05087897      -0.02776741      -1.99896194
14
Frame=4 idx=007353 GeodesicLength=0.39889019320547564 rxn_smarts="[O:1]=[C:2]1[C:3]([H:8])([H:9])[N:4]2[C:5]([H:10])([H:11])[C:6]([H:12])([H:13])[C@@:7]12[H:14]>>[O:1]=[C:2]([C@@:7]1([H:14])[N+:4]([C-:3]([H:8])[H:9])=[C:5]([H:11])[C:6]1([H:12])[H:13])[H:10]"
O        1.67917868       1.78505585      -0.58011451
C        0.96718545       0.90620943      -0.12906101
C        1.43547201      -0.73953198       0.31492895
N        0.05100203      -0.97707638       0.01607888
C       -0.92073951      -0.48419401       0.81598558
C       -1.59438432       0.28873366      -0.29502612
C       -0.20502994       0.13410564      -0.93295753
H        2.11764016      -1.13401344      -0.43430152
H        1.73501171      -0.97828293       1.33281227
H        0.26905545       0.99953252       0.95904969
H       -1.18350957      -0.85314393       1.79712118
H       -1.89130859       1.31048261      -0.06318564
H       -2.41011106      -0.22598413      -0.80553191
H       -0.04946249      -0.03189291      -1.99579830
14
Frame=5 idx=007353 GeodesicLength=0.49858735573912577 rxn_smarts="[O:1]=[C:2]1[C:3]([H:8])([H:9])[N:4]2[C:5]([H:10])([H:11])[C:6]([H:12])([H:13])[C@@:7]12[H:14]>>[O:1]=[C:2]([C@@:7]1([H:14])[N+:4]([C-:3]([H:8])[H:9])=[C:5]([H:11])[C:6]1([H:12])[H:13])[H:10]"
O        1.66421230       1.80123109      -0.59564906
C        0.96617323       0.91710826      -0.13848453
C        1.43917368      -0.75116215       0.31400647
N        0.05369939      -0.97657024       0.02370979
C       -0.91541574      -0.46920660       0.82805298
C       -1.58950582       0.29115272      -0.29333173
C       -0.19839674       0.13448131      -0.92972674
H        2.11948862      -1.14249339      -0.43806548
H        1.74215516      -0.99067358       1.33058554
H        0.25989717       0.99904854       0.97738028
H       -1.20303969      -0.86650973       1.79072841
H       -1.88639948       1.31590785      -0.07383434
H       -2.40388707      -0.22625160      -0.80288109
H       -0.04815501      -0.03606248      -1.99249050
14
Frame=6 idx=007353 GeodesicLength=0.598281287394457 rxn_smarts="[O:1]=[C:2]1[C:3]([H:8])([H:9])[N:4]2[C:5]([H:10])([H:11])[C:6]([H:12])([H:13])[C@@:7]12[H:14]>>[O:1]=[C:2]([C@@:7]1([H:14])[N+:4]([C-:3]([H:8])[H:9])=[C:5]([H:11])[C:6]1([H:12])[H:13])[H:10]"
O        1.64882770       1.81762765      -0.61153629
C        0.96520035       0.92814983      -0.14829081
C        1.44290110      -0.76311621       0.31321782
N        0.05658097      -0.97602423       0.03136282
C       -0.91003824      -0.45459827       0.84009842
C       -1.58449449       0.29350111      -0.29139622
C       -0.19169519       0.13486645      -0.92638789
H        2.12139367      -1.15118404      -0.44169656
H        1.74919945      -1.00323275       1.32855406
H        0.25048767       0.99866344       0.99619609
H       -1.22252111      -0.87907219       1.78307177
H       -1.88133818       1.32106779      -0.08401466
H       -2.39756986      -0.22639788      -0.80012116
H       -0.04693386      -0.04025070      -1.98905738
14
Frame=7 idx=007353 GeodesicLength=0.6980140939267622 rxn_smarts="[O:1]=[C:2]1[C:3]([H:8])([H:9])[N:4]2[C:5]([H:10])([H:11])[C:6]([H:12])([H:13])[C@@:7]12[H:14]>>[O:1]=[C:2]([C@@:7]1([H:14])[N+:4]([C-:3]([H:8])[H:9])=[C:5]([H:11])[C:6]1([H:12])[H:13])[H:10]"
O        1.63300571       1.83429236      -0.62774322
C        0.96427368       0.93933630      -0.15847984
C        1.44664903      -0.77542500       0.31255741
N        0.05963304      -0.97546724       0.03900302
C       -0.90466516      -0.44044050       0.85209191
C       -1.57936897       0.29576950      -0.28926728
C       -0.18491824       0.13526290      -0.92297288
H        2.12336892      -1.16007647      -0.44521582
H        1.75613549      -1.01601349       1.32673022
H        0.24077757       0.99832567       1.01557604
H       -1.24178704      -0.89066659       1.77434959
H       -1.87613373       1.32596188      -0.09373913
H       -2.39118907      -0.22642276      -0.79734108
H       -0.04578120      -0.04443658      -1.98554897
14
Frame=8 idx=007353 GeodesicLength=0.7976078564666044 rxn_smarts="[O:1]=[C:2]1[C:3]([H:8])([H:9])[N:4]2[C:5]([H:10])([H:11])[C:6]([H:12])([H:13])[C@@:7]12[H:14]>>[O:1]=[C:2]([C@@:7]1([H:14])[N+:4]([C-:3]([H:8])[H:9])=[C:5]([H:11])[C:6]1([H:12])[H:13])[H:10]"
O        1.61652106       1.85114944      -0.64412913
C        0.96328943       0.95060323      -0.16900702
C        1.45037462      -0.78813749       0.31197556
N        0.06289931      -0.97489506       0.04655547
C       -0.89931293      -0.42677551       0.86385036
C       -1.57408940       0.29796330      -0.28700836
C       -0.17803418       0.13567538      -0.91944411
H        2.12540338      -1.16916992      -0.44861098
H        1.76288593      -1.02911080       1.32498134
H        0.23055981       0.99789413       1.03548999
H       -1.26046756      -0.90091488       1.76487222
H       -1.87080902       1.33056030      -0.10304770
H       -2.38460870      -0.22626713      -0.79462929
H       -0.04461175      -0.04857499      -1.98184835
14
Frame=9 idx=007353 GeodesicLength=0.8972626362094386 rxn_smarts="[O:1]=[C:2]1[C:3]([H:8])([H:9])[N:4]2[C:5]([H:10])([H:11])[C:6]([H:12])([H:13])[C@@:7]12[H:14]>>[O:1]=[C:2]([C@@:7]1([H:14])[N+:4]([C-:3]([H:8])[H:9])=[C:5]([H:11])[C:6]1([H:12])[H:13])[H:10]"
O        1.59950117       1.86831234      -0.66081718
C        0.96234195       0.96201179      -0.17994872
C        1.45410079      -0.80124763       0.31151055
N        0.06633650      -0.97433125       0.05405518
C       -0.89402353      -0.41360807       0.87551027
C       -1.56868885       0.30009956      -0.28462075
C       -0.17104971       0.13609755      -0.91586582
H        2.12751405      -1.17847223      -0.45190392
H        1.76949904      -1.04246872       1.32343613
H        0.21993060       0.99745650       1.05606852
H       -1.27871673      -0.91011383       1.75459120
H       -1.86532059       1.33493955      -0.11192845
H       -2.37795522      -0.22595912      -0.79198784
H       -0.04346947      -0.05271644      -1.97809916
14
Frame=10 idx=007353 GeodesicLength=0.996901217907534 rxn_smarts="[O:1]=[C:2]1[C:3]([H:8])([H:9])[N:4]2[C:5]([H:10])([H:11])[C:6]([H:12])([H:13])[C@@:7]12[H:14]>>[O:1]=[C:2]([C@@:7]1([H:14])[N+:4]([C-:3]([H:8])[H:9])=[C:5]([H:11])[C:6]1([H:12])[H:13])[H:10]"
O        1.58183688       1.88575249      -0.67775182
C        0.96139208       0.97353171      -0.19130933
C        1.45780680      -0.81478913       0.31114732
N        0.06995708      -0.97377390       0.06146363
C       -0.88881783      -0.40095769       0.88698252
C       -1.56315398       0.30219270      -0.28215737
C       -0.16395105       0.13653990      -0.91223397
H        2.12970004      -1.18798170      -0.45507914
H        1.77594194      -1.05613299       1.32205376
H        0.20878172       0.99693923       1.07732991
H       -1.29631437      -0.91813587       1.74372926
H       -1.85967435       1.33910620      -0.12042493
H       -2.37117968      -0.22545867      -0.78948748
H       -0.04232528      -0.05683227      -1.97426235
14
Frame=11 idx=007353 GeodesicLength=1.0965736544437517 rxn_smarts="[O:1]=[C:2]1[C:3]([H:8])([H:9])[N:4]2[C:5]([H:10])([H:11])[C:6]([H:12])([H:13])[C@@:7]12[H:14]>>[O:1]=[C:2]([C@@:7]1([H:14])[N+:4]([C-:3]([H:8])[H:9])=[C:5]([H:11])[C:6]1([H:12])[H:13])[H:10]"
O        1.56353250       1.90351444      -0.69495822
C        0.96047581       0.98518639      -0.20312158
C        1.46148881      -0.82877933       0.31087888
N        0.07375103      -0.97323084       0.06876212
C       -0.88372725      -0.38883278       0.89825802
C       -1.55748947       0.30425357      -0.27965233
C       -0.15671905       0.13700977      -0.90858169
H        2.13197300      -1.19769841      -0.45815565
H        1.78220350      -1.07011651       1.32085152
H        0.19706460       0.99632379       1.09934230
H       -1.31323846      -0.92503367       1.73250467
H       -1.85385738       1.34309036      -0.12855425
H       -2.36430018      -0.22476360      -0.78718042
H       -0.04115746      -0.06092319      -1.97039336
14
Frame=12 idx=007353 GeodesicLength=1.196230372672658 rxn_smarts="[O:1]=[C:2]1[C:3]([H:8])([H:9])[N:4]2[C:5]([H:10])([H:11])[C:6]([H:12])([H:13])[C@@:7]12[H:14]>>[O:1]=[C:2]([C@@:7]1([H:14])[N+:4]([C-:3]([H:8])[H:9])=[C:5]([H:11])[C:6]1([H:12])[H:13])[H:10]"
O        1.54449209       1.92157757      -0.71244258
C        0.95957921       0.99696908      -0.21540682
C        1.46513292      -0.84323988       0.31069164
N        0.07773779      -0.97268840       0.07593518
C       -0.87874969      -0.37721929       0.90928188
C       -1.55166949       0.30630841      -0.27713482
C       -0.14933151       0.13751782      -0.90489937
H        2.13432930      -1.20762652      -0.46111846
H        1.78826128      -1.08444217       1.31979515
H        0.18468081       0.99556351       1.12212020
H       -1.32940802      -0.93081845       1.72107773
H       -1.84785243       1.34692021      -0.13634650
H       -2.35726298      -0.22383531      -0.78509842
H       -0.03993929      -0.06498658      -1.96645481
14
Frame=13 idx=007353 GeodesicLength=1.295855756669244 rxn_smarts="[O:1]=[C:2]1[C:3]([H:8])([H:9])[N:4]2[C:5]([H:10])([H:11])[C:6]([H:12])([H:13])[C@@:7]12[H:14]>>[O:1]=[C:2]([C@@:7]1([H:14])[N+:4]([C-:3]([H:8])[H:9])=[C:5]([H:11])[C:6]1([H:12])[H:13])[H:10]"
O        1.52465078       1.93992793      -0.73025736
C        0.95871080       1.00886313      -0.22824156
C        1.46874873      -0.85817007       0.31060360
N        0.08193160      -0.97211886       0.08301880
C       -0.87387223      -0.36606626       0.92009490
C       -1.54567608       0.30839991      -0.27458917
C       -0.14178439       0.13805156      -0.90117433
H        2.13677661      -1.21778210      -0.46393925
H        1.79414169      -1.09906275       1.31890284
H        0.17162461       0.99468788       1.14570492
H       -1.34487465      -0.93568406       1.70928770
H       -1.84161764       1.35065365      -0.14380387
H       -2.35006963      -0.22262034      -0.78319079
H       -0.03869019      -0.06907963      -1.96241643
14
Frame=14 idx=007353 GeodesicLength=1.3955136451261219 rxn_smarts="[O:1]=[C:2]1[C:3]([H:8])([H:9])[N:4]2[C:5]([H:10])([H:11])[C:6]([H:12])([H:13])[C@@:7]12[H:14]>>[O:1]=[C:2]([C@@:7]1([H:14])[N+:4]([C-:3]([H:8])[H:9])=[C:5]([H:11])[C:6]1([H:12])[H:13])[H:10]"
O        1.50400995       1.95861417      -0.74845655
C        0.95791768       1.02090432      -0.24167238
C        1.47233418      -0.87358831       0.31060963
N        0.08632590      -0.97152786       0.09000421
C       -0.86911659      -0.35538014       0.93070012
C       -1.53950598       0.31054136      -0.27204156
C       -0.13405401       0.13862577      -0.89743896
H        2.13932390      -1.22816531      -0.46663923
H        1.79984006      -1.11399709       1.31819743
H        0.15783671       0.99368006       1.17018434
H       -1.35965838      -0.93971174       1.69733867
H       -1.83512735       1.35432822      -0.15094201
H       -2.34273082      -0.22111926      -0.78150827
H       -0.03739524      -0.07320417      -1.95833547
14
Frame=15 idx=007353 GeodesicLength=1.4951825417322224 rxn_smarts="[O:1]=[C:2]1[C:3]([H:8])([H:9])[N:4]2[C:5]([H:10])([H:11])[C:6]([H:12])([H:13])[C@@:7]12[H:14]>>[O:1]=[C:2]([C@@:7]1([H:14])[N+:4]([C-:3]([H:8])[H:9])=[C:5]([H:11])[C:6]1([H:12])[H:13])[H:10]"
O        1.48249628       1.97761824      -0.76707978
C        0.95720828       1.03308806      -0.25575962
C        1.47588864      -0.88950655       0.31071094
N        0.09093957      -0.97089433       0.09690277
C       -0.86447202      -0.34513410       0.94109476
C       -1.53313521       0.31276539      -0.26949434
C       -0.12612420       0.13924323      -0.89368533
H        2.14197569      -1.23878200      -0.46920187
H        1.80536294      -1.12923357       1.31767470
H        0.14325406       0.99252169       1.19560635
H       -1.37377003      -0.94299567       1.68522773
H       -1.82834747       1.35798532      -0.15776716
H       -2.33522158      -0.21928901      -0.78004307
H       -0.03605493      -0.07738671      -1.95418609
14
Frame=16 idx=007353 GeodesicLength=1.5948649028672226 rxn_smarts="[O:1]=[C:2]1[C:3]([H:8])([H:9])[N:4]2[C:5]([H:10])([H:11])[C:6]([H:12])([H:13])[C@@:7]12[H:14]>>[O:1]=[C:2]([C@@:7]1([H:14])[N+:4]([C-:3]([H:8])[H:9])=[C:5]([H:11])[C:6]1([H:12])[H:13])[H:10]"
O        1.46005445       1.99693204      -0.78617395
C        0.95660366       1.04541609      -0.27057366
C        1.47941360      -0.90593820       0.31090971
N        0.09578805      -0.97020021       0.10372728
C       -0.85993369      -0.33530670       0.95128631
C       -1.52654375       0.31510313      -0.26694772
C       -0.11797729       0.13990794      -0.88991312
H        2.14474072      -1.24963952      -0.47161699
H        1.81072006      -1.14475767       1.31734066
H        0.12780809       0.99119833       1.22203322
H       -1.38723160      -0.94564060       1.67295712
H       -1.82124172       1.36166920      -0.16428001
H       -2.32752933      -0.21708993      -0.77878969
H       -0.03467126      -0.08165392      -1.94995916
