17
Frame=0 idx=006657 GeodesicLength=0.0 rxn_smarts="[C:1]([O:2][C@@:3]1([H:11])[C:4]([H:12])([H:13])[O:5][C@:6]1([C:7]([H:15])([H:16])[H:17])[H:14])([H:8])([H:9])[H:10]>>[C:1]([O:2][C@@:3]([C:4]([O:5][H:16])([H:12])[H:13])([C:6](=[C:7]([H:15])[H:17])[H:14])[H:11])([H:8])([H:9])[H:10]"
C        2.12383037       1.01154712      -0.31561259
O        0.71866751       0.99216538      -0.35605557
C        0.19882587      -0.30068349      -0.48724552
C        0.22155449      -1.19757821       0.75971344
O       -1.15780051      -1.52054659       0.85114575
C       -1.32068861      -0.26757964      -0.59519569
C       -2.06717942       0.67484212       0.13032767
H        2.51474800       0.46595377       0.55138717
H        2.55302220       0.57553831      -1.22709659
H        2.42981724       2.05369209      -0.24196172
H        0.64073577      -0.79068678      -1.36500928
H        0.59380242      -0.67468298       1.64943439
H        0.82260371      -2.09857539       0.61261568
H       -1.79328523      -0.90073009      -1.33682295
H       -3.11459921       0.79914860      -0.11228266
H       -1.82007735      -0.36009061       0.96108256
H       -1.54397721       1.53826645       0.52157587
17
Frame=1 idx=006657 GeodesicLength=0.0689715019618634 rxn_smarts="[C:1]([O:2][C@@:3]1([H:11])[C:4]([H:12])([H:13])[O:5][C@:6]1([C:7]([H:15])([H:16])[H:17])[H:14])([H:8])([H:9])[H:10]>>[C:1]([O:2][C@@:3]([C:4]([O:5][H:16])([H:12])[H:13])([C:6](=[C:7]([H:15])[H:17])[H:14])[H:11])([H:8])([H:9])[H:10]"
C        2.12508432       1.01115148      -0.32020058
O        0.71955824       0.99158912      -0.34702292
C        0.19919869      -0.30049703      -0.48320079
C        0.22301307      -1.19857496       0.76286910
O       -1.15471288      -1.53162612       0.84857756
C       -1.31911092      -0.26633197      -0.59244300
C       -2.06968013       0.67528011       0.13167032
H        2.52640255       0.45452587       0.53496839
H        2.54488208       0.58791611      -1.24201762
H        2.43132276       2.05247975      -0.23625582
H        0.64113105      -0.79044530      -1.36088589
H        0.58371958      -0.67171628       1.65493344
H        0.83573878      -2.09181558       0.61850397
H       -1.79273931      -0.90035485      -1.33300591
H       -3.10694777       0.82027826      -0.14212550
H       -1.84063824      -0.37872698       0.97807108
H       -1.54622188       1.53686839       0.52756416
17
Frame=2 idx=006657 GeodesicLength=0.13790397850612665 rxn_smarts="[C:1]([O:2][C@@:3]1([H:11])[C:4]([H:12])([H:13])[O:5][C@:6]1([C:7]([H:15])([H:16])[H:17])[H:14])([H:8])([H:9])[H:10]>>[C:1]([O:2][C@@:3]([C:4]([O:5][H:16])([H:12])[H:13])([C:6](=[C:7]([H:15])[H:17])[H:14])[H:11])([H:8])([H:9])[H:10]"
C        2.12621374       1.01082658      -0.32483662
O        0.72045486       0.99096804      -0.33815028
C        0.19958866      -0.30035395      -0.47923672
C        0.22440403      -1.19948493       0.76604245
O       -1.15161592      -1.54255388       0.84597685
C       -1.31751157      -0.26506517      -0.58982694
C       -2.07222761       0.67563508       0.13296680
H        2.53769755       0.44340226       0.51833653
H        2.53654998       0.60036113      -1.25663186
H        2.43284582       2.05120304      -0.23069982
H        0.64158619      -0.79032793      -1.35677363
H        0.57342916      -0.66868359       1.66034639
H        0.84871340      -2.08484280       0.62464635
H       -1.79222926      -0.90004566      -1.32921009
H       -3.09793204       0.84185998      -0.17160712
H       -1.86157637      -0.39809030       0.99489798
H       -1.54839063       1.53519211       0.53375973
17
Frame=3 idx=006657 GeodesicLength=0.20681433062116344 rxn_smarts="[C:1]([O:2][C@@:3]1([H:11])[C:4]([H:12])([H:13])[O:5][C@:6]1([C:7]([H:15])([H:16])[H:17])[H:14])([H:8])([H:9])[H:10]>>[C:1]([O:2][C@@:3]([C:4]([O:5][H:16])([H:12])[H:13])([C:6](=[C:7]([H:15])[H:17])[H:14])[H:11])([H:8])([H:9])[H:10]"
C        2.12722398       1.01057087      -0.32952228
O        0.72135943       0.99030670      -0.32943333
C        0.19999696      -0.30025014      -0.47535150
C        0.22572124      -1.20030218       0.76923749
O       -1.14851902      -1.55331223       0.84335402
C       -1.31588819      -0.26377644      -0.58735573
C       -2.07482835       0.67592170       0.13418140
H        2.54864740       0.43256502       0.50148439
H        2.52802779       0.61288078      -1.27095647
H        2.43439138       2.04986157      -0.22528447
H        0.64210537      -0.79033366      -1.35266753
H        0.56293001      -0.66558092       1.66567227
H        0.86151184      -2.07765650       0.63104892
H       -1.79174957      -0.89980665      -1.32543875
H       -3.08755566       0.86386091      -0.20068377
H       -1.88287541      -0.41818861       1.01157205
H       -1.55049921       1.53323979       0.54014330
17
Frame=4 idx=006657 GeodesicLength=0.2757146730931783 rxn_smarts="[C:1]([O:2][C@@:3]1([H:11])[C:4]([H:12])([H:13])[O:5][C@:6]1([C:7]([H:15])([H:16])[H:17])[H:14])([H:8])([H:9])[H:10]>>[C:1]([O:2][C@@:3]([C:4]([O:5][H:16])([H:12])[H:13])([C:6](=[C:7]([H:15])[H:17])[H:14])[H:11])([H:8])([H:9])[H:10]"
C        2.12812197       1.01038159      -0.33425765
O        0.72227627       0.98960987      -0.32087508
C        0.20042572      -0.30018052      -0.47154879
C        0.22695749      -1.20101989       0.77245258
O       -1.14543451      -1.56387796       0.84071612
C       -1.31423708      -0.26245892      -0.58504531
C       -2.07748614       0.67615527       0.13527635
H        2.55925555       0.42201128       0.48442182
H        2.51932867       0.62546560      -1.28499075
H        2.43596841       2.04845288      -0.22001237
H        0.64269427      -0.79046122      -1.34856736
H        0.55222168      -0.66240371       1.67090428
H        0.87411500      -2.07025723       0.63771151
H       -1.79129539      -0.89963776      -1.32170055
H       -3.07583902       0.88622699      -0.22928446
H       -1.90451327      -0.43902397       1.02810935
H       -1.55255962       1.53101769       0.54669031
17
Frame=5 idx=006657 GeodesicLength=0.3446166620136334 rxn_smarts="[C:1]([O:2][C@@:3]1([H:11])[C:4]([H:12])([H:13])[O:5][C@:6]1([C:7]([H:15])([H:16])[H:17])[H:14])([H:8])([H:9])[H:10]>>[C:1]([O:2][C@@:3]([C:4]([O:5][H:16])([H:12])[H:13])([C:6](=[C:7]([H:15])[H:17])[H:14])[H:11])([H:8])([H:9])[H:10]"
C        2.12891753       1.01025400      -0.33904267
O        0.72321106       0.98888280      -0.31247362
C        0.20087723      -0.30013941      -0.46782823
C        0.22810594      -1.20163000       0.77569059
O       -1.14237290      -1.57423480       0.83806882
C       -1.31255470      -0.26110657      -0.58290523
C       -2.08020131       0.67636320       0.13620632
H        2.56953775       0.41172095       0.46714636
H        2.51046065       0.63811667      -1.29875129
H        2.43758645       2.04697501      -0.21487307
H        0.64335800      -0.79070896      -1.34446913
H        0.54129965      -0.65914434       1.67604077
H        0.88650864      -2.06264154       0.64464111
H       -1.79085986      -0.89953753      -1.31800189
H       -3.06281445       0.90889753      -0.25733815
H       -1.92647558      -0.46060284       1.04451596
H       -1.55458411       1.52853582       0.55337335
17
Frame=6 idx=006657 GeodesicLength=0.4135250432231774 rxn_smarts="[C:1]([O:2][C@@:3]1([H:11])[C:4]([H:12])([H:13])[O:5][C@:6]1([C:7]([H:15])([H:16])[H:17])[H:14])([H:8])([H:9])[H:10]>>[C:1]([O:2][C@@:3]([C:4]([O:5][H:16])([H:12])[H:13])([C:6](=[C:7]([H:15])[H:17])[H:14])[H:11])([H:8])([H:9])[H:10]"
C        2.12961558       1.01018596      -0.34387878
O        0.72416647       0.98812970      -0.30423325
C        0.20135217      -0.30012255      -0.46419283
C        0.22916132      -1.20212630       0.77895044
O       -1.13934351      -1.58436938       0.83541587
C       -1.31083910      -0.25971485      -0.58094682
C       -2.08297512       0.67656327       0.13693556
H        2.57949336       0.40169694       0.44966795
H        2.50143613       0.65082040      -1.31223181
H        2.43925270       2.04542637      -0.20987658
H        0.64409957      -0.79107585      -1.34037281
H        0.53016230      -0.65579671       1.68107571
H        0.89868099      -2.05480735       0.65183830
H       -1.79044024      -0.89950553      -1.31434957
H       -3.04849751       0.93183557      -0.28478817
H       -1.94874599      -0.48293866       1.06080758
H       -1.55657911       1.52579897       0.56017922
17
Frame=7 idx=006657 GeodesicLength=0.48245445920012625 rxn_smarts="[C:1]([O:2][C@@:3]1([H:11])[C:4]([H:12])([H:13])[O:5][C@:6]1([C:7]([H:15])([H:16])[H:17])[H:14])([H:8])([H:9])[H:10]>>[C:1]([O:2][C@@:3]([C:4]([O:5][H:16])([H:12])[H:13])([C:6](=[C:7]([H:15])[H:17])[H:14])[H:11])([H:8])([H:9])[H:10]"
C        2.13022435       1.01017348      -0.34876472
O        0.72514862       0.98735446      -0.29615243
C        0.20185263      -0.30012459      -0.46064254
C        0.23011740      -1.20250212       0.78223379
O       -1.13635582      -1.59426690       0.83276281
C       -1.30908675      -0.25827766      -0.57917876
C       -2.08580535       0.67678394       0.13742013
H        2.58913286       0.39192330       0.43198449
H        2.49226387       0.66357642      -1.32544311
H        2.44097696       2.04380348      -0.20501658
H        0.64492331      -0.79155958      -1.33627520
H        0.51880777      -0.65235451       1.68600545
H        0.91061850      -2.04675235       0.65930712
H       -1.79003043      -0.89953863      -1.31074885
H       -3.03292583       0.95498583      -0.31157621
H       -1.97130752      -0.50604632       1.07700220
H       -1.55855459       1.52282175       0.56708243
17
Frame=8 idx=006657 GeodesicLength=0.5514054113599941 rxn_smarts="[C:1]([O:2][C@@:3]1([H:11])[C:4]([H:12])([H:13])[O:5][C@:6]1([C:7]([H:15])([H:16])[H:17])[H:14])([H:8])([H:9])[H:10]>>[C:1]([O:2][C@@:3]([C:4]([O:5][H:16])([H:12])[H:13])([C:6](=[C:7]([H:15])[H:17])[H:14])[H:11])([H:8])([H:9])[H:10]"
C        2.13075362       1.01021158      -0.35370111
O        0.72616385       0.98656253      -0.28823803
C        0.20238115      -0.30013974      -0.45718217
C        0.23096772      -1.20274902       0.78553815
O       -1.13342134      -1.60391151       0.83010994
C       -1.30729343      -0.25678647      -0.57761626
C       -2.08868706       0.67705189       0.13761992
H        2.59845716       0.38240036       0.41411039
H        2.48296246       0.67636716      -1.33837844
H        2.44277111       2.04210324      -0.20030213
H        0.64583465      -0.79215875      -1.33217699
H        0.50723205      -0.64880888       1.69082257
H        0.92230817      -2.03847247       0.66704899
H       -1.78962648      -0.89963203      -1.30720909
H       -3.01614435       0.97828926      -0.33762585
H       -1.99414534      -0.52994157       1.09311814
H       -1.56051394       1.51961441       0.57406199
17
Frame=9 idx=006657 GeodesicLength=0.6203927120023331 rxn_smarts="[C:1]([O:2][C@@:3]1([H:11])[C:4]([H:12])([H:13])[O:5][C@:6]1([C:7]([H:15])([H:16])[H:17])[H:14])([H:8])([H:9])[H:10]>>[C:1]([O:2][C@@:3]([C:4]([O:5][H:16])([H:12])[H:13])([C:6](=[C:7]([H:15])[H:17])[H:14])[H:11])([H:8])([H:9])[H:10]"
C        2.13123064       1.01028481      -0.35869072
O        0.72723349       0.98576341      -0.28048529
C        0.20293939      -0.30015290      -0.45380348
C        0.23171086      -1.20284916       0.78887166
O       -1.13053335      -1.61332410       0.82743131
C       -1.30545781      -0.25521622      -0.57623644
C       -2.09157916       0.67744621       0.13751914
H        2.60749838       0.37309700       0.39604870
H        2.47354721       0.68916627      -1.35106396
H        2.44467252       2.04031048      -0.19573808
H        0.64682346      -0.79286344      -1.32807177
H        0.49540417      -0.64513622       1.69553726
H        0.93376812      -2.02993058       0.67508130
H       -1.78924101      -0.89973495      -1.30372101
H       -2.99830298       1.00159769      -0.36290547
H       -2.01728097      -0.55469102       1.10912277
H       -1.56243296       1.51623271       0.58110409
17
Frame=10 idx=006657 GeodesicLength=0.6894067379541848 rxn_smarts="[C:1]([O:2][C@@:3]1([H:11])[C:4]([H:12])([H:13])[O:5][C@:6]1([C:7]([H:15])([H:16])[H:17])[H:14])([H:8])([H:9])[H:10]>>[C:1]([O:2][C@@:3]([C:4]([O:5][H:16])([H:12])[H:13])([C:6](=[C:7]([H:15])[H:17])[H:14])[H:11])([H:8])([H:9])[H:10]"
C        2.13164724       1.01039848      -0.36373155
O        0.72835017       0.98495649      -0.27289776
C        0.20352850      -0.30016680      -0.45051371
C        0.23234308      -1.20280800       0.79222714
O       -1.12770814      -1.62246726       0.82475775
C       -1.30357633      -0.25357502      -0.57506706
C       -2.09450140       0.67794657       0.13708106
H        2.61623979       0.36402542       0.37780678
H        2.46402754       0.70197950      -1.36348142
H        2.44666887       2.03843092      -0.19132547
H        0.64790053      -0.79367527      -1.32396268
H        0.48335430      -0.64134788       1.70013050
H        0.94496709      -2.02115385       0.68338763
H       -1.78885949      -0.89987933      -1.30029400
H       -2.97937601       1.02497507      -0.38739638
H       -2.04066016      -0.58030106       1.12509658
H       -1.56434558       1.51266200       0.58818258
17
Frame=11 idx=006657 GeodesicLength=0.7584362395320432 rxn_smarts="[C:1]([O:2][C@@:3]1([H:11])[C:4]([H:12])([H:13])[O:5][C@:6]1([C:7]([H:15])([H:16])[H:17])[H:14])([H:8])([H:9])[H:10]>>[C:1]([O:2][C@@:3]([C:4]([O:5][H:16])([H:12])[H:13])([C:6](=[C:7]([H:15])[H:17])[H:14])[H:11])([H:8])([H:9])[H:10]"
C        2.13201496       1.01054620      -0.36882398
O        0.72952053       0.98414796      -0.26547540
C        0.20414926      -0.30017439      -0.44731208
C        0.23286132      -1.20261722       0.79560632
O       -1.12494995      -1.63133643       0.82208731
C       -1.30164710      -0.25185183      -0.57410937
C       -2.09744131       0.67858048       0.13628838
H        2.62469282       0.35517308       0.35939170
H        2.45441599       0.71479430      -1.37564189
H        2.44877310       2.03646162      -0.18706753
H        0.64906465      -0.79459024      -1.31984793
H        0.47107754      -0.63743320       1.70459999
H        0.95590127      -2.01213327       0.69197199
H       -1.78848209      -0.90005167      -1.29692907
H       -2.95942333       1.04838267      -0.41108012
H       -2.06427288      -0.60681872       1.14106326
H       -1.56625477       1.50892067       0.59527842
17
Frame=12 idx=006657 GeodesicLength=0.8274837406335291 rxn_smarts="[C:1]([O:2][C@@:3]1([H:11])[C:4]([H:12])([H:13])[O:5][C@:6]1([C:7]([H:15])([H:16])[H:17])[H:14])([H:8])([H:9])[H:10]>>[C:1]([O:2][C@@:3]([C:4]([O:5][H:16])([H:12])[H:13])([C:6](=[C:7]([H:15])[H:17])[H:14])[H:11])([H:8])([H:9])[H:10]"
C        2.13234312       1.01072244      -0.37396769
O        0.73075216       0.98334206      -0.25822034
C        0.20480200      -0.30016863      -0.44419929
C        0.23326286      -1.20226979       0.79900822
O       -1.12226240      -1.63993032       0.81941405
C       -1.29966898      -0.25003543      -0.57336443
C       -2.10038460       0.67937994       0.13512189
H        2.63286059       0.34653638       0.34081596
H        2.44473089       0.72759008      -1.38754201
H        2.45099863       2.03439724      -0.18297619
H        0.65031389      -0.79560344      -1.31572774
H        0.45856812      -0.63338363       1.70894068
H        0.96656846      -2.00285996       0.70083468
H       -1.78811132      -0.90023576      -1.29362634
H       -2.93851731       1.07178159      -0.43394325
H       -2.08809990      -0.63429977       1.15705801
H       -1.56815620       1.50503702       0.60237378
17
Frame=13 idx=006657 GeodesicLength=0.8965467337003827 rxn_smarts="[C:1]([O:2][C@@:3]1([H:11])[C:4]([H:12])([H:13])[O:5][C@:6]1([C:7]([H:15])([H:16])[H:17])[H:14])([H:8])([H:9])[H:10]>>[C:1]([O:2][C@@:3]([C:4]([O:5][H:16])([H:12])[H:13])([C:6](=[C:7]([H:15])[H:17])[H:14])[H:11])([H:8])([H:9])[H:10]"
C        2.13263879       1.01092244      -0.37916662
O        0.73204784       0.98254515      -0.25113174
C        0.20548530      -0.30014376      -0.44117228
C        0.23354486      -1.20175724       0.80243743
O       -1.11964598      -1.64824916       0.81673777
C       -1.29764242      -0.24811850      -0.57282793
C       -2.10332007       0.68037141       0.13356826
H        2.64075210       0.33810368       0.32208393
H        2.43497869       0.74035656      -1.39919749
H        2.45335199       2.03223819      -0.17905898
H        0.65164399      -0.79671186      -1.31159809
H        0.44581956      -0.62918747       1.71315196
H        0.97696802      -1.99332133       0.70998293
H       -1.78775159      -0.90042043      -1.29038132
H       -2.91667851       1.09517559      -0.45599879
H       -2.11213454      -0.66282417       1.17310878
H       -1.57005802       1.50102089       0.60946217
17
Frame=14 idx=006657 GeodesicLength=0.965614227106545 rxn_smarts="[C:1]([O:2][C@@:3]1([H:11])[C:4]([H:12])([H:13])[O:5][C@:6]1([C:7]([H:15])([H:16])[H:17])[H:14])([H:8])([H:9])[H:10]>>[C:1]([O:2][C@@:3]([C:4]([O:5][H:16])([H:12])[H:13])([C:6](=[C:7]([H:15])[H:17])[H:14])[H:11])([H:8])([H:9])[H:10]"
C        2.13291147       1.01113955      -0.38442000
O        0.73341440       0.98176141      -0.24421474
C        0.20619874      -0.30009269      -0.43823323
C        0.23370426      -1.20107224       0.80589175
O       -1.11710488      -1.65629056       0.81405233
C       -1.29556701      -0.24608890      -0.57250178
C       -2.10623329       0.68158622       0.13161321
H        2.64836646       0.32987655       0.30321492
H        2.42518154       0.75306801      -1.41060159
H        2.45584536       2.02997940      -0.17533130
H        0.65305186      -0.79791066      -1.30746057
H        0.43282565      -0.62483553       1.71722665
H        0.98709603      -1.98350752       0.71941617
H       -1.78740675      -0.90058905      -1.28719297
H       -2.89397876       1.11853617      -0.47723819
H       -2.13635244      -0.69246349       1.18925482
H       -1.57195266       1.49690335       0.61652453
17
Frame=15 idx=006657 GeodesicLength=1.034673241105471 rxn_smarts="[C:1]([O:2][C@@:3]1([H:11])[C:4]([H:12])([H:13])[O:5][C@:6]1([C:7]([H:15])([H:16])[H:17])[H:14])([H:8])([H:9])[H:10]>>[C:1]([O:2][C@@:3]([C:4]([O:5][H:16])([H:12])[H:13])([C:6](=[C:7]([H:15])[H:17])[H:14])[H:11])([H:8])([H:9])[H:10]"
C        2.13316772       1.01136878      -0.38973094
O        0.73485512       0.98099624      -0.23747221
C        0.20694059      -0.30001001      -0.43538049
C        0.23373719      -1.20020499       0.80937529
O       -1.11463979      -1.66405580       0.81135432
C       -1.29344357      -0.24393863      -0.57238269
C       -2.10911124       0.68305390       0.12924424
H        2.65570907       0.32184742       0.28421781
H        2.41534936       0.76570875      -1.42176545
H        2.45848462       2.02762173      -0.17180612
H        0.65453284      -0.79919820      -1.30331190
H        0.41957555      -0.62031340       1.72116279
H        0.99695128      -1.97340288       0.72914354
H       -1.78708352      -0.90072879      -1.28405613
H       -2.87043830       1.14187075      -0.49767032
H       -2.16074539      -0.72331192       1.20552309
H       -1.57384153       1.49269704       0.62355517
17
Frame=16 idx=006657 GeodesicLength=1.103714708634649 rxn_smarts="[C:1]([O:2][C@@:3]1([H:11])[C:4]([H:12])([H:13])[O:5][C@:6]1([C:7]([H:15])([H:16])[H:17])[H:14])([H:8])([H:9])[H:10]>>[C:1]([O:2][C@@:3]([C:4]([O:5][H:16])([H:12])[H:13])([C:6](=[C:7]([H:15])[H:17])[H:14])[H:11])([H:8])([H:9])[H:10]"
C        2.13341668       1.01160285      -0.39510147
O        0.73637481       0.98025579      -0.23091142
C        0.20770844      -0.29988807      -0.43261526
C        0.23363961      -1.19914454       0.81288863
O       -1.11225206      -1.67154554       0.80863582
C       -1.29127400      -0.24165546      -0.57246806
C       -2.11193825       0.68481085       0.12644791
H        2.66278077       0.31401786       0.26511754
H        2.40550500       0.77824582      -1.43268733
H        2.46127804       2.02516466      -0.16850737
H        0.65608052      -0.80057062      -1.29915220
H        0.40605720      -0.61560704       1.72495476
H        1.00653148      -1.96299010       0.73917013
H       -1.78679093      -0.90082131      -1.28096572
H       -2.84610294       1.16517586      -0.51729310
H       -2.18529352      -0.75547872       1.22194567
H       -1.57572084       1.48842770       0.63054146
