14
Frame=0 idx=005250 GeodesicLength=0.0 rxn_smarts="[C:1]1([H:7])([H:8])[C@:2]2([H:9])[C@:3]3([H:10])[C:4]([H:11])([H:12])[C@@:5]1([H:13])[C@:6]23[H:14]>>[C:1]([C@@:2]1([H:9])[C@@:3]2([H:10])[C:4]([H:12])=[C:5]([H:13])[C@@:6]12[H:14])([H:7])([H:8])[H:11]"
C       -1.15794772      -0.31085092       0.58964941
C       -0.46195297       1.01460930       0.36256934
C        1.02722716       0.77608754      -0.01753813
C        1.53085948      -0.65587267      -0.03835530
C       -0.22592707      -0.87800554      -0.53827191
C       -0.03906903       0.59161116      -1.01949285
H       -2.18408096      -0.28031762       0.22224657
H       -1.12751101      -0.78992420       1.57347254
H       -0.80932024       1.98730022       0.68283069
H        1.68726795       1.63191144       0.00546825
H        0.53135277      -1.22044133       0.41261783
H        1.89257763      -1.11462619       0.90747450
H       -0.47660466      -1.74775774      -1.13266807
H       -0.18687137       0.99627653      -2.01000293
14
Frame=1 idx=005250 GeodesicLength=0.13864229063744152 rxn_smarts="[C:1]1([H:7])([H:8])[C@:2]2([H:9])[C@:3]3([H:10])[C:4]([H:11])([H:12])[C@@:5]1([H:13])[C@:6]23[H:14]>>[C:1]([C@@:2]1([H:9])[C@@:3]2([H:10])[C:4]([H:12])=[C:5]([H:13])[C@@:6]12[H:14])([H:7])([H:8])[H:11]"
C       -1.15587330      -0.31565552       0.59592858
C       -0.46241364       1.01023714       0.35912226
C        1.02588535       0.77555827      -0.01875298
C        1.51114799      -0.66289512      -0.04032178
C       -0.21016976      -0.87887596      -0.55781543
C       -0.03879129       0.59514462      -1.02536569
H       -2.18414671      -0.28702903       0.23387557
H       -1.13100653      -0.76943754       1.59165737
H       -0.81008622       1.98435104       0.67453046
H        1.68999995       1.62800196       0.00829950
H        0.51732498      -1.24749783       0.44394815
H        1.90233820      -1.09987667       0.90273493
H       -0.46717400      -1.74366757      -1.15711559
H       -0.18703504       1.01164220      -2.01072535
14
Frame=2 idx=005250 GeodesicLength=0.2771416798637014 rxn_smarts="[C:1]1([H:7])([H:8])[C@:2]2([H:9])[C@:3]3([H:10])[C:4]([H:11])([H:12])[C@@:5]1([H:13])[C@:6]23[H:14]>>[C:1]([C@@:2]1([H:9])[C@@:3]2([H:10])[C:4]([H:12])=[C:5]([H:13])[C@@:6]12[H:14])([H:7])([H:8])[H:11]"
C       -1.15335342      -0.32060608       0.60286476
C       -0.46295925       1.00578739       0.35547541
C        1.02455009       0.77526882      -0.02011801
C        1.49161439      -0.66941777      -0.04119150
C       -0.19401074      -0.87958640      -0.57771142
C       -0.03846110       0.59866694      -1.03134511
H       -2.18377904      -0.29420887       0.24623102
H       -1.13401031      -0.74795491       1.61022766
H       -0.81107597       1.98124667       0.66606047
H        1.69254939       1.62442423       0.01104715
H        0.50311691      -1.27490684       0.47370830
H        1.91016787      -1.08609838       0.89795341
H       -0.45725594      -1.73945804      -1.18174062
H       -0.18709287       1.02684323      -2.01146151
14
Frame=3 idx=005250 GeodesicLength=0.41557132332964886 rxn_smarts="[C:1]1([H:7])([H:8])[C@:2]2([H:9])[C@:3]3([H:10])[C:4]([H:11])([H:12])[C@@:5]1([H:13])[C@:6]23[H:14]>>[C:1]([C@@:2]1([H:9])[C@@:3]2([H:10])[C:4]([H:12])=[C:5]([H:13])[C@@:6]12[H:14])([H:7])([H:8])[H:11]"
C       -1.15042758      -0.32567006       0.61044625
C       -0.46359110       1.00125390       0.35163802
C        1.02321278       0.77517888      -0.02162757
C        1.47222334      -0.67549533      -0.04115864
C       -0.17748637      -0.88010131      -0.59801007
C       -0.03809196       0.60218568      -1.03742983
H       -2.18299687      -0.30181379       0.25925380
H       -1.13660214      -0.72552384       1.62906157
H       -0.81226189       1.97798626       0.65744913
H        1.69492565       1.62112651       0.01372783
H        0.48867891      -1.30268598       0.50221163
H        1.91632171      -1.07319446       0.89313384
H       -0.44682597      -1.73517469      -1.20650166
H       -0.18707851       1.04192821      -2.01219431
14
Frame=4 idx=005250 GeodesicLength=0.5539704365414553 rxn_smarts="[C:1]1([H:7])([H:8])[C@:2]2([H:9])[C@:3]3([H:10])[C:4]([H:11])([H:12])[C@@:5]1([H:13])[C@:6]23[H:14]>>[C:1]([C@@:2]1([H:9])[C@@:3]2([H:10])[C:4]([H:12])=[C:5]([H:13])[C@@:6]12[H:14])([H:7])([H:8])[H:11]"
C       -1.14713099      -0.33081442       0.61866357
C       -0.46431217       0.99663194       0.34761809
C        1.02186497       0.77525331      -0.02327571
C        1.45293082      -0.68117947      -0.04038183
C       -0.16061778      -0.88038500      -0.61874793
C       -0.03769660       0.60570922      -1.04361942
H       -2.18181672      -0.30980655       0.27288452
H       -1.13885463      -0.70220053       1.64804496
H       -0.81362150       1.97456986       0.64872074
H        1.69713878       1.61806182       0.01635780
H        0.47397396      -1.33083566       0.52974541
H        1.92102981      -1.06108652       0.88825249
H       -0.43586898      -1.73085606      -1.23135298
H       -0.18701895       1.05693806      -2.01290970
14
Frame=5 idx=005250 GeodesicLength=0.6924018202818512 rxn_smarts="[C:1]1([H:7])([H:8])[C@:2]2([H:9])[C@:3]3([H:10])[C:4]([H:11])([H:12])[C@@:5]1([H:13])[C@:6]23[H:14]>>[C:1]([C@@:2]1([H:9])[C@@:3]2([H:10])[C:4]([H:12])=[C:5]([H:13])[C@@:6]12[H:14])([H:7])([H:8])[H:11]"
C       -1.14350402      -0.33600426       0.62750337
C       -0.46512539       0.99191485       0.34342172
C        1.02049731       0.77545287      -0.02505915
C        1.43368262      -0.68652432      -0.03899801
C       -0.14341565      -0.88040308      -0.63996500
C       -0.03728908       0.60924925      -1.04991494
H       -2.18026001      -0.31814987       0.28705507
H       -1.14083597      -0.67806265       1.66707151
H       -0.81512854       1.97099583       0.63990127
H        1.69919908       1.61517573       0.01895005
H        0.45896971      -1.35932382       0.55661453
H        1.92451721      -1.04970172       0.88325556
H       -0.42436909      -1.72653573      -1.25624279
H       -0.18693817       1.07191691      -2.01359317
14
Frame=6 idx=005250 GeodesicLength=0.8309057110447895 rxn_smarts="[C:1]1([H:7])([H:8])[C@:2]2([H:9])[C@:3]3([H:10])[C:4]([H:11])([H:12])[C@@:5]1([H:13])[C@:6]23[H:14]>>[C:1]([C@@:2]1([H:9])[C@@:3]2([H:10])[C:4]([H:12])=[C:5]([H:13])[C@@:6]12[H:14])([H:7])([H:8])[H:11]"
C       -1.13957193      -0.34121224       0.63695788
C       -0.46603625       0.98709641       0.33905771
C        1.01910129       0.77575127      -0.02696932
C        1.41441986      -0.69157931      -0.03712562
C       -0.12586257      -0.88012561      -0.66169022
C       -0.03688003       0.61282116      -1.05631457
H       -2.17833316      -0.32682550       0.30170669
H       -1.14262252      -0.65315416       1.68603941
H       -0.81676906       1.96726176       0.63101685
H        1.70111576       1.61242775       0.02152565
H        0.44364990      -1.38809875       0.58312097
H        1.92696680      -1.03900662       0.87805030
H       -0.41232076      -1.72224943      -1.28114297
H       -0.18685731       1.08689327      -2.01423275
14
Frame=7 idx=005250 GeodesicLength=0.969522123813148 rxn_smarts="[C:1]1([H:7])([H:8])[C@:2]2([H:9])[C@:3]3([H:10])[C:4]([H:11])([H:12])[C@@:5]1([H:13])[C@:6]23[H:14]>>[C:1]([C@@:2]1([H:9])[C@@:3]2([H:10])[C:4]([H:12])=[C:5]([H:13])[C@@:6]12[H:14])([H:7])([H:8])[H:11]"
C       -1.13536391      -0.34641199       0.64701702
C       -0.46705071       0.98216722       0.33453290
C        1.01766870       0.77611694      -0.02899704
C        1.39507969      -0.69639589      -0.03487350
C       -0.10793508      -0.87952330      -0.68395601
C       -0.03648014       0.61643911      -1.06281722
H       -2.17604726      -0.33581564       0.31677830
H       -1.14429901      -0.62753411       1.70484559
H       -0.81852726       1.96336268       0.62209339
H        1.70289792       1.60977186       0.02410591
H        0.42801334      -1.41708195       0.60958804
H        1.92856156      -1.02897111       0.87251883
H       -0.39972555      -1.71802339      -1.30602173
H       -0.18679228       1.10189957      -2.01481448
14
Frame=8 idx=005250 GeodesicLength=1.1082497525454986 rxn_smarts="[C:1]1([H:7])([H:8])[C@:2]2([H:9])[C@:3]3([H:10])[C:4]([H:11])([H:12])[C@@:5]1([H:13])[C@:6]23[H:14]>>[C:1]([C@@:2]1([H:9])[C@@:3]2([H:10])[C:4]([H:12])=[C:5]([H:13])[C@@:6]12[H:14])([H:7])([H:8])[H:11]"
C       -1.13091438      -0.35157887       0.65766811
C       -0.46817650       0.97711502       0.32985013
C        1.01619027       0.77651684      -0.03113182
C        1.37560660      -0.70101976      -0.03234060
C       -0.08959627      -0.87856755      -0.70679739
C       -0.03609743       0.62011492      -1.06942271
H       -2.17342062      -0.34510547       0.33220480
H       -1.14593636      -0.60126763       1.72341573
H       -0.82038986       1.95929060       0.61314910
H        1.70455082       1.60716074       0.02671571
H        0.41205835      -1.44618208       0.63632465
H        1.92946637      -1.01957664       0.86653145
H       -0.38658941      -1.71386994      -1.33084218
H       -0.18675159       1.11696980      -2.01532498
14
Frame=9 idx=005250 GeodesicLength=1.2469289597144546 rxn_smarts="[C:1]1([H:7])([H:8])[C@:2]2([H:9])[C@:3]3([H:10])[C:4]([H:11])([H:12])[C@@:5]1([H:13])[C@:6]23[H:14]>>[C:1]([C@@:2]1([H:9])[C@@:3]2([H:10])[C:4]([H:12])=[C:5]([H:13])[C@@:6]12[H:14])([H:7])([H:8])[H:11]"
C       -1.12625726      -0.35664850       0.66892225
C       -0.46943030       0.97192684       0.32500017
C        1.01465587       0.77693542      -0.03335333
C        1.35595092      -0.70548026      -0.02962848
C       -0.07074895      -0.87725259      -0.73020230
C       -0.03573049       0.62385842      -1.07613378
H       -2.17045427      -0.35469746       0.34793681
H       -1.14752599      -0.57444543       1.74172885
H       -0.82235287       1.95504356       0.60417052
H        1.70606983       1.60457021       0.02939188
H        0.39575235      -1.47533177       0.66348743
H        1.92973437      -1.01081999       0.86000378
H       -0.37293352      -1.70976861      -1.35555750
H       -0.18672969       1.13211015      -2.01576631
14
Frame=10 idx=005250 GeodesicLength=1.3857209065511795 rxn_smarts="[C:1]1([H:7])([H:8])[C@:2]2([H:9])[C@:3]3([H:10])[C:4]([H:11])([H:12])[C@@:5]1([H:13])[C@:6]23[H:14]>>[C:1]([C@@:2]1([H:9])[C@@:3]2([H:10])[C:4]([H:12])=[C:5]([H:13])[C@@:6]12[H:14])([H:7])([H:8])[H:11]"
C       -1.12141014      -0.36165022       0.68074216
C       -0.47081748       0.96657800       0.31999656
C        1.01305629       0.77732402      -0.03564813
C        1.33604681      -0.70983921      -0.02682708
C       -0.05139094      -0.87552218      -0.75426789
C       -0.03538838       0.62768330      -1.08294646
H       -2.16716563      -0.36459006       0.36391047
H       -1.14925288      -0.54706186       1.75965396
H       -0.82440926       1.95059395       0.59520760
H        1.70746252       1.60193558       0.03216900
H        0.37917166      -1.50437243       0.69160235
H        1.92961077      -1.00271111       0.85268962
H       -0.35878284      -1.70574719      -1.38017562
H       -0.18673050       1.14737940      -2.01610654
14
Frame=11 idx=005250 GeodesicLength=1.524605278996665 rxn_smarts="[C:1]1([H:7])([H:8])[C@:2]2([H:9])[C@:3]3([H:10])[C:4]([H:11])([H:12])[C@@:5]1([H:13])[C@:6]23[H:14]>>[C:1]([C@@:2]1([H:9])[C@@:3]2([H:10])[C:4]([H:12])=[C:5]([H:13])[C@@:6]12[H:14])([H:7])([H:8])[H:11]"
C       -1.11640501      -0.36657722       0.69310749
C       -0.47235647       0.96104382       0.31483500
C        1.01137844       0.77764463      -0.03799167
C        1.31582802      -0.71414890      -0.02401902
C       -0.03146220      -0.87333702      -0.77904517
C       -0.03506925       0.63160010      -1.08986074
H       -2.16357057      -0.37479992       0.38005645
H       -1.15121880      -0.51914187       1.77713842
H       -0.82656244       1.94592084       0.58627288
H        1.70872699       1.59920511       0.03509917
H        0.36235710      -1.53316200       0.72106775
H        1.92926108      -0.99527436       0.84435318
H       -0.34417069      -1.70178873      -1.40468672
H       -0.18673620       1.16281552      -2.01632703
14
Frame=12 idx=005250 GeodesicLength=1.6635595423389258 rxn_smarts="[C:1]1([H:7])([H:8])[C@:2]2([H:9])[C@:3]3([H:10])[C:4]([H:11])([H:12])[C@@:5]1([H:13])[C@:6]23[H:14]>>[C:1]([C@@:2]1([H:9])[C@@:3]2([H:10])[C:4]([H:12])=[C:5]([H:13])[C@@:6]12[H:14])([H:7])([H:8])[H:11]"
C       -1.11126891      -0.37143257       0.70600077
C       -0.47406814       0.95529009       0.30951089
C        1.00960756       0.77785501      -0.04035608
C        1.29522292      -0.71846674      -0.02129456
C       -0.01087944      -0.87065800      -0.80459741
C       -0.03476994       0.63562180      -1.09687763
H       -2.15967795      -0.38536282       0.39630148
H       -1.15354539      -0.49068884       1.79412563
H       -0.82882037       1.94099274       0.57738058
H        1.70985803       1.59632110       0.03824606
H        0.34538669      -1.56151035       0.75233273
H        1.92882560      -0.98856424       0.83472192
H       -0.32914697      -1.69785857      -1.42908895
H       -0.18672368       1.17846140      -2.01640541
14
Frame=13 idx=005250 GeodesicLength=1.802514028995294 rxn_smarts="[C:1]1([H:7])([H:8])[C@:2]2([H:9])[C@:3]3([H:10])[C:4]([H:11])([H:12])[C@@:5]1([H:13])[C@:6]23[H:14]>>[C:1]([C@@:2]1([H:9])[C@@:3]2([H:10])[C:4]([H:12])=[C:5]([H:13])[C@@:6]12[H:14])([H:7])([H:8])[H:11]"
C       -1.10603158      -0.37621695       0.71940476
C       -0.47597500       0.94928390       0.30401521
C        1.00772956       0.77791534      -0.04270920
C        1.27416599      -0.72284534      -0.01874332
C        0.01044826      -0.86744096      -0.83098032
C       -0.03448258       0.63975708      -1.10399741
H       -2.15549929      -0.39631488       0.41257304
H       -1.15634256      -0.46172341       1.81056314
H       -0.83119482       1.93577984       0.56853475
H        1.71084852       1.59323013       0.04167862
H        0.32833574      -1.58923132       0.78584469
H        1.92842658      -0.98264428       0.82350944
H       -0.31376589      -1.69390645      -1.45337367
H       -0.18666294       1.19435732      -2.01631971
14
Frame=14 idx=005250 GeodesicLength=1.9414345757970963 rxn_smarts="[C:1]1([H:7])([H:8])[C@:2]2([H:9])[C@:3]3([H:10])[C:4]([H:11])([H:12])[C@@:5]1([H:13])[C@:6]23[H:14]>>[C:1]([C@@:2]1([H:9])[C@@:3]2([H:10])[C:4]([H:12])=[C:5]([H:13])[C@@:6]12[H:14])([H:7])([H:8])[H:11]"
C       -1.10072175      -0.38094932       0.73329967
C       -0.47810535       0.94297628       0.29833585
C        1.00572644       0.77777011      -0.04501513
C        1.25256781      -0.72735866      -0.01646480
C        0.03263093      -0.86363469      -0.85827287
C       -0.03419728       0.64402007      -1.11122260
H       -2.15103928      -0.40772420       0.42878506
H       -1.15976734      -0.43223819       1.82638018
H       -0.83370016       1.93023584       0.55974846
H        1.71169000       1.58985602       0.04548604
H        0.31135485      -1.61603975       0.82217825
H        1.92817955      -0.97761850       0.81035341
H       -0.29810524      -1.68985407      -1.47755218
H       -0.18651320       1.21055906      -2.01603934
14
Frame=15 idx=005250 GeodesicLength=2.080254009877768 rxn_smarts="[C:1]1([H:7])([H:8])[C@:2]2([H:9])[C@:3]3([H:10])[C:4]([H:11])([H:12])[C@@:5]1([H:13])[C@:6]23[H:14]>>[C:1]([C@@:2]1([H:9])[C@@:3]2([H:10])[C:4]([H:12])=[C:5]([H:13])[C@@:6]12[H:14])([H:7])([H:8])[H:11]"
C       -1.09536933      -0.38564534       0.74766889
C       -0.48048880       0.93631842       0.29245488
C        1.00358018       0.77736558      -0.04723514
C        1.23034511      -0.73207669      -0.01456841
C        0.05579348      -0.85918069      -0.88654836
C       -0.03389977       0.64842079      -1.11855634
H       -2.14630313      -0.41966367       0.44485406
H       -1.16396218      -0.40223956       1.84151384
H       -0.83635474       1.92431473       0.55102212
H        1.71237104       1.58612517       0.04976156
H        0.29459421      -1.64166144       0.86189507
H        1.92817166      -0.97360031       0.79489826
H       -0.28225045      -1.68559535      -1.50162706
H       -0.18622728       1.22711837      -2.01553339
14
Frame=16 idx=005250 GeodesicLength=2.2189195459163944 rxn_smarts="[C:1]1([H:7])([H:8])[C@:2]2([H:9])[C@:3]3([H:10])[C:4]([H:11])([H:12])[C@@:5]1([H:13])[C@:6]23[H:14]>>[C:1]([C@@:2]1([H:9])[C@@:3]2([H:10])[C:4]([H:12])=[C:5]([H:13])[C@@:6]12[H:14])([H:7])([H:8])[H:11]"
C       -1.09000236      -0.39033269       0.76249747
C       -0.48315838       0.92924969       0.28635085
C        1.00127025       0.77663430      -0.04932723
C        1.20739752      -0.73708611      -0.01318191
C        0.08007941      -0.85401300      -0.91589201
C       -0.03357305       0.65297024      -1.12600291
H       -2.14128983      -0.43223161       0.46069277
H       -1.16909405      -0.37172603       1.85588038
H       -0.83917780       1.91795844       0.54235843
H        1.71287906       1.58194459       0.05461443
H        0.27826602      -1.66573539       0.90564734
H        1.92845833      -0.97073886       0.77675050
H       -0.26630457      -1.68099096      -1.52562455
H       -0.18575056       1.24409741      -2.01476357
