17
Frame=0 idx=010577 GeodesicLength=0.0 rxn_smarts="[C:1]([C@@:2]1([H:11])[C:3]([H:12])([H:13])[C@:4]1([C:5]([C:6]#[C:7][H:17])([H:15])[H:16])[H:14])([H:8])([H:9])[H:10]>>[C:1]([C:2](/[C:3](=[C:4](\[C:5]([C:6]#[C:7][H:17])([H:15])[H:16])[H:14])[H:13])([H:11])[H:12])([H:8])([H:9])[H:10]"
C       -1.95260280       1.54724554       0.01438366
C       -1.13491346       0.32349182       0.17997255
C       -0.82729660      -0.55535376      -0.90328929
C        0.59940841      -0.90294787      -1.09020473
C        1.68867956      -0.15508371      -0.39222893
C        1.96757533      -0.57880282       0.98749645
C        2.16354484      -0.94948498       2.11075634
H       -2.39848570       1.87606066       0.95390909
H       -1.35685820       2.38873656      -0.36850333
H       -2.74633209       1.38250659      -0.72340102
H       -0.65489521       0.13055841       1.13220531
H       -1.13979120      -1.54672148      -0.49459339
H       -1.41623378      -0.40364640      -1.81691450
H        0.82834732      -1.92829837      -1.36892889
H        1.41787119       0.91073892      -0.36319990
H        2.61674800      -0.26293235      -0.96450267
H        2.34523432      -1.27606673       3.10704317
17
Frame=1 idx=010577 GeodesicLength=0.10834512072363806 rxn_smarts="[C:1]([C@@:2]1([H:11])[C:3]([H:12])([H:13])[C@:4]1([C:5]([C:6]#[C:7][H:17])([H:15])[H:16])[H:14])([H:8])([H:9])[H:10]>>[C:1]([C:2](/[C:3](=[C:4](\[C:5]([C:6]#[C:7][H:17])([H:15])[H:16])[H:14])[H:13])([H:11])[H:12])([H:8])([H:9])[H:10]"
C       -1.93791363       1.54010454       0.01425760
C       -1.14472685       0.29645204       0.16717417
C       -0.83926422      -0.55765568      -0.93804352
C        0.58315073      -0.91869136      -1.05281140
C        1.67797445      -0.14987550      -0.38790706
C        1.98108092      -0.55569203       0.99168105
C        2.20679732      -0.91693013       2.11237116
H       -2.42991359       1.83184671       0.94306618
H       -1.31261773       2.38928597      -0.29607585
H       -2.69570939       1.42666064      -0.76916616
H       -0.69677156       0.07775429       1.12931547
H       -1.21230664      -1.53117578      -0.49717360
H       -1.39342382      -0.37710417      -1.86581372
H        0.81387996      -1.94971525      -1.30783986
H        1.40389374       0.91452757      -0.36814792
H        2.59655752      -0.25731105      -0.97513981
H        2.39931277      -1.26248083       3.10025328
17
Frame=2 idx=010577 GeodesicLength=0.21644866750135433 rxn_smarts="[C:1]([C@@:2]1([H:11])[C:3]([H:12])([H:13])[C@:4]1([C:5]([C:6]#[C:7][H:17])([H:15])[H:16])[H:14])([H:8])([H:9])[H:10]>>[C:1]([C:2](/[C:3](=[C:4](\[C:5]([C:6]#[C:7][H:17])([H:15])[H:16])[H:14])[H:13])([H:11])[H:12])([H:8])([H:9])[H:10]"
C       -1.92369013       1.53236435       0.01366084
C       -1.15485093       0.26991341       0.15508720
C       -0.84986004      -0.56087141      -0.97002319
C        0.56595663      -0.93192476      -1.01498706
C        1.66715726      -0.14488261      -0.38322125
C        1.99462028      -0.53389446       0.99524919
C        2.24962211      -0.88710903       2.11216578
H       -2.46229074       1.79027423       0.92660642
H       -1.27232221       2.38473939      -0.22379146
H       -2.64164054       1.46969676      -0.81150874
H       -0.73818637       0.02849611       1.12576653
H       -1.28423253      -1.51387590      -0.50125718
H       -1.36781931      -0.35198283      -1.91062486
H        0.79828151      -1.96776075      -1.24786818
H        1.39060679       0.91823025      -0.37167630
H        2.57553309      -0.25279527      -0.98581013
H        2.45311513      -1.24861751       3.09223239
17
Frame=3 idx=010577 GeodesicLength=0.3243736644780397 rxn_smarts="[C:1]([C@@:2]1([H:11])[C:3]([H:12])([H:13])[C@:4]1([C:5]([C:6]#[C:7][H:17])([H:15])[H:16])[H:14])([H:8])([H:9])[H:10]>>[C:1]([C:2](/[C:3](=[C:4](\[C:5]([C:6]#[C:7][H:17])([H:15])[H:16])[H:14])[H:13])([H:11])[H:12])([H:8])([H:9])[H:10]"
C       -1.91000709       1.52430951       0.01231304
C       -1.16558707       0.24395492       0.14351185
C       -0.85930882      -0.56494562      -0.99953233
C        0.54790793      -0.94262759      -0.97711550
C        1.65603443      -0.14015662      -0.37777968
C        2.00780226      -0.51427769       0.99844343
C        2.29117497      -0.86106390       2.11048111
H       -2.49548131       1.75176496       0.90437167
H       -1.23608029       2.37567604      -0.15202735
H       -2.58417280       1.51166645      -0.85084040
H       -0.77979810      -0.01755592       1.12169967
H       -1.35548659      -1.49479347      -0.50670194
H       -1.34005806      -0.32873367      -1.95149392
H        0.78180628      -1.98243209      -1.18969081
H        1.37774704       0.92180061      -0.37294817
H        2.55363605      -0.24891863      -0.99592778
H        2.50987116      -1.23366728       3.08323712
17
Frame=4 idx=010577 GeodesicLength=0.4321515127205127 rxn_smarts="[C:1]([C@@:2]1([H:11])[C:3]([H:12])([H:13])[C@:4]1([C:5]([C:6]#[C:7][H:17])([H:15])[H:16])[H:14])([H:8])([H:9])[H:10]>>[C:1]([C:2](/[C:3](=[C:4](\[C:5]([C:6]#[C:7][H:17])([H:15])[H:16])[H:14])[H:13])([H:11])[H:12])([H:8])([H:9])[H:10]"
C       -1.89677375       1.51604595       0.01022988
C       -1.17681777       0.21863835       0.13253555
C       -0.86765227      -0.57001579      -1.02651515
C        0.52927811      -0.95093450      -0.93935085
C        1.64470620      -0.13539125      -0.37174651
C        2.02107550      -0.49660089       1.00104366
C        2.33215102      -0.83828773       2.10719434
H       -2.52883531       1.71667724       0.87668276
H       -1.20405112       2.36255045      -0.08139454
H       -2.52357462       1.55210644      -0.88695315
H       -0.82151789      -0.06048512       1.11739128
H       -1.42576847      -1.47400531      -0.51286173
H       -1.31078311      -0.30805666      -1.98826050
H        0.76494870      -1.99396047      -1.13333439
H        1.36517217       0.92551109      -0.37207298
H        2.53092022      -0.24499851      -1.00575182
H        2.56752237      -1.21879332       3.07316414
17
Frame=5 idx=010577 GeodesicLength=0.5398009021994877 rxn_smarts="[C:1]([C@@:2]1([H:11])[C:3]([H:12])([H:13])[C@:4]1([C:5]([C:6]#[C:7][H:17])([H:15])[H:16])[H:14])([H:8])([H:9])[H:10]>>[C:1]([C:2](/[C:3](=[C:4](\[C:5]([C:6]#[C:7][H:17])([H:15])[H:16])[H:14])[H:13])([H:11])[H:12])([H:8])([H:9])[H:10]"
C       -1.88386760       1.50760941       0.00754745
C       -1.18835531       0.19397785       0.12220474
C       -0.87489406      -0.57616256      -1.05103108
C        0.51032659      -0.95701485      -0.90183293
C        1.63328725      -0.13038369      -0.36528815
C        2.03484282      -0.48068018       1.00281588
C        2.37295984      -0.81855193       2.10214201
H       -2.56152535       1.68516502       0.84417309
H       -1.17635532       2.34587728      -0.01248894
H       -2.46027595       1.59049429      -0.91949908
H       -0.86323308      -0.10053635       1.11300609
H       -1.49493563      -1.45150053      -0.51942812
H       -1.28047235      -0.29032537      -2.02098462
H        0.74811549      -2.00262053      -1.07874937
H        1.35281863       0.92953875      -0.36916722
H        2.50744196      -0.24053494      -1.01552267
H        2.62412208      -1.20435168       3.06210291
17
Frame=6 idx=010577 GeodesicLength=0.6473853908877629 rxn_smarts="[C:1]([C@@:2]1([H:11])[C:3]([H:12])([H:13])[C@:4]1([C:5]([C:6]#[C:7][H:17])([H:15])[H:16])[H:14])([H:8])([H:9])[H:10]>>[C:1]([C:2](/[C:3](=[C:4](\[C:5]([C:6]#[C:7][H:17])([H:15])[H:16])[H:14])[H:13])([H:11])[H:12])([H:8])([H:9])[H:10]"
C       -1.87128430       1.49912164       0.00413080
C       -1.20040465       0.16993624       0.11242774
C       -0.88117903      -0.58341984      -1.07324447
C        0.49112825      -0.96106748      -0.86449472
C        1.62164816      -0.12503076      -0.35818520
C        2.04894357      -0.46640843       1.00399322
C        2.41337232      -0.80150341       2.09567923
H       -2.59342343       1.65736058       0.80684440
H       -1.15289204       2.32609059       0.05457862
H       -2.39426135       1.62679856      -0.94883460
H       -0.90538841      -0.13801439       1.10858358
H       -1.56314440      -1.42722048      -0.52647429
H       -1.24947949      -0.27574999      -2.04997938
H        0.73152521      -2.00866937      -1.02574074
H        1.34043910       0.93396979      -0.36403924
H        2.48312784      -0.23520971      -1.02493054
H        2.68127264      -1.19098353       3.04968562
17
Frame=7 idx=010577 GeodesicLength=0.7549436965314755 rxn_smarts="[C:1]([C@@:2]1([H:11])[C:3]([H:12])([H:13])[C@:4]1([C:5]([C:6]#[C:7][H:17])([H:15])[H:16])[H:14])([H:8])([H:9])[H:10]>>[C:1]([C:2](/[C:3](=[C:4](\[C:5]([C:6]#[C:7][H:17])([H:15])[H:16])[H:14])[H:13])([H:11])[H:12])([H:8])([H:9])[H:10]"
C       -1.85891158       1.49057593       0.00011546
C       -1.21291474       0.14643736       0.10318596
C       -0.88652995      -0.59181153      -1.09329794
C        0.47181138      -0.96329445      -0.82735606
C        1.60981088      -0.11924653      -0.35049719
C        2.06352477      -0.45360020       1.00448486
C        2.45361098      -0.78690830       2.08774752
H       -2.62395462       1.63322476       0.76522766
H       -1.13358485       2.30358366       0.11956103
H       -2.32581888       1.66071649      -0.97477214
H       -0.94804248      -0.17327507       1.10413176
H       -1.63044181      -1.40105810      -0.53412745
H       -1.21806478      -0.26438139      -2.07550203
H        0.71536986      -2.01238931      -0.97409389
H        1.32795630       0.93886862      -0.35677812
H        2.45796560      -0.22878388      -1.03404406
H        2.73821392      -1.17865807       3.03601462
17
Frame=8 idx=010577 GeodesicLength=0.8625193465549806 rxn_smarts="[C:1]([C@@:2]1([H:11])[C:3]([H:12])([H:13])[C@:4]1([C:5]([C:6]#[C:7][H:17])([H:15])[H:16])[H:14])([H:8])([H:9])[H:10]>>[C:1]([C:2](/[C:3](=[C:4](\[C:5]([C:6]#[C:7][H:17])([H:15])[H:16])[H:14])[H:13])([H:11])[H:12])([H:8])([H:9])[H:10]"
C       -1.84667884       1.48197557      -0.00442489
C       -1.22591562       0.12340061       0.09443450
C       -0.89098514      -0.60136613      -1.11132758
C        0.45245208      -0.96388332      -0.79037896
C        1.59775179      -0.11295955      -0.34221527
C        2.07860225      -0.44204048       1.00429392
C        2.49374838      -0.77442438       2.07840762
H       -2.65272595       1.61268657       0.71972519
H       -1.11831097       2.27871887       0.18230821
H       -2.25515795       1.69205823      -0.99729361
H       -0.99134023      -0.20663448       1.09962060
H       -1.69688486      -1.37288977      -0.54257250
H       -1.18643124      -0.25624423      -2.09783859
H        0.69977435      -2.01403659      -0.92352327
H        1.31527278       0.94429009      -0.34745049
H        2.43192278      -0.22108858      -1.04282620
H        2.79490641      -1.16756245       3.02106133
17
Frame=9 idx=010577 GeodesicLength=0.9701219783108985 rxn_smarts="[C:1]([C@@:2]1([H:11])[C:3]([H:12])([H:13])[C@:4]1([C:5]([C:6]#[C:7][H:17])([H:15])[H:16])[H:14])([H:8])([H:9])[H:10]>>[C:1]([C:2](/[C:3](=[C:4](\[C:5]([C:6]#[C:7][H:17])([H:15])[H:16])[H:14])[H:13])([H:11])[H:12])([H:8])([H:9])[H:10]"
C       -1.83437774       1.47321724      -0.00912416
C       -1.23921320       0.10069383       0.08617566
C       -0.89451840      -0.61207954      -1.12751429
C        0.43315795      -0.96301400      -0.75376106
C        1.58556913      -0.10620401      -0.33357897
C        2.09440257      -0.43175422       1.00308305
C        2.53392388      -0.76428252       2.06734019
H       -2.67891350       1.59547842       0.67141286
H       -1.10676518       2.25188477       0.24255743
H       -2.18282714       1.72043801      -1.01593399
H       -1.03509442      -0.23852977       1.09497344
H       -1.76243259      -1.34253827      -0.55207565
H       -1.15475005      -0.25117125      -2.11725073
H        0.68481437      -2.01386720      -0.87407305
H        1.30247087       0.95019660      -0.33622280
H        2.40502545      -0.21204166      -1.05156434
H        2.84952800      -1.15642642       3.00555642
17
Frame=10 idx=010577 GeodesicLength=1.077814654873371 rxn_smarts="[C:1]([C@@:2]1([H:11])[C:3]([H:12])([H:13])[C@:4]1([C:5]([C:6]#[C:7][H:17])([H:15])[H:16])[H:14])([H:8])([H:9])[H:10]>>[C:1]([C:2](/[C:3](=[C:4](\[C:5]([C:6]#[C:7][H:17])([H:15])[H:16])[H:14])[H:13])([H:11])[H:12])([H:8])([H:9])[H:10]"
C       -1.82206960       1.46434635      -0.01415792
C       -1.25303910       0.07828381       0.07828750
C       -0.89721354      -0.62400234      -1.14191158
C        0.41390096      -0.96081144      -0.71726723
C        1.57310850      -0.09887930      -0.32435179
C        2.11063565      -0.42236251       1.00113949
C        2.57389842      -0.75585427       2.05487907
H       -2.70263147       1.58158914       0.62009614
H       -1.09886853       2.22328505       0.30039154
H       -2.10872964       1.74589321      -1.03109922
H       -1.07967626      -0.26907493       1.09009041
H       -1.82707846      -1.30985001      -0.56278071
H       -1.12313543      -0.24927512      -2.13398115
H        0.67053742      -2.01201503      -0.82521707
H        1.28933870       0.95665235      -0.32306690
H        2.37717717      -0.20154597      -1.05987255
H        2.90384520      -1.14637898       2.98882196
17
Frame=11 idx=010577 GeodesicLength=1.18566141260196 rxn_smarts="[C:1]([C@@:2]1([H:11])[C:3]([H:12])([H:13])[C@:4]1([C:5]([C:6]#[C:7][H:17])([H:15])[H:16])[H:14])([H:8])([H:9])[H:10]>>[C:1]([C:2](/[C:3](=[C:4](\[C:5]([C:6]#[C:7][H:17])([H:15])[H:16])[H:14])[H:13])([H:11])[H:12])([H:8])([H:9])[H:10]"
C       -1.80971409       1.45533495      -0.01948713
C       -1.26746620       0.05610865       0.07064526
C       -0.89908760      -0.63712623      -1.15465376
C        0.39464424      -0.95739701      -0.68083894
C        1.56029000      -0.09101034      -0.31440078
C        2.12710494      -0.41377314       0.99859708
C        2.61333757      -0.74919910       2.04119913
H       -2.72358863       1.57087105       0.56611569
H       -1.09445577       2.19317020       0.35569830
H       -2.03311027       1.76827780      -1.04278656
H       -1.12526555      -0.29850145       1.08479492
H       -1.89075589      -1.27460366      -0.57501549
H       -1.09159724      -0.25043835      -2.14829075
H        0.65687836      -2.00863261      -0.77665800
H        1.27581127       0.96361216      -0.30791504
H        2.34833158      -0.18960252      -1.06750805
H        2.95864330      -1.13709040       2.97050412
17
Frame=12 idx=010577 GeodesicLength=1.2937100246441882 rxn_smarts="[C:1]([C@@:2]1([H:11])[C:3]([H:12])([H:13])[C@:4]1([C:5]([C:6]#[C:7][H:17])([H:15])[H:16])[H:14])([H:8])([H:9])[H:10]>>[C:1]([C:2](/[C:3](=[C:4](\[C:5]([C:6]#[C:7][H:17])([H:15])[H:16])[H:14])[H:13])([H:11])[H:12])([H:8])([H:9])[H:10]"
C       -1.79723527       1.44614020      -0.02496684
C       -1.28245535       0.03409447       0.06325267
C       -0.90014192      -0.65155563      -1.16575504
C        0.37543020      -0.95287886      -0.64446163
C        1.54713788      -0.08249979      -0.30388712
C        2.14387794      -0.40562261       0.99528059
C        2.65250544      -0.74381482       2.02611371
H       -2.74151559       1.56311059       0.50995282
H       -1.09332188       2.16181966       0.40848707
H       -1.95616195       1.78743633      -1.05094668
H       -1.17176357      -0.32694644       1.07906339
H       -1.95321191      -1.23673976      -0.58877763
H       -1.06024917      -0.25473273      -2.16033651
H        0.64388960      -2.00386906      -0.72811358
H        1.26187803       0.97116578      -0.29106041
H        2.31847479      -0.17613732      -1.07464145
H        3.01286273      -1.12897000       2.95079666
17
Frame=13 idx=010577 GeodesicLength=1.4020034237666243 rxn_smarts="[C:1]([C@@:2]1([H:11])[C:3]([H:12])([H:13])[C@:4]1([C:5]([C:6]#[C:7][H:17])([H:15])[H:16])[H:14])([H:8])([H:9])[H:10]>>[C:1]([C:2](/[C:3](=[C:4](\[C:5]([C:6]#[C:7][H:17])([H:15])[H:16])[H:14])[H:13])([H:11])[H:12])([H:8])([H:9])[H:10]"
C       -1.78458085       1.43668432      -0.03047539
C       -1.29797408       0.01220320       0.05597391
C       -0.90035547      -0.66724759      -1.17535985
C        0.35622220      -0.94732014      -0.60816991
C        1.53364287      -0.07340408      -0.29276459
C        2.16076339      -0.39784513       0.99126085
C        2.69076970      -0.73963628       2.00995901
H       -2.75594566       1.55799645       0.45246801
H       -1.09503068       2.12962265       0.45823989
H       -1.87872173       1.80305017      -1.05551603
H       -1.21916794      -0.35459461       1.07267366
H       -2.01421669      -1.19601296      -0.60438553
H       -1.02903650      -0.26193770      -2.17034311
H        0.63143566      -1.99781110      -0.67939385
H        1.24760802       0.97924790      -0.27256166
H        2.28766338      -0.16126435      -1.08108732
H        3.06692438      -1.12173075       2.92948192
17
Frame=14 idx=010577 GeodesicLength=1.5106188685310795 rxn_smarts="[C:1]([C@@:2]1([H:11])[C:3]([H:12])([H:13])[C@:4]1([C:5]([C:6]#[C:7][H:17])([H:15])[H:16])[H:14])([H:8])([H:9])[H:10]>>[C:1]([C:2](/[C:3](=[C:4](\[C:5]([C:6]#[C:7][H:17])([H:15])[H:16])[H:14])[H:13])([H:11])[H:12])([H:8])([H:9])[H:10]"
C       -1.77172072       1.42696151      -0.03595734
C       -1.31406104      -0.00961858       0.04877709
C       -0.89976413      -0.68429128      -1.18343330
C        0.33701123      -0.94078646      -0.57193535
C        1.51975867      -0.06364534      -0.28114666
C        2.17772331      -0.39012613       0.98640524
C        2.72840572      -0.73639124       1.99242391
H       -2.76691061       1.55542781       0.39367351
H       -1.09949807       2.09657814       0.50541698
H       -1.80053129       1.81523792      -1.05655827
H       -1.26740720      -0.38149194       1.06558686
H       -2.07329945      -1.15254239      -0.62162859
H       -0.99811197      -0.27217270      -2.17839803
H        0.61955760      -1.99050218      -0.63027035
H        1.23291887       0.98791631      -0.25265259
H        2.25581857      -0.14493963      -1.08693367
H        3.12011053      -1.11561384       2.90663056
17
Frame=15 idx=010577 GeodesicLength=1.6196724401456593 rxn_smarts="[C:1]([C@@:2]1([H:11])[C:3]([H:12])([H:13])[C@:4]1([C:5]([C:6]#[C:7][H:17])([H:15])[H:16])[H:14])([H:8])([H:9])[H:10]>>[C:1]([C:2](/[C:3](=[C:4](\[C:5]([C:6]#[C:7][H:17])([H:15])[H:16])[H:14])[H:13])([H:11])[H:12])([H:8])([H:9])[H:10]"
C       -1.75865650       1.41693297      -0.04139731
C       -1.33072756      -0.03136013       0.04153773
C       -0.89836635      -0.70265953      -1.19001072
C        0.31773145      -0.93328669      -0.53571826
C        1.50543108      -0.05322333      -0.26898791
C        2.19460126      -0.38233496       0.98075126
C        2.76520598      -0.73403754       1.97355567
H       -2.77427494       1.55516953       0.33387890
H       -1.10653110       2.06287425       0.54993257
H       -1.72191216       1.82388754      -1.05413980
H       -1.31644092      -0.40764482       1.05763655
H       -2.13003720      -1.10632991      -0.64050212
H       -0.96746332      -0.28534895      -2.18462474
H        0.60813540      -1.98192592      -0.58049481
H        1.21779868       0.99714161      -0.23137064
H        2.22289839      -0.12720165      -1.09203737
H        3.17260780      -1.11065247       2.88199101
17
Frame=16 idx=010577 GeodesicLength=1.7292643655611375 rxn_smarts="[C:1]([C@@:2]1([H:11])[C:3]([H:12])([H:13])[C@:4]1([C:5]([C:6]#[C:7][H:17])([H:15])[H:16])[H:14])([H:8])([H:9])[H:10]>>[C:1]([C:2](/[C:3](=[C:4](\[C:5]([C:6]#[C:7][H:17])([H:15])[H:16])[H:14])[H:13])([H:11])[H:12])([H:8])([H:9])[H:10]"
C       -1.74530607       1.40658834      -0.04655113
C       -1.34799782      -0.05306549       0.03407269
C       -0.89622839      -0.72220300      -1.19534835
C        0.29821944      -0.92496155      -0.49977086
C        1.49062153      -0.04241443      -0.25637053
C        2.21123216      -0.37497473       0.97415091
C        2.80104612      -0.73347058       1.95306010
H       -2.77786817       1.55700426       0.27365311
H       -1.11579845       2.02856499       0.59210457
H       -1.64303113       1.82914449      -1.04805682
H       -1.36625748      -0.43329177       1.04856317
H       -2.18408269      -1.05741379      -0.66115970
H       -0.93709734      -0.30105810      -2.18929723
H        0.59683778      -1.97224268      -0.53035486
H        1.20235770       1.00667057      -0.20862596
H        2.18887294      -0.10824767      -1.09645032
H        3.22447989      -1.10462885       2.85638119
