13
Frame=0 idx=009885 GeodesicLength=0.0 rxn_smarts="[C:1]([C@@:2]([O:3][C:4](=[O:5])[H:12])([C:6]#[C:7][H:13])[H:11])([H:8])([H:9])[H:10]>>[C:1](/[C:2]([O:3][C:4](=[O:5])[H:12])=[C:6](\[C:7][H:13])[H:11])([H:8])([H:9])[H:10]"
C       -0.99448094      -1.16309378       0.05220186
C       -0.26418594       0.10248872      -0.24744877
O        0.89228289      -0.01853452      -0.98809242
C        1.94088445      -0.71616131      -0.49426470
O        2.02241999      -1.15126494       0.60963758
C       -0.66208617       1.37032778       0.11338837
C       -0.87539807       2.64257855      -0.04047553
H       -1.26797128      -1.62462844      -0.90106305
H       -1.90777783      -0.94564065       0.60169675
H       -0.38795916      -1.87396430       0.61336360
H       -0.50622474       0.85301358       1.15877665
H        2.70875117      -0.79234158      -1.27274482
H       -0.69825436       3.31722089       0.79502442
13
Frame=1 idx=009885 GeodesicLength=0.06575773205206548 rxn_smarts="[C:1]([C@@:2]([O:3][C:4](=[O:5])[H:12])([C:6]#[C:7][H:13])[H:11])([H:8])([H:9])[H:10]>>[C:1](/[C:2]([O:3][C:4](=[O:5])[H:12])=[C:6](\[C:7][H:13])[H:11])([H:8])([H:9])[H:10]"
C       -0.99722189      -1.14884051       0.04949835
C       -0.24209686       0.10738861      -0.22443603
O        0.91091385      -0.01525633      -0.97126900
C        1.94672697      -0.74490302      -0.49778913
O        2.02458684      -1.20562260       0.59604638
C       -0.63651913       1.37796382       0.13192037
C       -0.94823375       2.62578607      -0.03996624
H       -1.27031058      -1.59259042      -0.91207180
H       -1.90950749      -0.92192352       0.59698245
H       -0.40628991      -1.87719252       0.60480458
H       -0.41895005       0.85611111       1.17857703
H        2.71858270      -0.80156361      -1.27410699
H       -0.77168072       3.34064292       0.76181004
13
Frame=2 idx=009885 GeodesicLength=0.13044598333925636 rxn_smarts="[C:1]([C@@:2]([O:3][C:4](=[O:5])[H:12])([C:6]#[C:7][H:13])[H:11])([H:8])([H:9])[H:10]>>[C:1](/[C:2]([O:3][C:4](=[O:5])[H:12])=[C:6](\[C:7][H:13])[H:11])([H:8])([H:9])[H:10]"
C       -0.99964546      -1.13270563       0.04765817
C       -0.21977868       0.11274323      -0.20284126
O        0.92946022      -0.01366808      -0.95605083
C        1.95195263      -0.77337828      -0.50202776
O        2.02561119      -1.25703971       0.58223426
C       -0.60943286       1.38728414       0.14688161
C       -1.01195116       2.60558337      -0.03758890
H       -1.27180163      -1.56061437      -0.92109386
H       -1.91105410      -0.89541566       0.59227447
H       -0.42480939      -1.87696601       0.59865584
H       -0.33321744       0.86162482       1.19287542
H        2.72794878      -0.81296536      -1.27536777
H       -0.85328212       3.35551754       0.73439060
13
Frame=3 idx=009885 GeodesicLength=0.1944208278987506 rxn_smarts="[C:1]([C@@:2]([O:3][C:4](=[O:5])[H:12])([C:6]#[C:7][H:13])[H:11])([H:8])([H:9])[H:10]>>[C:1](/[C:2]([O:3][C:4](=[O:5])[H:12])=[C:6](\[C:7][H:13])[H:11])([H:8])([H:9])[H:10]"
C       -1.00184947      -1.11692921       0.04586204
C       -0.19947617       0.11806139      -0.18238538
O        0.94655302      -0.01160914      -0.94130920
C        1.95617164      -0.79835018      -0.50559370
O        2.02522563      -1.30318301       0.56938371
C       -0.58573352       1.39673919       0.15943430
C       -1.07424303       2.58116041      -0.03062301
H       -1.27135407      -1.53084642      -0.92946642
H       -1.91317685      -0.87029944       0.58654665
H       -0.44261106      -1.87499980       0.59400289
H       -0.25207479       0.86785943       1.20282508
H        2.73598226      -0.82359314      -1.27580640
H       -0.92341359       3.36598991       0.70712945
13
Frame=4 idx=009885 GeodesicLength=0.25803422789380537 rxn_smarts="[C:1]([C@@:2]([O:3][C:4](=[O:5])[H:12])([C:6]#[C:7][H:13])[H:11])([H:8])([H:9])[H:10]>>[C:1](/[C:2]([O:3][C:4](=[O:5])[H:12])=[C:6](\[C:7][H:13])[H:11])([H:8])([H:9])[H:10]"
C       -1.00399298      -1.10162880       0.04422504
C       -0.18096030       0.12317079      -0.16273798
O        0.96219727      -0.00939296      -0.92701062
C        1.95938475      -0.82070973      -0.50883514
O        2.02349834      -1.34562856       0.55689277
C       -0.56515824       1.40606252       0.16997465
C       -1.13322665       2.55363372      -0.01945186
H       -1.26952294      -1.50312790      -0.93714427
H       -1.91586582      -0.84650551       0.58011783
H       -0.45995402      -1.87180461       0.59069941
H       -0.17466437       0.87479756       1.20892406
H        2.74343546      -0.83222798      -1.27518086
H       -0.98517052       3.37336145       0.67952698
13
Frame=5 idx=009885 GeodesicLength=0.32155726202551216 rxn_smarts="[C:1]([C@@:2]([O:3][C:4](=[O:5])[H:12])([C:6]#[C:7][H:13])[H:11])([H:8])([H:9])[H:10]>>[C:1](/[C:2]([O:3][C:4](=[O:5])[H:12])=[C:6](\[C:7][H:13])[H:11])([H:8])([H:9])[H:10]"
C       -1.00576118      -1.08592075       0.04290199
C       -0.16294560       0.12846616      -0.14355039
O        0.97739609      -0.00741769      -0.91310796
C        1.96219922      -0.84163589      -0.51179059
O        2.02082382      -1.38592694       0.54459623
C       -0.54589822       1.41589403       0.17833100
C       -1.18578930       2.52495808      -0.00699802
H       -1.26639510      -1.47631125      -0.94402842
H       -1.91861818      -0.82247241       0.57314664
H       -0.47701154      -1.86700738       0.58880550
H       -0.09953548       0.88340216       1.21140301
H        2.74975401      -0.84223636      -1.27474105
H       -1.04821852       3.37620825       0.65503206
13
Frame=6 idx=009885 GeodesicLength=0.38512598230227313 rxn_smarts="[C:1]([C@@:2]([O:3][C:4](=[O:5])[H:12])([C:6]#[C:7][H:13])[H:11])([H:8])([H:9])[H:10]>>[C:1](/[C:2]([O:3][C:4](=[O:5])[H:12])=[C:6](\[C:7][H:13])[H:11])([H:8])([H:9])[H:10]"
C       -1.00732210      -1.07024777       0.04184364
C       -0.14579062       0.13373076      -0.12477172
O        0.99182200      -0.00561764      -0.89955102
C        1.96442591      -0.86113256      -0.51450844
O        2.01705135      -1.42432796       0.53234268
C       -0.52848691       1.42582906       0.18477151
C       -1.23348291       2.49538446       0.00714421
H       -1.26210538      -1.45084241      -0.95021184
H       -1.92163314      -0.79881084       0.56559606
H       -0.49384093      -1.86104760       0.58823909
H       -0.02666924       0.89333524       1.21046806
H        2.75552276      -0.85186634      -1.27384977
H       -1.10949079       3.37561361       0.63248755
13
Frame=7 idx=009885 GeodesicLength=0.44895562566687136 rxn_smarts="[C:1]([C@@:2]([O:3][C:4](=[O:5])[H:12])([C:6]#[C:7][H:13])[H:11])([H:8])([H:9])[H:10]>>[C:1](/[C:2]([O:3][C:4](=[O:5])[H:12])=[C:6](\[C:7][H:13])[H:11])([H:8])([H:9])[H:10]"
C       -1.00853687      -1.05397475       0.04115403
C       -0.12877774       0.13923165      -0.10656406
O        1.00605532      -0.00447959      -0.88657435
C        1.96632113      -0.88009675      -0.51697312
O        2.01216437      -1.46164342       0.52021919
C       -0.51171454       1.43636965       0.18853046
C       -1.27547702       2.46594550       0.02075432
H       -1.25677182      -1.42623108      -0.95550488
H       -1.92461901      -0.77432211       0.55751792
H       -0.51065814      -1.85342640       0.58929699
H        0.04499413       0.90540029       1.20565610
H        2.76082593      -0.86272988      -1.27272709
H       -1.17380574       3.36995689       0.61521450
13
Frame=8 idx=009885 GeodesicLength=0.5129750130959749 rxn_smarts="[C:1]([C@@:2]([O:3][C:4](=[O:5])[H:12])([C:6]#[C:7][H:13])[H:11])([H:8])([H:9])[H:10]>>[C:1](/[C:2]([O:3][C:4](=[O:5])[H:12])=[C:6](\[C:7][H:13])[H:11])([H:8])([H:9])[H:10]"
C       -1.00909938      -1.03812636       0.04036342
C       -0.11235435       0.14484121      -0.08703228
O        1.01988746      -0.00207096      -0.87234042
C        1.96822282      -0.89652811      -0.51841447
O        2.00677854      -1.49742158       0.50807428
C       -0.49742243       1.44663190       0.19267778
C       -1.31460247       2.43579657       0.03622384
H       -1.24948072      -1.40206463      -0.96107133
H       -1.92767508      -0.75147859       0.54847514
H       -0.52675798      -1.84569553       0.59038530
H        0.11347504       0.91816199       1.19986608
H        2.76350538      -0.87529229      -1.27334901
H       -1.23447685       3.36324637       0.59614167
13
Frame=9 idx=009885 GeodesicLength=0.5772507315054909 rxn_smarts="[C:1]([C@@:2]([O:3][C:4](=[O:5])[H:12])([C:6]#[C:7][H:13])[H:11])([H:8])([H:9])[H:10]>>[C:1](/[C:2]([O:3][C:4](=[O:5])[H:12])=[C:6](\[C:7][H:13])[H:11])([H:8])([H:9])[H:10]"
C       -1.00964790      -1.02270260       0.03983177
C       -0.09681789       0.15014456      -0.06740063
O        1.03268283       0.00001040      -0.85833099
C        1.96945735      -0.91198605      -0.51982045
O        2.00011704      -1.53244604       0.49530480
C       -0.48481638       1.45652091       0.19567345
C       -1.35064288       2.40533112       0.05361865
H       -1.24155660      -1.37918796      -0.96605890
H       -1.93103621      -0.72948739       0.53909198
H       -0.54284829      -1.83759222       0.59233528
H        0.18024971       0.93172528       1.19135577
H        2.76663374      -0.88533711      -1.27267815
H       -1.29177453       3.35500709       0.57707742
13
Frame=10 idx=009885 GeodesicLength=0.6419575144310095 rxn_smarts="[C:1]([C@@:2]([O:3][C:4](=[O:5])[H:12])([C:6]#[C:7][H:13])[H:11])([H:8])([H:9])[H:10]>>[C:1](/[C:2]([O:3][C:4](=[O:5])[H:12])=[C:6](\[C:7][H:13])[H:11])([H:8])([H:9])[H:10]"
C       -1.00955094      -1.00586286       0.03966200
C       -0.08047439       0.15615967      -0.04823473
O        1.04611499       0.00107277      -0.84484484
C        1.97091223      -0.92763401      -0.52033134
O        1.99231443      -1.56711288       0.48322936
C       -0.47146804       1.46763580       0.19497740
C       -1.38046432       2.37683150       0.06581366
H       -1.23245798      -1.35642004      -0.97013108
H       -1.93394123      -0.70526127       0.52895071
H       -0.55913680      -1.82722103       0.59604942
H        0.24658301       0.94838628       1.17874597
H        2.76869786      -0.89936757      -1.27256920
H       -1.35712881       3.33879366       0.56868267
13
Frame=11 idx=009885 GeodesicLength=0.7068106815228274 rxn_smarts="[C:1]([C@@:2]([O:3][C:4](=[O:5])[H:12])([C:6]#[C:7][H:13])[H:11])([H:8])([H:9])[H:10]>>[C:1](/[C:2]([O:3][C:4](=[O:5])[H:12])=[C:6](\[C:7][H:13])[H:11])([H:8])([H:9])[H:10]"
C       -1.00939632      -0.99024886       0.03962619
C       -0.06538031       0.16159427      -0.02767083
O        1.05806763       0.00277769      -0.83066880
C        1.97175502      -0.94134481      -0.52075975
O        1.98363395      -1.60090548       0.46994445
C       -0.46077719       1.47758101       0.19542199
C       -1.40914033       2.34760548       0.08182551
H       -1.22263140      -1.33468796      -0.97414636
H       -1.93719064      -0.68356520       0.51865771
H       -0.57503592      -1.81777597       0.59950111
H        0.31019293       0.96440290       1.16546747
H        2.77051573      -0.90984027      -1.27191738
H       -1.41461314       3.32440720       0.55471870
13
Frame=12 idx=009885 GeodesicLength=0.7720199928945907 rxn_smarts="[C:1]([C@@:2]([O:3][C:4](=[O:5])[H:12])([C:6]#[C:7][H:13])[H:11])([H:8])([H:9])[H:10]>>[C:1](/[C:2]([O:3][C:4](=[O:5])[H:12])=[C:6](\[C:7][H:13])[H:11])([H:8])([H:9])[H:10]"
C       -1.00872862      -0.97362815       0.03985976
C       -0.04985640       0.16759817      -0.00751044
O        1.07023631       0.00354991      -0.81704573
C        1.97269846      -0.95501744      -0.52023197
O        1.97373833      -1.63404158       0.45736293
C       -0.44978577       1.48832927       0.19245118
C       -1.43305060       2.32035458       0.09296602
H       -1.21176291      -1.31346723      -0.97734705
H       -1.94011817      -0.66026434       0.50752270
H       -0.59112240      -1.80644028       0.60449772
H        0.37292018       0.98271913       1.14839430
H        2.77163201      -0.92286878      -1.27125148
H       -1.47680042       3.30317673       0.55033207
13
Frame=13 idx=009885 GeodesicLength=0.8373833711009294 rxn_smarts="[C:1]([C@@:2]([O:3][C:4](=[O:5])[H:12])([C:6]#[C:7][H:13])[H:11])([H:8])([H:9])[H:10]>>[C:1](/[C:2]([O:3][C:4](=[O:5])[H:12])=[C:6](\[C:7][H:13])[H:11])([H:8])([H:9])[H:10]"
C       -1.00789012      -0.95768727       0.04029446
C       -0.03511026       0.17330361       0.01364180
O        1.08129382       0.00450514      -0.80313939
C        1.97327264      -0.96731374      -0.51944269
O        1.96298103      -1.66631067       0.44397390
C       -0.44044272       1.49831004       0.18968327
C       -1.45525543       2.29321930       0.10563050
H       -1.20032785      -1.29302837      -0.98025383
H       -1.94310411      -0.63846993       0.49628605
H       -0.60693400      -1.79547907       0.60948993
H        0.43339504       1.00059193       1.13018105
H        2.77249422      -0.93377617      -1.27016542
H       -1.53437228       3.28213520       0.54382037
13
Frame=14 idx=009885 GeodesicLength=0.9028762625814647 rxn_smarts="[C:1]([C@@:2]([O:3][C:4](=[O:5])[H:12])([C:6]#[C:7][H:13])[H:11])([H:8])([H:9])[H:10]>>[C:1](/[C:2]([O:3][C:4](=[O:5])[H:12])=[C:6](\[C:7][H:13])[H:11])([H:8])([H:9])[H:10]"
C       -1.00686149      -0.94210702       0.04094904
C       -0.02092210       0.17886747       0.03536744
O        1.09142787       0.00532046      -0.78930252
C        1.97357161      -0.97859709      -0.51832015
O        1.95135626      -1.69762043       0.43009550
C       -0.43219594       1.50776950       0.18642795
C       -1.47530716       2.26670545       0.11851406
H       -1.18845342      -1.27334053      -0.98271819
H       -1.94603475      -0.61753549       0.48493024
H       -0.62256438      -1.78449667       0.61470740
H        0.49183235       1.01808245       1.11045080
H        2.77327088      -0.94326280      -1.26851923
H       -1.58911973       3.26021470       0.53741766
13
Frame=15 idx=009885 GeodesicLength=0.968384412436693 rxn_smarts="[C:1]([C@@:2]([O:3][C:4](=[O:5])[H:12])([C:6]#[C:7][H:13])[H:11])([H:8])([H:9])[H:10]>>[C:1](/[C:2]([O:3][C:4](=[O:5])[H:12])=[C:6](\[C:7][H:13])[H:11])([H:8])([H:9])[H:10]"
C       -1.00573950      -0.92728024       0.04191203
C       -0.00750555       0.18401971       0.05806743
O        1.10031543       0.00625971      -0.77537229
C        1.97347299      -0.98865715      -0.51727456
O        1.93905928      -1.72802359       0.41505794
C       -0.42528672       1.51627948       0.18395685
C       -1.49376046       2.24044225       0.13320053
H       -1.17645690      -1.25429734      -0.98477324
H       -1.94893007      -0.59815254       0.47392737
H       -0.63787615      -1.77416438       0.61969187
H        0.54789721       1.03404250       1.09033972
H        2.77423067      -0.95003535      -1.26624928
H       -1.63942023       3.23956693       0.52751563
13
Frame=16 idx=009885 GeodesicLength=1.0339390792119718 rxn_smarts="[C:1]([C@@:2]([O:3][C:4](=[O:5])[H:12])([C:6]#[C:7][H:13])[H:11])([H:8])([H:9])[H:10]>>[C:1](/[C:2]([O:3][C:4](=[O:5])[H:12])=[C:6](\[C:7][H:13])[H:11])([H:8])([H:9])[H:10]"
C       -1.00448020      -0.91254792       0.04323060
C        0.00553437       0.18912774       0.08103862
O        1.10835448       0.00689427      -0.76183667
C        1.97307324      -0.99807870      -0.51617046
O        1.92590476      -1.75755040       0.39935157
C       -0.41885443       1.52438919       0.18101221
C       -1.50974341       2.21533731       0.14698841
H       -1.16444834      -1.23579430      -0.98617190
H       -1.95161845      -0.57907640       0.46317698
H       -0.65306981      -1.76361860       0.62496881
H        0.60199635       1.04884284       1.06918552
H        2.77561422      -0.95530170      -1.26307406
H       -1.68826277       3.21737669       0.51830037
