16
Frame=0 idx=001277 GeodesicLength=0.0 rxn_smarts="[C:1]([C:2]([C@@:3]([O:4][H:13])([C:5]([O:6][H:16])([H:14])[H:15])[H:12])([H:10])[H:11])([H:7])([H:8])[H:9]>>[C:1]([C:2]([C:3]([O:4][H:13])=[C:5]([H:14])[H:15])([H:10])[H:11])([H:7])([H:8])[H:9].[O:6]([H:12])[H:16]"
C       -1.99194429      -0.65474280      -0.05910927
C       -1.04043969       0.45808133       0.36619413
C        0.32757488       0.34770476      -0.26910093
O        0.34396029       0.46750505      -1.67671684
C        1.47007059       0.87410492       0.36094638
O        2.21877258      -0.83024421       0.76457351
H       -2.96313161      -0.55207725       0.42789743
H       -2.17008154      -0.63239785      -1.13698770
H       -1.58780251      -1.63666920       0.19963772
H       -1.48280887       1.42758284       0.10951206
H       -0.92005058       0.43811829       1.45285480
H        1.09737757      -0.73670415       0.16644329
H        0.03601568      -0.35586670      -2.05704159
H        1.42964104       1.18764386       1.39470351
H        2.27915893       1.27760414      -0.23503218
H        2.95368756      -1.07964307       0.19122568
16
Frame=1 idx=001277 GeodesicLength=0.09584505002233708 rxn_smarts="[C:1]([C:2]([C@@:3]([O:4][H:13])([C:5]([O:6][H:16])([H:14])[H:15])[H:12])([H:10])[H:11])([H:7])([H:8])[H:9]>>[C:1]([C:2]([C:3]([O:4][H:13])=[C:5]([H:14])[H:15])([H:10])[H:11])([H:7])([H:8])[H:9].[O:6]([H:12])[H:16]"
C       -2.01121494      -0.64080862      -0.05787518
C       -1.05281178       0.46569201       0.36866066
C        0.31866475       0.33558801      -0.25273128
O        0.34054895       0.44632003      -1.65969885
C        1.45933170       0.86838929       0.37698313
O        2.26045102      -0.84005551       0.69889284
H       -2.98871405      -0.51945914       0.41193626
H       -2.16986860      -0.63248313      -1.13886458
H       -1.62459982      -1.62407754       0.22182210
H       -1.48207310       1.43751134       0.09887602
H       -0.94303228       0.45497467       1.45654925
H        1.08942466      -0.77294540       0.18427042
H        0.12681786      -0.41195970      -2.02896446
H        1.41983982       1.16182740       1.41709964
H        2.25173177       1.30769357      -0.21619343
H        3.00550404      -1.03620728       0.11923745
16
Frame=2 idx=001277 GeodesicLength=0.19088890610293494 rxn_smarts="[C:1]([C:2]([C@@:3]([O:4][H:13])([C:5]([O:6][H:16])([H:14])[H:15])[H:12])([H:10])[H:11])([H:7])([H:8])[H:9]>>[C:1]([C:2]([C:3]([O:4][H:13])=[C:5]([H:14])[H:15])([H:10])[H:11])([H:7])([H:8])[H:9].[O:6]([H:12])[H:16]"
C       -2.02954968      -0.62785486      -0.05622477
C       -1.06431655       0.47253901       0.37074891
C        0.31010175       0.32220460      -0.23711326
O        0.33650966       0.42423942      -1.64328470
C        1.44923661       0.86209972       0.39137279
O        2.29640692      -0.84860208       0.63235895
H       -3.01252230      -0.48811382       0.39680222
H       -2.16993300      -0.63395708      -1.13955797
H       -1.66046454      -1.61175999       0.24399940
H       -1.48039062       1.44623376       0.08777284
H       -0.96444401       0.47153028       1.45955254
H        1.08321242      -0.81032591       0.20176444
H        0.21616328      -0.45764506      -2.00055755
H        1.41087188       1.13717795       1.43691397
H        2.22532878       1.33349526      -0.19880939
H        3.05378940      -0.99126121       0.05426157
16
Frame=3 idx=001277 GeodesicLength=0.2854780261593399 rxn_smarts="[C:1]([C:2]([C@@:3]([O:4][H:13])([C:5]([O:6][H:16])([H:14])[H:15])[H:12])([H:10])[H:11])([H:7])([H:8])[H:9]>>[C:1]([C:2]([C:3]([O:4][H:13])=[C:5]([H:14])[H:15])([H:10])[H:11])([H:7])([H:8])[H:9].[O:6]([H:12])[H:16]"
C       -2.04705220      -0.61588414      -0.05405574
C       -1.07492113       0.47863372       0.37255288
C        0.30176112       0.30786337      -0.22252356
O        0.33147531       0.40187187      -1.62785252
C        1.43974780       0.85533297       0.40394498
O        2.32672767      -0.85641815       0.56564978
H       -3.03456443      -0.45818086       0.38294752
H       -2.17072663      -0.63650519      -1.13906762
H       -1.69525786      -1.59987208       0.26593479
H       -1.47789487       1.45388875       0.07660382
H       -0.98398781       0.48755664       1.46203212
H        1.07886210      -0.84887785       0.21767107
H        0.30364561      -0.49323759      -1.97291562
H        1.40262701       1.11417171       1.45406990
H        2.20015477       1.35521105      -0.18329431
H        3.09940354      -0.94555421      -0.00169751
16
Frame=4 idx=001277 GeodesicLength=0.37980422432877514 rxn_smarts="[C:1]([C:2]([C@@:3]([O:4][H:13])([C:5]([O:6][H:16])([H:14])[H:15])[H:12])([H:10])[H:11])([H:7])([H:8])[H:9]>>[C:1]([C:2]([C:3]([O:4][H:13])=[C:5]([H:14])[H:15])([H:10])[H:11])([H:7])([H:8])[H:9].[O:6]([H:12])[H:16]"
C       -2.06385873      -0.60490350      -0.05127882
C       -1.08465592       0.48396791       0.37417153
C        0.29356975       0.29278645      -0.20910981
O        0.32523611       0.37954068      -1.61367104
C        1.43083767       0.84825484       0.41460452
O        2.35189118      -0.86371368       0.49923114
H       -3.05499349      -0.42974023       0.37065561
H       -2.17250956      -0.63995746      -1.13744525
H       -1.72897801      -1.58851860       0.28759719
H       -1.47472693       1.46053950       0.06563709
H       -1.00157407       0.50289193       1.46417854
H        1.07638108      -0.88855423       0.23133345
H        0.38928741      -0.51892046      -1.94692088
H        1.39497683       1.09326225       1.46859191
H        2.17636219       1.37324495      -0.16998223
H        3.14275450      -0.90018035      -0.04759296
16
Frame=5 idx=001277 GeodesicLength=0.4736188054059659 rxn_smarts="[C:1]([C:2]([C@@:3]([O:4][H:13])([C:5]([O:6][H:16])([H:14])[H:15])[H:12])([H:10])[H:11])([H:7])([H:8])[H:9]>>[C:1]([C:2]([C:3]([O:4][H:13])=[C:5]([H:14])[H:15])([H:10])[H:11])([H:7])([H:8])[H:9].[O:6]([H:12])[H:16]"
C       -2.07992197      -0.59457169      -0.04780191
C       -1.09361794       0.48848799       0.37558382
C        0.28547010       0.27706312      -0.19693286
O        0.31794630       0.35700246      -1.60040823
C        1.42217807       0.84066117       0.42310417
O        2.37265766      -0.87022326       0.43277169
H       -3.07374125      -0.40260752       0.36034704
H       -2.17538205      -0.64354066      -1.13440048
H       -1.76122016      -1.57730230       0.30851617
H       -1.47114028       1.46596495       0.05508834
H       -1.01739144       0.51732435       1.46571015
H        1.07591052      -0.92926224       0.24189168
H        0.47279295      -0.53511614      -1.92226493
H        1.38735196       1.07415958       1.48001740
H        2.15353005       1.38764895      -0.15909383
H        3.18457749      -0.85568876      -0.08212823
16
Frame=6 idx=001277 GeodesicLength=0.5674037154433649 rxn_smarts="[C:1]([C:2]([C@@:3]([O:4][H:13])([C:5]([O:6][H:16])([H:14])[H:15])[H:12])([H:10])[H:11])([H:7])([H:8])[H:9]>>[C:1]([C:2]([C:3]([O:4][H:13])=[C:5]([H:14])[H:15])([H:10])[H:11])([H:7])([H:8])[H:9].[O:6]([H:12])[H:16]"
C       -2.09542685      -0.58526011      -0.04360864
C       -1.10178434       0.49226181       0.37685747
C        0.27751539       0.26095987      -0.18600947
O        0.30942257       0.33461890      -1.58850394
C        1.41404720       0.83316170       0.42970080
O        2.38974300      -0.87614548       0.36722398
H       -3.09113698      -0.37710483       0.35188409
H       -2.17943470      -0.64787169      -1.13028022
H       -1.79225526      -1.56676473       0.32919811
H       -1.46714135       1.47041806       0.04485466
H       -1.03130248       0.53098627       1.46700174
H        1.07739452      -0.97091439       0.24933126
H        0.55425094      -0.54150978      -1.90013948
H        1.38008850       1.05783896       1.48896351
H        2.13217673       1.39934266      -0.15065460
H        3.22384312      -0.81401723      -0.10581930
16
Frame=7 idx=001277 GeodesicLength=0.6609597434685568 rxn_smarts="[C:1]([C:2]([C@@:3]([O:4][H:13])([C:5]([O:6][H:16])([H:14])[H:15])[H:12])([H:10])[H:11])([H:7])([H:8])[H:9]>>[C:1]([C:2]([C:3]([O:4][H:13])=[C:5]([H:14])[H:15])([H:10])[H:11])([H:7])([H:8])[H:9].[O:6]([H:12])[H:16]"
C       -2.11029744      -0.57683435      -0.03866047
C       -1.10920445       0.49533841       0.37790957
C        0.26974867       0.24453798      -0.17625914
O        0.29995986       0.31210973      -1.57776161
C        1.40627449       0.82575092       0.43454741
O        2.40397871      -0.88118801       0.30256529
H       -3.10719320      -0.35306676       0.34524373
H       -2.18448534      -0.65288431      -1.12502608
H       -1.82185760      -1.55667276       0.34979054
H       -1.46287188       1.47380789       0.03470054
H       -1.04350928       0.54406338       1.46790003
H        1.08102766      -1.01341371       0.25322908
H        0.63315266      -0.53833830      -1.88038803
H        1.37286611       1.04405169       1.49558585
H        2.11201929       1.40869383      -0.14442663
H        3.26039174      -0.77595565      -0.11895009
16
Frame=8 idx=001277 GeodesicLength=0.7543350894846437 rxn_smarts="[C:1]([C:2]([C@@:3]([O:4][H:13])([C:5]([O:6][H:16])([H:14])[H:15])[H:12])([H:10])[H:11])([H:7])([H:8])[H:9]>>[C:1]([C:2]([C:3]([O:4][H:13])=[C:5]([H:14])[H:15])([H:10])[H:11])([H:7])([H:8])[H:9].[O:6]([H:12])[H:16]"
C       -2.12445503      -0.56926557      -0.03296576
C       -1.11591332       0.49782341       0.37867964
C        0.26224759       0.22788935      -0.16754566
O        0.28986469       0.28926331      -1.56810908
C        1.39877402       0.81856735       0.43794066
O        2.41616030      -0.88517192       0.23902099
H       -3.12194665      -0.33039274       0.34025853
H       -2.19027145      -0.65869921      -1.11873114
H       -1.84988157      -1.54698588       0.37056113
H       -1.45842477       1.47621005       0.02431689
H       -1.05420815       0.55681643       1.46839273
H        1.08699629      -1.05673318       0.25338686
H        0.70903472      -0.52590151      -1.86295259
H        1.36549800       1.03274587       1.50028801
H        2.09287163       1.41621795      -0.14008527
H        3.29365371      -0.74238373      -0.12245595
16
Frame=9 idx=001277 GeodesicLength=0.8474633626714149 rxn_smarts="[C:1]([C:2]([C@@:3]([O:4][H:13])([C:5]([O:6][H:16])([H:14])[H:15])[H:12])([H:10])[H:11])([H:7])([H:8])[H:9]>>[C:1]([C:2]([C:3]([O:4][H:13])=[C:5]([H:14])[H:15])([H:10])[H:11])([H:7])([H:8])[H:9].[O:6]([H:12])[H:16]"
C       -2.13785594      -0.56254608      -0.02659130
C       -1.12187636       0.49975718       0.37910595
C        0.25513255       0.21121805      -0.15966575
O        0.27975650       0.26582912      -1.55918155
C        1.39152190       0.81183982       0.44003724
O        2.42669537      -0.88754006       0.17658209
H       -3.13537857      -0.30929009       0.33693734
H       -2.19660864      -0.66507797      -1.11142148
H       -1.87631856      -1.53773701       0.39126402
H       -1.45355576       1.47758292       0.01353293
H       -1.06365986       0.56929414       1.46831231
H        1.09520898      -1.10072519       0.24970055
H        0.78127514      -0.50480516      -1.84708352
H        1.35778106       1.02394155       1.50320085
H        2.07474379       1.42246992      -0.13746412
H        3.32313841      -0.71421115      -0.11726556
16
Frame=10 idx=001277 GeodesicLength=0.940493160040882 rxn_smarts="[C:1]([C:2]([C@@:3]([O:4][H:13])([C:5]([O:6][H:16])([H:14])[H:15])[H:12])([H:10])[H:11])([H:7])([H:8])[H:9]>>[C:1]([C:2]([C:3]([O:4][H:13])=[C:5]([H:14])[H:15])([H:10])[H:11])([H:7])([H:8])[H:9].[O:6]([H:12])[H:16]"
C       -2.15043146      -0.55662154      -0.01963735
C       -1.12720179       0.50133980       0.37908992
C        0.24848201       0.19450745      -0.15235087
O        0.26982923       0.24150495      -1.55085254
C        1.38451985       0.80562150       0.44143483
O        2.43644061      -0.88847167       0.11562664
H       -3.14762485      -0.28944198       0.33473436
H       -2.20314374      -0.67245547      -1.10327494
H       -1.90103387      -1.52878602       0.41236556
H       -1.44854041       1.47808470       0.00187891
H       -1.07208958       0.58204511       1.46763597
H        1.10595717      -1.14542645       0.24222254
H        0.84938125      -0.47560359      -1.83270929
H        1.34971362       1.01747849       1.50505255
H        2.05746889       1.42782879      -0.13580375
H        3.34827308      -0.69160408      -0.10541255
16
Frame=11 idx=001277 GeodesicLength=1.0333497334088368 rxn_smarts="[C:1]([C:2]([C@@:3]([O:4][H:13])([C:5]([O:6][H:16])([H:14])[H:15])[H:12])([H:10])[H:11])([H:7])([H:8])[H:9]>>[C:1]([C:2]([C:3]([O:4][H:13])=[C:5]([H:14])[H:15])([H:10])[H:11])([H:7])([H:8])[H:9].[O:6]([H:12])[H:16]"
C       -2.16209323      -0.55142446      -0.01220078
C       -1.13191322       0.50269344       0.37853515
C        0.24239106       0.17783700      -0.14528858
O        0.26062467       0.21604262      -1.54273861
C        1.37773001       0.79995308       0.44254548
O        2.44571546      -0.88772067       0.05615406
H       -3.15869978      -0.27076125       0.33327195
H       -2.20946677      -0.68094355      -1.09434340
H       -1.92404299      -1.51996733       0.43400787
H       -1.44327626       1.47771004      -0.01101489
H       -1.07981201       0.59539933       1.46619619
H        1.11923380      -1.19075641       0.23104729
H        0.91281404      -0.43908552      -1.81911156
H        1.34114987       1.01307575       1.50627093
H        2.04092702       1.43265099      -0.13456831
H        3.36871833      -0.67470308      -0.08876279
16
Frame=12 idx=001277 GeodesicLength=1.1261229840986253 rxn_smarts="[C:1]([C:2]([C@@:3]([O:4][H:13])([C:5]([O:6][H:16])([H:14])[H:15])[H:12])([H:10])[H:11])([H:7])([H:8])[H:9]>>[C:1]([C:2]([C:3]([O:4][H:13])=[C:5]([H:14])[H:15])([H:10])[H:11])([H:7])([H:8])[H:9].[O:6]([H:12])[H:16]"
C       -2.17285887      -0.54692250      -0.00439656
C       -1.13608254       0.50397029       0.37737689
C        0.23694444       0.16126842      -0.13816153
O        0.25259259       0.18918672      -1.53457815
C        1.37119841       0.79489498       0.44384089
O        2.45481999      -0.88518122      -0.00181923
H       -3.16875746      -0.25315563       0.33213049
H       -2.21529012      -0.69076844      -1.08476603
H       -1.94547661      -1.51116588       0.45638847
H       -1.43772944       1.47651933      -0.02551366
H       -1.08713894       0.60975460       1.46393806
H        1.13504102      -1.23669583       0.21636464
H        0.97120664      -0.39600700      -1.80574913
H        1.33207798       1.01053565       1.50741835
H        2.02510645       1.43728032      -0.13319263
H        3.38434648      -0.66351382      -0.06928087
16
Frame=13 idx=001277 GeodesicLength=1.2187363016680008 rxn_smarts="[C:1]([C:2]([C@@:3]([O:4][H:13])([C:5]([O:6][H:16])([H:14])[H:15])[H:12])([H:10])[H:11])([H:7])([H:8])[H:9]>>[C:1]([C:2]([C:3]([O:4][H:13])=[C:5]([H:14])[H:15])([H:10])[H:11])([H:7])([H:8])[H:9].[O:6]([H:12])[H:16]"
C       -2.18269283      -0.54295056       0.00353055
C       -1.13973878       0.50528517       0.37554384
C        0.23223456       0.14478580      -0.13046960
O        0.24645025       0.16068013      -1.52581891
C        1.36488696       0.79039742       0.44591426
O        2.46389417      -0.88068996      -0.05795681
H       -3.17785306      -0.23641579       0.33070871
H       -2.22019616      -0.70183263      -1.07473615
H       -1.96552203      -1.50214684       0.47941271
H       -1.43166597       1.47450760      -0.04194195
H       -1.09446779       0.62536697       1.46071071
H        1.15339360      -1.28318179       0.19879704
H        1.02400995      -0.34800147      -1.79151987
H        1.32232488       1.00954084       1.50909424
H        2.00986764       1.44191789      -0.13096432
H        3.39507462      -0.65726278      -0.05030445
16
Frame=14 idx=001277 GeodesicLength=1.3113574409799804 rxn_smarts="[C:1]([C:2]([C@@:3]([O:4][H:13])([C:5]([O:6][H:16])([H:14])[H:15])[H:12])([H:10])[H:11])([H:7])([H:8])[H:9]>>[C:1]([C:2]([C:3]([O:4][H:13])=[C:5]([H:14])[H:15])([H:10])[H:11])([H:7])([H:8])[H:9].[O:6]([H:12])[H:16]"
C       -2.19166049      -0.53942091       0.01149554
C       -1.14297299       0.50676091       0.37300728
C        0.22824180       0.12836992      -0.12199034
O        0.24232397       0.13045910      -1.51625181
C        1.35884457       0.78638785       0.44907277
O        2.47301883      -0.87440962      -0.11267352
H       -3.18614688      -0.22033440       0.32862140
H       -2.22402858      -0.71432889      -1.06429844
H       -1.98436421      -1.49273203       0.50325727
H       -1.42512125       1.47173248      -0.06047138
H       -1.10197445       0.64253966       1.45644528
H        1.17433610      -1.33025705       0.17840935
H        1.07081664      -0.29585214      -1.77618519
H        1.31198423       1.00979086       1.51166088
H        1.99515079       1.44670502      -0.12748804
H        3.40155192      -0.65541078      -0.03261105
16
Frame=15 idx=001277 GeodesicLength=1.403962631684355 rxn_smarts="[C:1]([C:2]([C@@:3]([O:4][H:13])([C:5]([O:6][H:16])([H:14])[H:15])[H:12])([H:10])[H:11])([H:7])([H:8])[H:9]>>[C:1]([C:2]([C:3]([O:4][H:13])=[C:5]([H:14])[H:15])([H:10])[H:11])([H:7])([H:8])[H:9].[O:6]([H:12])[H:16]"
C       -2.19977006      -0.53615697       0.01927488
C       -1.14580859       0.50845859       0.36977289
C        0.22496240       0.11199051      -0.11234524
O        0.24060748       0.09862311      -1.50545529
C        1.35303847       0.78277232       0.45370206
O        2.48208794      -0.86631786      -0.16588980
H       -3.19367993      -0.20470026       0.32537182
H       -2.22652591      -0.72806853      -1.05362020
H       -2.00223632      -1.48271170       0.52774091
H       -1.41789807       1.46819186      -0.08114735
H       -1.10988139       0.66132606       1.45106839
H        1.19788830      -1.37787524       0.15571486
H        1.11112680      -0.24130798      -1.75900592
H        1.30097246       1.01104605       1.51549878
H        1.98082743       1.45168179      -0.12233857
H        3.40428900      -0.65695174      -0.01834223
16
Frame=16 idx=001277 GeodesicLength=1.4966190937045505 rxn_smarts="[C:1]([C:2]([C@@:3]([O:4][H:13])([C:5]([O:6][H:16])([H:14])[H:15])[H:12])([H:10])[H:11])([H:7])([H:8])[H:9]>>[C:1]([C:2]([C:3]([O:4][H:13])=[C:5]([H:14])[H:15])([H:10])[H:11])([H:7])([H:8])[H:9].[O:6]([H:12])[H:16]"
C       -2.20703580      -0.53304957       0.02677171
C       -1.14824150       0.51038634       0.36589862
C        0.22234297       0.09564581      -0.10135359
O        0.24137076       0.06555119      -1.49318538
C        1.34745450       0.77948297       0.45990340
O        2.49090920      -0.85637392      -0.21798371
H       -3.20046774      -0.18935822       0.32063340
H       -2.22751495      -0.74297903      -1.04271016
H       -2.01936644      -1.47192996       0.55281198
H       -1.40985728       1.46386898      -0.10380913
H       -1.11822617       0.68165516       1.44454412
H        1.22407697      -1.42595831       0.13076773
H        1.14461969      -0.18567624      -1.73975565
H        1.28929659       1.01315382       1.52068161
H        1.96682011       1.45685325      -0.11541633
H        3.40381911      -0.66127226      -0.00779863
