13
Frame=0 idx=003889 GeodesicLength=0.0 rxn_smarts="[O:1]([C:2]([C:3]([N:4]([C:5](=[O:6])[H:13])[H:12])([H:10])[H:11])([H:8])[H:9])[H:7]>>[O:1]([C:2]([O+:6]=[C:5]([N:4]([C-:3]([H:10])[H:11])[H:12])[H:13])([H:8])[H:9])[H:7]"
O       -1.54177398      -0.57875756       1.61791864
C       -0.88916629      -1.14208997       0.60678361
C       -0.44545268       1.03650017      -0.97893731
N        0.90331551       0.78755495      -1.02128534
C        1.52143016       0.13380004      -0.04923434
O        0.84358111      -0.20907368       0.96039275
H       -0.93749111      -0.49676910       2.36449841
H       -1.44055934      -1.10947534      -0.31839834
H       -0.28656477      -2.01997215       0.79864990
H       -0.84109269       1.32770157      -0.01720424
H       -0.84332663       1.51377791      -1.86399166
H        1.40570559       0.93494279      -1.88185989
H        2.55139512      -0.17813963      -0.21733214
13
Frame=1 idx=003889 GeodesicLength=0.054798347931729975 rxn_smarts="[O:1]([C:2]([C:3]([N:4]([C:5](=[O:6])[H:13])[H:12])([H:10])[H:11])([H:8])[H:9])[H:7]>>[O:1]([C:2]([O+:6]=[C:5]([N:4]([C-:3]([H:10])[H:11])[H:12])[H:13])([H:8])[H:9])[H:7]"
O       -1.53522452      -0.58036723       1.61863378
C       -0.88250755      -1.12121991       0.59088907
C       -0.45053248       1.02181645      -0.97009294
N        0.90232548       0.78662750      -1.01046495
C        1.52783941       0.14171310      -0.03633765
O        0.85372812      -0.20847048       0.97491022
H       -0.92338915      -0.49379082       2.35847384
H       -1.46021891      -1.10244558      -0.31943492
H       -0.29413135      -2.01418626       0.76262100
H       -0.84102397       1.34406614      -0.01582152
H       -0.85170329       1.47713798      -1.86523933
H        1.40095625       0.92727527      -1.87428913
H        2.55388195      -0.17815615      -0.21384747
13
Frame=2 idx=003889 GeodesicLength=0.10949327054162644 rxn_smarts="[O:1]([C:2]([C:3]([N:4]([C:5](=[O:6])[H:13])[H:12])([H:10])[H:11])([H:8])[H:9])[H:7]>>[O:1]([C:2]([O+:6]=[C:5]([N:4]([C-:3]([H:10])[H:11])[H:12])[H:13])([H:8])[H:9])[H:7]"
O       -1.52862962      -0.58226374       1.61932527
C       -0.87617921      -1.10089384       0.57553174
C       -0.45547846       1.00770283      -0.96129029
N        0.90116613       0.78543893      -0.99999518
C        1.53372775       0.14845306      -0.02430335
O        0.86356327      -0.20884646       0.98869821
H       -0.90952687      -0.49026591       2.35239137
H       -1.47877065      -1.09561312      -0.31973794
H       -0.30200141      -2.00800415       0.72735824
H       -0.84134979       1.35974557      -0.01533769
H       -0.85941707       1.44162090      -1.86583960
H        1.39631977       0.92006759      -1.86671485
H        2.55657616      -0.17714166      -0.21008593
13
Frame=3 idx=003889 GeodesicLength=0.16413387148624 rxn_smarts="[O:1]([C:2]([C:3]([N:4]([C:5](=[O:6])[H:13])[H:12])([H:10])[H:11])([H:8])[H:9])[H:7]>>[O:1]([C:2]([O+:6]=[C:5]([N:4]([C-:3]([H:10])[H:11])[H:12])[H:13])([H:8])[H:9])[H:7]"
O       -1.52201792      -0.58451408       1.61997091
C       -0.87007101      -1.08109785       0.56068620
C       -0.46032031       0.99419626      -0.95253697
N        0.89987039       0.78419282      -0.98974860
C        1.53917568       0.15439066      -0.01286263
O        0.87309317      -0.20997710       1.00192944
H       -0.89600395      -0.48619115       2.34627092
H       -1.49610493      -1.08895019      -0.31944514
H       -0.30997762      -2.00141835       0.69284764
H       -0.84214849       1.37479755      -0.01569094
H       -0.86655057       1.40706175      -1.86592871
H        1.39178861       0.91333293      -1.85908528
H        2.55926694      -0.17582325      -0.20640685
13
Frame=4 idx=003889 GeodesicLength=0.21873247932041037 rxn_smarts="[O:1]([C:2]([C:3]([N:4]([C:5](=[O:6])[H:13])[H:12])([H:10])[H:11])([H:8])[H:9])[H:7]>>[O:1]([C:2]([O+:6]=[C:5]([N:4]([C-:3]([H:10])[H:11])[H:12])[H:13])([H:8])[H:9])[H:7]"
O       -1.51536646      -0.58714887       1.62058255
C       -0.86418254      -1.06180883       0.54632111
C       -0.46505425       0.98130010      -0.94381537
N        0.89845529       0.78287171      -0.97971482
C        1.54419235       0.15954735      -0.00199353
O        0.88231553      -0.21190150       1.01458930
H       -0.88278160      -0.48158934       2.34010896
H       -1.51230123      -1.08237396      -0.31863733
H       -0.31809104      -1.99446245       0.65900390
H       -0.84336464       1.38930779      -0.01675594
H       -0.87314529       1.37343924      -1.86552747
H        1.38728413       0.90679082      -1.85150344
H        2.56203974      -0.17397205      -0.20265793
13
Frame=5 idx=003889 GeodesicLength=0.2733250675248901 rxn_smarts="[O:1]([C:2]([C:3]([N:4]([C:5](=[O:6])[H:13])[H:12])([H:10])[H:11])([H:8])[H:9])[H:7]>>[O:1]([C:2]([O+:6]=[C:5]([N:4]([C-:3]([H:10])[H:11])[H:12])[H:13])([H:8])[H:9])[H:7]"
O       -1.50863235      -0.59012194       1.62124103
C       -0.85861098      -1.04300682       0.53239924
C       -0.46967870       0.96900562      -0.93512871
N        0.89693611       0.78135857      -0.96993885
C        1.54885020       0.16375296       0.00825968
O        0.89130259      -0.21481711       1.02662163
H       -0.86977061      -0.47653062       2.33394299
H       -1.52761787      -1.07570758      -0.31734578
H       -0.32653260      -1.98723731       0.62566714
H       -0.84482423       1.40332829      -0.01842798
H       -0.87927716       1.34064161      -1.86469082
H        1.38274305       0.90022630      -1.84410678
H        2.56511256      -0.17089196      -0.19849279
13
Frame=6 idx=003889 GeodesicLength=0.3279318687260587 rxn_smarts="[O:1]([C:2]([C:3]([N:4]([C:5](=[O:6])[H:13])[H:12])([H:10])[H:11])([H:8])[H:9])[H:7]>>[O:1]([C:2]([O+:6]=[C:5]([N:4]([C-:3]([H:10])[H:11])[H:12])[H:13])([H:8])[H:9])[H:7]"
O       -1.50177630      -0.59345546       1.62202993
C       -0.85331918      -1.02467726       0.51894066
C       -0.47418118       0.95722945      -0.92654131
N        0.89534757       0.77981810      -0.96031027
C        1.55308300       0.16718433       0.01789094
O        0.90002005      -0.21854274       1.03804147
H       -0.85692040      -0.47095421       2.32777572
H       -1.54231093      -1.06890915      -0.31555388
H       -0.33519749      -1.97980821       0.59282153
H       -0.84661008       1.41685371      -0.02077347
H       -0.88497230       1.30828026      -1.86359127
H        1.37840168       0.89416231      -1.83651419
H        2.56843556      -0.16718112      -0.19421587
13
Frame=7 idx=003889 GeodesicLength=0.38257549344888914 rxn_smarts="[O:1]([C:2]([C:3]([N:4]([C:5](=[O:6])[H:13])[H:12])([H:10])[H:11])([H:8])[H:9])[H:7]>>[O:1]([C:2]([O+:6]=[C:5]([N:4]([C-:3]([H:10])[H:11])[H:12])[H:13])([H:8])[H:9])[H:7]"
O       -1.49489006      -0.59729982       1.62268441
C       -0.84803370      -1.00681832       0.50588972
C       -0.47866813       0.94605755      -0.91798719
N        0.89365607       0.77841488      -0.95073518
C        1.55705736       0.17037977       0.02742174
O        0.90848466      -0.22277627       1.04917072
H       -0.84454824      -0.46470593       2.32155840
H       -1.55566444      -1.06225257      -0.31353974
H       -0.34367274      -1.97198352       0.56063707
H       -0.84889877       1.42994418      -0.02366094
H       -0.89024553       1.27680074      -1.86209865
H        1.37399173       0.88817860      -1.82899902
H        2.57143178      -0.16393928      -0.19034133
13
Frame=8 idx=003889 GeodesicLength=0.43728187742275976 rxn_smarts="[O:1]([C:2]([C:3]([N:4]([C:5](=[O:6])[H:13])[H:12])([H:10])[H:11])([H:8])[H:9])[H:7]>>[O:1]([C:2]([O+:6]=[C:5]([N:4]([C-:3]([H:10])[H:11])[H:12])[H:13])([H:8])[H:9])[H:7]"
O       -1.48790399      -0.60160416       1.62336451
C       -0.84293862      -0.98940406       0.49321671
C       -0.48307420       0.93541804      -0.90947902
N        0.89189019       0.77695162      -0.94131445
C        1.56074647       0.17301508       0.03660454
O        0.91673410      -0.22780194       1.05982284
H       -0.83244321      -0.45786401       2.31532952
H       -1.56824904      -1.05552596      -0.31122322
H       -0.35225934      -1.96387973       0.52886109
H       -0.85146254       1.44263084      -0.02704234
H       -0.89515556       1.24601874      -1.86022782
H        1.36955054       0.88210497      -1.82159756
H        2.57456520      -0.16005944      -0.18631480
13
Frame=9 idx=003889 GeodesicLength=0.4920340237274295 rxn_smarts="[O:1]([C:2]([C:3]([N:4]([C:5](=[O:6])[H:13])[H:12])([H:10])[H:11])([H:8])[H:9])[H:7]>>[O:1]([C:2]([O+:6]=[C:5]([N:4]([C-:3]([H:10])[H:11])[H:12])[H:13])([H:8])[H:9])[H:7]"
O       -1.48083404      -0.60645072       1.62403772
C       -0.83797416      -0.97248155       0.48086821
C       -0.48744704       0.92526036      -0.90103192
N        0.89010303       0.77562698      -0.93192883
C        1.56437940       0.17544537       0.04557739
O        0.92493631      -0.23338501       1.07008622
H       -0.82085127      -0.45033648       2.30908683
H       -1.58010431      -1.04879427      -0.30855849
H       -0.36085686      -1.95552891       0.49752947
H       -0.85424861       1.45491198      -0.03105254
H       -0.89983847       1.21573305      -1.85799989
H        1.36512760       0.87629886      -1.81412512
H        2.57760842      -0.15629967      -0.18248905
13
Frame=10 idx=003889 GeodesicLength=0.5468365592872574 rxn_smarts="[O:1]([C:2]([C:3]([N:4]([C:5](=[O:6])[H:13])[H:12])([H:10])[H:11])([H:8])[H:9])[H:7]>>[O:1]([C:2]([O+:6]=[C:5]([N:4]([C-:3]([H:10])[H:11])[H:12])[H:13])([H:8])[H:9])[H:7]"
O       -1.47327102      -0.61164996       1.62528404
C       -0.83348812      -0.95593272       0.46906860
C       -0.49167170       0.91548804      -0.89282860
N        0.88820386       0.77379498      -0.92286385
C        1.56728910       0.17614902       0.05356504
O        0.93274305      -0.24050472       1.07946178
H       -0.80880049      -0.44222770       2.30264351
H       -1.59218154      -1.04119884      -0.30534141
H       -0.37027077      -1.94730294       0.46608468
H       -0.85714929       1.46666705      -0.03525536
H       -0.90392678       1.18576709      -1.85583556
H        1.36085049       0.87035818      -1.80673672
H        2.58167322      -0.14940748      -0.17724616
13
Frame=11 idx=003889 GeodesicLength=0.6016827690299806 rxn_smarts="[O:1]([C:2]([C:3]([N:4]([C:5](=[O:6])[H:13])[H:12])([H:10])[H:11])([H:8])[H:9])[H:7]>>[O:1]([C:2]([O+:6]=[C:5]([N:4]([C-:3]([H:10])[H:11])[H:12])[H:13])([H:8])[H:9])[H:7]"
O       -1.46555379      -0.61751885       1.62652925
C       -0.82899279      -0.93985389       0.45760593
C       -0.49587610       0.90613737      -0.88471076
N        0.88627277       0.77218821      -0.91375818
C        1.57006590       0.17686306       0.06154593
O        0.94041303      -0.24803644       1.08858805
H       -0.79729297      -0.43318659       2.29610683
H       -1.60344059      -1.03370559      -0.30188958
H       -0.37945727      -1.93876164       0.43506027
H       -0.86048402       1.47803805      -0.03996655
H       -0.90772553       1.15632326      -1.85336843
H        1.35665931       0.86480382      -1.79921996
H        2.58541204      -0.14329077      -0.17252281
13
Frame=12 idx=003889 GeodesicLength=0.6565991627770623 rxn_smarts="[O:1]([C:2]([C:3]([N:4]([C:5](=[O:6])[H:13])[H:12])([H:10])[H:11])([H:8])[H:9])[H:7]>>[O:1]([C:2]([O+:6]=[C:5]([N:4]([C-:3]([H:10])[H:11])[H:12])[H:13])([H:8])[H:9])[H:7]"
O       -1.45757672      -0.62399619       1.62782128
C       -0.82458821      -0.92423020       0.44645806
C       -0.50008335       0.89715842      -0.87667572
N        0.88428398       0.77062446      -0.90467318
C        1.57269245       0.17724138       0.06935048
O        0.94798252      -0.25626255       1.09732501
H       -0.78621312      -0.42318561       2.28940614
H       -1.61409497      -1.02619308      -0.29815440
H       -0.38866404      -1.93000893       0.40438312
H       -0.86407881       1.48900860      -0.04513583
H       -0.91123991       1.12745624      -1.85059832
H        1.35247442       0.85946277      -1.79163839
H        2.58910575      -0.13707531      -0.16786823
13
Frame=13 idx=003889 GeodesicLength=0.7115887819822178 rxn_smarts="[O:1]([C:2]([C:3]([N:4]([C:5](=[O:6])[H:13])[H:12])([H:10])[H:11])([H:8])[H:9])[H:7]>>[O:1]([C:2]([O+:6]=[C:5]([N:4]([C-:3]([H:10])[H:11])[H:12])[H:13])([H:8])[H:9])[H:7]"
O       -1.44929029      -0.63110227       1.62920331
C       -0.82025297      -0.90905052       0.43564104
C       -0.50428404       0.88850213      -0.86875194
N        0.88223827       0.76911191      -0.89559841
C        1.57511049       0.17725687       0.07699149
O        0.95540578      -0.26516035       1.10570246
H       -0.77553382      -0.41214283       2.28249905
H       -1.62419502      -1.01866830      -0.29414180
H       -0.39785192      -1.92106254       0.37405334
H       -0.86799920       1.49955596      -0.05070763
H       -0.91442727       1.09915162      -1.84758876
H        1.34836364       0.85447627      -1.78396613
H        2.59271636      -0.13086796      -0.16333602
13
Frame=14 idx=003889 GeodesicLength=0.7666324342290359 rxn_smarts="[O:1]([C:2]([C:3]([N:4]([C:5](=[O:6])[H:13])[H:12])([H:10])[H:11])([H:8])[H:9])[H:7]>>[O:1]([C:2]([O+:6]=[C:5]([N:4]([C-:3]([H:10])[H:11])[H:12])[H:13])([H:8])[H:9])[H:7]"
O       -1.44060560      -0.63881363       1.63068771
C       -0.81597516      -0.89432823       0.42514586
C       -0.50848774       0.88012140      -0.86094977
N        0.88012563       0.76763818      -0.88652098
C        1.57732758       0.17687296       0.08444403
O        0.96270185      -0.27472205       1.11370691
H       -0.76527570      -0.40002068       2.27533356
H       -1.63380906      -1.01113744      -0.28982995
H       -0.40704845      -1.91197170       0.34407987
H       -0.87221972       1.50967603      -0.05669595
H       -0.91728663       1.07140745      -1.84436000
H        1.34433468       0.84994516      -1.77615383
H        2.59621832      -0.12466746      -0.15888746
13
Frame=15 idx=003889 GeodesicLength=0.8217234800276395 rxn_smarts="[O:1]([C:2]([C:3]([N:4]([C:5](=[O:6])[H:13])[H:12])([H:10])[H:11])([H:8])[H:9])[H:7]>>[O:1]([C:2]([O+:6]=[C:5]([N:4]([C-:3]([H:10])[H:11])[H:12])[H:13])([H:8])[H:9])[H:7]"
O       -1.43146028      -0.64709877       1.63229820
C       -0.81174360      -0.88005608       0.41496919
C       -0.51270034       0.87197447      -0.85329250
N        0.87795289       0.76621712      -0.87742693
C        1.57934322       0.17608799       0.09171575
O        0.96986766      -0.28490405       1.12136166
H       -0.75545053      -0.38684293       2.26787898
H       -1.64299289      -1.00361074      -0.28519936
H       -0.41625073      -1.90275132       0.31447800
H       -0.87676362       1.51935926      -0.06309787
H       -0.91981017       1.04420626      -1.84096347
H        1.34042755       0.84598154      -1.76817357
H        2.59958085      -0.11856275      -0.15454808
13
Frame=16 idx=003889 GeodesicLength=0.8768497133833648 rxn_smarts="[O:1]([C:2]([C:3]([N:4]([C:5](=[O:6])[H:13])[H:12])([H:10])[H:11])([H:8])[H:9])[H:7]>>[O:1]([C:2]([O+:6]=[C:5]([N:4]([C-:3]([H:10])[H:11])[H:12])[H:13])([H:8])[H:9])[H:7]"
O       -1.42179318      -0.65588208       1.63404346
C       -0.80754775      -0.86621694       0.40510354
C       -0.51692677       0.86402847      -0.84580510
N        0.87572367       0.76486792      -0.86830363
C        1.58116331       0.17491875       0.09881597
O        0.97690122      -0.29563676       1.12869267
H       -0.74606504      -0.37273506       2.26012361
H       -1.65179094      -0.99609627      -0.28022682
H       -0.42546471      -1.89340814       0.28528186
H       -0.88163872       1.52860852      -0.06993739
H       -0.92198994       1.01752166      -1.83745013
H        1.33666706       0.84267629      -1.75999980
H        2.60276179      -0.11264635      -0.15033824
