12
Frame=0 idx=001921 GeodesicLength=0.0 rxn_smarts="[C:1]([C:2]([C:3]([H:9])([H:10])[H:11])([O:4][H:12])[H:8])([H:5])([H:6])[H:7]>>[C:1]([C:2]([C:3]([H:9])([H:10])[H:11])=[O:4])([H:5])([H:6])[H:7].[H:8][H:12]"
C       -1.09603066      -0.55112063       0.54332588
C       -0.09152572       0.40867969      -0.04992198
C        1.33561862      -0.08465844      -0.09483176
O       -0.27926902       1.70063005       0.18008565
H       -2.10755532      -0.18280220       0.38537755
H       -0.99316239      -1.56566987       0.15675048
H       -0.90384492      -0.55691598       1.61982963
H       -0.43153983       0.25486484      -1.45848987
H        1.42012680      -1.10360532      -0.47465979
H        1.95100108       0.59295297      -0.68291968
H        1.69406458      -0.05690242       0.93770679
H       -0.49788319       1.14454733      -1.06225294
12
Frame=1 idx=001921 GeodesicLength=0.10227129840517082 rxn_smarts="[C:1]([C:2]([C:3]([H:9])([H:10])[H:11])([O:4][H:12])[H:8])([H:5])([H:6])[H:7]>>[C:1]([C:2]([C:3]([H:9])([H:10])[H:11])=[O:4])([H:5])([H:6])[H:7].[H:8][H:12]"
C       -1.09196527      -0.55347256       0.54770622
C       -0.09086291       0.40318076      -0.05665211
C        1.33816888      -0.08754419      -0.08763085
O       -0.27785165       1.69500561       0.17162553
H       -2.10396161      -0.18417092       0.39494246
H       -0.99283183      -1.56808632       0.16007680
H       -0.89440612      -0.56257647       1.62312043
H       -0.45388210       0.26937381      -1.48118269
H        1.42706007      -1.10677081      -0.46597998
H        1.96036456       0.58911320      -0.66983085
H        1.69189121      -0.06308618       0.94667835
H       -0.51172323       1.16903407      -1.08287330
12
Frame=2 idx=001921 GeodesicLength=0.20430036408061314 rxn_smarts="[C:1]([C:2]([C:3]([H:9])([H:10])[H:11])([O:4][H:12])[H:8])([H:5])([H:6])[H:7]>>[C:1]([C:2]([C:3]([H:9])([H:10])[H:11])=[O:4])([H:5])([H:6])[H:7].[H:8][H:12]"
C       -1.08772976      -0.55598665       0.55204642
C       -0.08993334       0.39720718      -0.06354748
C        1.34095625      -0.09064503      -0.08017931
O       -0.27629709       1.68899795       0.16253857
H       -2.10012106      -0.18565259       0.40425029
H       -0.99236392      -1.57072642       0.16354372
H       -0.88497944      -0.56818731       1.62637045
H       -0.47747324       0.28470297      -1.50379760
H        1.43434429      -1.11022909      -0.45676671
H        1.96981335       0.58494981      -0.65664971
H        1.68983258      -0.06910342       0.95589896
H       -0.52604862       1.19467261      -1.10370761
12
Frame=3 idx=001921 GeodesicLength=0.30621661606261996 rxn_smarts="[C:1]([C:2]([C:3]([H:9])([H:10])[H:11])([O:4][H:12])[H:8])([H:5])([H:6])[H:7]>>[C:1]([C:2]([C:3]([H:9])([H:10])[H:11])=[O:4])([H:5])([H:6])[H:7].[H:8][H:12]"
C       -1.08331291      -0.55868059       0.55633788
C       -0.08870850       0.39071009      -0.07061995
C        1.34400241      -0.09398292      -0.07245906
O       -0.27459746       1.68257121       0.15272971
H       -2.09602155      -0.18726101       0.41327152
H       -0.99174439      -1.57361796       0.16716527
H       -0.87557088      -0.57374165       1.62958005
H       -0.50240640       0.30094241      -1.52628327
H        1.44201462      -1.11401333      -0.44696073
H        1.97937105       0.58043170      -0.64337374
H        1.68789648      -0.07493585       0.96539351
H       -0.54092246       1.22157791      -1.12478118
12
Frame=4 idx=001921 GeodesicLength=0.4081150983452561 rxn_smarts="[C:1]([C:2]([C:3]([H:9])([H:10])[H:11])([O:4][H:12])[H:8])([H:5])([H:6])[H:7]>>[C:1]([C:2]([C:3]([H:9])([H:10])[H:11])=[O:4])([H:5])([H:6])[H:7].[H:8][H:12]"
C       -1.07870055      -0.56157422       0.56056574
C       -0.08715597       0.38363207      -0.07789830
C        1.34733382      -0.09758503      -0.06444893
O       -0.27273765       1.67568041       0.14208634
H       -2.09164895      -0.18901127       0.42197226
H       -0.99095782      -1.57679174       0.17095726
H       -0.86618226      -0.57922531       1.63274378
H       -0.52878216       0.31819904      -1.54858159
H        1.45011278      -1.11816450      -0.43648781
H        1.98906743       0.57551953      -0.62999737
H        1.68608664      -0.08055649       0.97519068
H       -0.55643532       1.24987752      -1.14610205
12
Frame=5 idx=001921 GeodesicLength=0.5100460226793064 rxn_smarts="[C:1]([C:2]([C:3]([H:9])([H:10])[H:11])([O:4][H:12])[H:8])([H:5])([H:6])[H:7]>>[C:1]([C:2]([C:3]([H:9])([H:10])[H:11])=[O:4])([H:5])([H:6])[H:7].[H:8][H:12]"
C       -1.07387821      -0.56468574       0.56471482
C       -0.08524457       0.37591552      -0.08540944
C        1.35097300      -0.10147680      -0.05612982
O       -0.27070572       1.66827973       0.13048678
H       -2.08698758      -0.19091942       0.43031324
H       -0.98999007      -1.58027776       0.17494166
H       -0.85682139      -0.58462174       1.63585511
H       -0.55668777       0.33657828      -1.57062902
H        1.45867950      -1.12272201      -0.42527616
H        1.99893122       0.57017629      -0.61651850
H        1.68440707      -0.08593964       0.98531677
H       -0.57267547       1.27969329      -1.16766544
12
Frame=6 idx=001921 GeodesicLength=0.6121201907056323 rxn_smarts="[C:1]([C:2]([C:3]([H:9])([H:10])[H:11])([O:4][H:12])[H:8])([H:5])([H:6])[H:7]>>[C:1]([C:2]([C:3]([H:9])([H:10])[H:11])=[O:4])([H:5])([H:6])[H:7].[H:8][H:12]"
C       -1.06882832      -0.56803965       0.56876496
C       -0.08293265       0.36748454      -0.09319358
C        1.35495296      -0.10569514      -0.04747579
O       -0.26847923       1.66030649       0.11777772
H       -2.08201884      -0.19300452       0.43824441
H       -0.98882089      -1.58411759       0.17913879
H       -0.84749183      -0.58990813       1.63890717
H       -0.58623630       0.35621897      -1.59234099
H        1.46776795      -1.12774098      -0.41322475
H        2.00899897       0.56434976      -0.60293545
H        1.68285971      -0.09104464       0.99580874
H       -0.58977152       1.31119090      -1.18947124
12
Frame=7 idx=001921 GeodesicLength=0.7144226834807345 rxn_smarts="[C:1]([C:2]([C:3]([H:9])([H:10])[H:11])([O:4][H:12])[H:8])([H:5])([H:6])[H:7]>>[C:1]([C:2]([C:3]([H:9])([H:10])[H:11])=[O:4])([H:5])([H:6])[H:7].[H:8][H:12]"
C       -1.06353229      -0.57165664       0.57269684
C       -0.08017728       0.35826578      -0.10128481
C        1.35930507      -0.11027313      -0.03845862
O       -0.26603381       1.65169922       0.10378965
H       -2.07672159      -0.19528288       0.44570958
H       -0.98742769      -1.58835363       0.18357431
H       -0.83820449      -0.59505767       1.64189657
H       -0.61752294       0.37725771      -1.61364163
H        1.47742829      -1.13327899      -0.40024257
H        2.01930841       0.55799275      -0.58924455
H        1.68144661      -0.09583784       1.00670634
H       -0.60786830       1.34452532      -1.21150110
12
Frame=8 idx=001921 GeodesicLength=0.8169420795561624 rxn_smarts="[C:1]([C:2]([C:3]([H:9])([H:10])[H:11])([O:4][H:12])[H:8])([H:5])([H:6])[H:7]>>[C:1]([C:2]([C:3]([H:9])([H:10])[H:11])=[O:4])([H:5])([H:6])[H:7].[H:8][H:12]"
C       -1.05796586      -0.57555928       0.57647350
C       -0.07692630       0.34816901      -0.10976114
C        1.36406657      -0.11525634      -0.02905254
O       -0.26332008       1.64238420       0.08831417
H       -2.07106808      -0.19777072       0.45263511
H       -0.98578789      -1.59303476       0.18827505
H       -0.82896586      -0.60002479       1.64480096
H       -0.65063751       0.39985459      -1.63442553
H        1.48772120      -1.13940416      -0.38619483
H        2.02991315       0.55103863      -0.57544423
H        1.68015176      -0.10026125       1.01804746
H       -0.62718110       1.37986486      -1.23366798
12
Frame=9 idx=001921 GeodesicLength=0.9191779468339664 rxn_smarts="[C:1]([C:2]([C:3]([H:9])([H:10])[H:11])([O:4][H:12])[H:8])([H:5])([H:6])[H:7]>>[C:1]([C:2]([C:3]([H:9])([H:10])[H:11])=[O:4])([H:5])([H:6])[H:7].[H:8][H:12]"
C       -1.05208509      -0.57975351       0.57993960
C       -0.07311763       0.33700652      -0.11897322
C        1.36928166      -0.12071522      -0.01922078
O       -0.26015673       1.63205380       0.07102648
H       -2.06501283      -0.20050548       0.45887070
H       -0.98389618      -1.59817999       0.19326446
H       -0.81972045      -0.60463714       1.64741788
H       -0.68561252       0.42424496      -1.65440917
H        1.49876076      -1.14620220      -0.37066698
H        2.04092282       0.54324338      -0.56158736
H        1.67887513      -0.10405214       1.02979945
H       -0.64823895       1.41749702      -1.25546107
12
Frame=10 idx=001921 GeodesicLength=1.0215141827255967 rxn_smarts="[C:1]([C:2]([C:3]([H:9])([H:10])[H:11])([O:4][H:12])[H:8])([H:5])([H:6])[H:7]>>[C:1]([C:2]([C:3]([H:9])([H:10])[H:11])=[O:4])([H:5])([H:6])[H:7].[H:8][H:12]"
C       -1.04588736      -0.58426552       0.58314397
C       -0.06870124       0.32472999      -0.12878870
C        1.37496764      -0.12666249      -0.00896131
O       -0.25661375       1.62080022       0.05175705
H       -2.05854982      -0.20348918       0.46434816
H       -0.98170583      -1.60386911       0.19861270
H       -0.81054880      -0.60889744       1.64987080
H       -0.72252357       0.45051831      -1.67367614
H        1.51055096      -1.15371903      -0.35374249
H        2.05233768       0.53466913      -0.54765366
H        1.67766322      -0.10728796       1.04203641
H       -0.67098912       1.45747309      -1.27694678
12
Frame=11 idx=001921 GeodesicLength=1.1239298873794237 rxn_smarts="[C:1]([C:2]([C:3]([H:9])([H:10])[H:11])([O:4][H:12])[H:8])([H:5])([H:6])[H:7]>>[C:1]([C:2]([C:3]([H:9])([H:10])[H:11])=[O:4])([H:5])([H:6])[H:7].[H:8][H:12]"
C       -1.03935163      -0.58910116       0.58603518
C       -0.06362431       0.31122865      -0.13930171
C        1.38114601      -0.13313115       0.00174399
O       -0.25262223       1.60848484       0.03028569
H       -2.05165404      -0.20673665       0.46895542
H       -0.97919636      -1.61013483       0.20437279
H       -0.80146725      -0.61271422       1.65211586
H       -0.76138683       0.47882073      -1.69215783
H        1.52313702      -1.16200314      -0.33525431
H        2.06420380       0.52522638      -0.53365647
H        1.67649176      -0.10986953       1.05476352
H       -0.69567594       1.49993007      -1.29790212
12
Frame=12 idx=001921 GeodesicLength=1.2263414066440448 rxn_smarts="[C:1]([C:2]([C:3]([H:9])([H:10])[H:11])([O:4][H:12])[H:8])([H:5])([H:6])[H:7]>>[C:1]([C:2]([C:3]([H:9])([H:10])[H:11])=[O:4])([H:5])([H:6])[H:7].[H:8][H:12]"
C       -1.03245346      -0.59426172       0.58854011
C       -0.05781869       0.29636544      -0.15065313
C        1.38784273      -0.14016128       0.01290909
O       -0.24809062       1.59495441       0.00632297
H       -2.04429859      -0.21025730       0.47254079
H       -0.97634175      -1.61701626       0.21061071
H       -0.79249994      -0.61595675       1.65408897
H       -0.80220081       0.50930509      -1.70977022
H        1.53657035      -1.17111311      -0.31499727
H        2.07658466       0.51480715      -0.51961495
H        1.67531597      -0.11166948       1.06797826
H       -0.72260986       1.54500379      -1.31795533
12
Frame=13 idx=001921 GeodesicLength=1.328665558734944 rxn_smarts="[C:1]([C:2]([C:3]([H:9])([H:10])[H:11])([O:4][H:12])[H:8])([H:5])([H:6])[H:7]>>[C:1]([C:2]([C:3]([H:9])([H:10])[H:11])=[O:4])([H:5])([H:6])[H:7].[H:8][H:12]"
C       -1.02517069      -0.59973759       0.59058794
C       -0.05122159       0.28001982      -0.16294863
C        1.39506967      -0.14777871       0.02454062
O       -0.24293286       1.58004718      -0.02044793
H       -2.03645155      -0.21405926       0.47493593
H       -0.97312140      -1.62453929       0.21740070
H       -0.78369626      -0.61848793       1.65573403
H       -0.84492033       0.54209468      -1.72646230
H        1.55088077      -1.18108967      -0.29278863
H        2.08952689       0.50331740      -0.50556676
H        1.67409817      -0.11256152       1.08166960
H       -0.75206083       1.59277490      -1.33665458
12
Frame=14 idx=001921 GeodesicLength=1.4308953578754406 rxn_smarts="[C:1]([C:2]([C:3]([H:9])([H:10])[H:11])([O:4][H:12])[H:8])([H:5])([H:6])[H:7]>>[C:1]([C:2]([C:3]([H:9])([H:10])[H:11])=[O:4])([H:5])([H:6])[H:7].[H:8][H:12]"
C       -1.01748114      -0.60552019       0.59207694
C       -0.04374357       0.26198892      -0.17638305
C        1.40285272      -0.15603015       0.03663990
O       -0.23702671       1.56356486      -0.05043709
H       -2.02808570      -0.21814976       0.47591570
H       -0.96950230      -1.63275784       0.22484290
H       -0.77509423      -0.62009757       1.65696087
H       -0.88947996       0.57735111      -1.74216576
H        1.56611498      -1.19199796      -0.26834787
H        2.10310780       0.49060882      -0.49155598
H        1.67276043      -0.11234769       1.09580978
H       -0.78442233       1.64338745      -1.35335635
12
Frame=15 idx=001921 GeodesicLength=1.5329665381604405 rxn_smarts="[C:1]([C:2]([C:3]([H:9])([H:10])[H:11])([O:4][H:12])[H:8])([H:5])([H:6])[H:7]>>[C:1]([C:2]([C:3]([H:9])([H:10])[H:11])=[O:4])([H:5])([H:6])[H:7].[H:8][H:12]"
C       -1.00937156      -0.61158151       0.59290393
C       -0.03530990       0.24208773      -0.19112523
C        1.41119049      -0.16493372       0.04919111
O       -0.23026200       1.54529560      -0.08406915
H       -2.01917833      -0.22253073       0.47523528
H       -0.96546147      -1.64170015       0.23305439
H       -0.76675865      -0.62055187       1.65767445
H       -0.93574680       0.61516223      -1.75685255
H        1.58228139      -1.20385780      -0.24143277
H        2.11737745       0.47656169      -0.47764855
H        1.67122012      -0.11082769       1.11033651
H       -0.81998073       1.69687623      -1.36726742
12
Frame=16 idx=001921 GeodesicLength=1.6348214824277862 rxn_smarts="[C:1]([C:2]([C:3]([H:9])([H:10])[H:11])([O:4][H:12])[H:8])([H:5])([H:6])[H:7]>>[C:1]([C:2]([C:3]([H:9])([H:10])[H:11])=[O:4])([H:5])([H:6])[H:7].[H:8][H:12]"
C       -1.00084311      -0.61788117       0.59294655
C       -0.02583997       0.22008684      -0.20737683
C        1.42007415      -0.17449955       0.06215801
O       -0.22253858       1.52496631      -0.12190313
H       -2.00973163      -0.22721071       0.47258684
H       -0.96096464      -1.65139638       0.24219015
H       -0.75877654      -0.61953356       1.65776381
H       -0.98356406       0.65560637      -1.77054163
H        1.59938363      -1.21667458      -0.21176600
H        2.13238190       0.46104524      -0.46393689
H        1.66937239      -0.10773626       1.12515287
H       -0.85895354       1.75322745      -1.37727375
