7
Frame=0 idx=004964 GeodesicLength=0.0 rxn_smarts="[O:1]=[C:2]([C:3]#[C:4][H:7])[C:5]#[N:6]>>[O:1]=[C:2]([C:3]#[C:4][H:7])[N+:6]#[C-:5]"
O       -1.10315831      -1.02939528       1.31369620
C       -0.67481138      -0.38744353       0.43537106
C        0.67181896      -0.04906401       0.11341688
C        1.80245566       0.23054029      -0.15641171
C       -1.71670605      -0.09687438      -1.00493539
N       -1.79134535       0.85337911      -0.30749202
H        2.81174646       0.47885780      -0.39364501
7
Frame=1 idx=004964 GeodesicLength=0.43615406598859635 rxn_smarts="[O:1]=[C:2]([C:3]#[C:4][H:7])[C:5]#[N:6]>>[O:1]=[C:2]([C:3]#[C:4][H:7])[N+:6]#[C-:5]"
O       -1.07143249      -1.03773527       1.31019461
C       -0.66335967      -0.39246221       0.42354535
C        0.69223427      -0.07080640       0.11631483
C        1.81603067       0.23331569      -0.15722006
C       -1.74121665      -0.14312472      -1.00021128
N       -1.86470093       0.93780021      -0.32003469
H        2.83244478       0.47301269      -0.37258875
7
Frame=2 idx=004964 GeodesicLength=0.8724068300783252 rxn_smarts="[O:1]=[C:2]([C:3]#[C:4][H:7])[C:5]#[N:6]>>[O:1]=[C:2]([C:3]#[C:4][H:7])[N+:6]#[C-:5]"
O       -1.04035221      -1.06095825       1.29282606
C       -0.64903348      -0.39138275       0.41540523
C        0.71165111      -0.04015202       0.16068336
C        1.83541912       0.23086217      -0.14755993
C       -1.73872977      -0.18827368      -1.00910708
N       -1.97376911       1.01381550      -0.32810601
H        2.85481433       0.43608902      -0.38414163
7
Frame=3 idx=004964 GeodesicLength=1.3064018888612683 rxn_smarts="[O:1]=[C:2]([C:3]#[C:4][H:7])[C:5]#[N:6]>>[O:1]=[C:2]([C:3]#[C:4][H:7])[N+:6]#[C-:5]"
O       -1.01940833      -1.05366862       1.30140148
C       -0.63327822      -0.41844852       0.39515450
C        0.74145908      -0.11990126       0.14121694
C        1.85717670       0.21916387      -0.12782436
C       -1.77748972      -0.24399581      -0.99245867
N       -2.03078938       1.13331987      -0.35036023
H        2.86232987       0.48353047      -0.36712967
7
Frame=4 idx=004964 GeodesicLength=1.7393938935451827 rxn_smarts="[O:1]=[C:2]([C:3]#[C:4][H:7])[C:5]#[N:6]>>[O:1]=[C:2]([C:3]#[C:4][H:7])[N+:6]#[C-:5]"
O       -0.99309026      -1.06326200       1.28925956
C       -0.61191322      -0.43351532       0.37573132
C        0.76857791      -0.11994636       0.16829680
C        1.88968044       0.21057202      -0.09130576
C       -1.78346822      -0.30034936      -0.99660376
N       -2.15212724       1.23944592      -0.35921883
H        2.88234058       0.46705510      -0.38615933
7
Frame=5 idx=004964 GeodesicLength=2.170846191359186 rxn_smarts="[O:1]=[C:2]([C:3]#[C:4][H:7])[C:5]#[N:6]>>[O:1]=[C:2]([C:3]#[C:4][H:7])[N+:6]#[C-:5]"
O       -0.96070351      -1.05878301       1.27611446
C       -0.58302071      -0.45407906       0.34301527
C        0.79857753      -0.11511024       0.17937618
C        1.93424620       0.19811276      -0.03881403
C       -1.79301365      -0.36793126      -1.00226369
N       -2.30472925       1.35606830      -0.35755436
H        2.90864340       0.44172251      -0.39987383
7
Frame=6 idx=004964 GeodesicLength=2.597536052123076 rxn_smarts="[O:1]=[C:2]([C:3]#[C:4][H:7])[C:5]#[N:6]>>[O:1]=[C:2]([C:3]#[C:4][H:7])[N+:6]#[C-:5]"
O       -0.92896696      -1.02086733       1.28439568
C       -0.55115247      -0.51234126       0.29409281
C        0.83824098      -0.19859643       0.13046574
C        1.96956164       0.17047100      -0.01094251
C       -1.83913163      -0.46868592      -0.98037889
N       -2.41398146       1.52926610      -0.36212316
H        2.92542989       0.50075384      -0.35550968
7
Frame=7 idx=004964 GeodesicLength=3.038193276279194 rxn_smarts="[O:1]=[C:2]([C:3]#[C:4][H:7])[C:5]#[N:6]>>[O:1]=[C:2]([C:3]#[C:4][H:7])[N+:6]#[C-:5]"
O       -0.89479084      -0.92313919       1.27249727
C       -0.50561000      -0.56892580       0.21873099
C        0.87574866      -0.20391562       0.08098726
C        2.01448763       0.16598463       0.00875333
C       -1.84890093      -0.60987755      -0.99778885
N       -2.64309692       1.69286711      -0.29689121
H        3.00216239       0.44700642      -0.28628879
7
Frame=8 idx=004964 GeodesicLength=3.4581961434248236 rxn_smarts="[O:1]=[C:2]([C:3]#[C:4][H:7])[C:5]#[N:6]>>[O:1]=[C:2]([C:3]#[C:4][H:7])[N+:6]#[C-:5]"
O       -0.88184633      -0.73617588       1.23173389
C       -0.45546248      -0.64247298       0.13651416
C        0.92039325      -0.24181039      -0.00417375
C        2.06478771       0.12950133       0.01913245
C       -1.83498048      -0.83751797      -1.03369015
N       -2.88505701       1.90159976      -0.16884660
H        3.07216534       0.42687613      -0.18067001
7
Frame=9 idx=004964 GeodesicLength=3.8504950204414072 rxn_smarts="[O:1]=[C:2]([C:3]#[C:4][H:7])[C:5]#[N:6]>>[O:1]=[C:2]([C:3]#[C:4][H:7])[N+:6]#[C-:5]"
O       -0.92696760      -0.40436711       1.06051769
C       -0.41141731      -0.70798996       0.03889846
C        0.99921698      -0.37695889      -0.09279109
C        2.09530777       0.10229876       0.01688601
C       -1.76845280      -1.26388021      -1.07391939
N       -3.09097403       2.19935111       0.08305500
H        3.10328699       0.45154631      -0.03264668
7
Frame=10 idx=004964 GeodesicLength=4.14443762371352 rxn_smarts="[O:1]=[C:2]([C:3]#[C:4][H:7])[C:5]#[N:6]>>[O:1]=[C:2]([C:3]#[C:4][H:7])[N+:6]#[C-:5]"
O       -0.95036834       0.14798695       0.48524724
C       -0.34930181      -0.67779240      -0.14567955
C        1.11380656      -0.51879037      -0.14027764
C        2.20948939      -0.05437100       0.05403024
C       -1.69288284      -1.73260467      -0.90957642
N       -3.49587140       2.43048635       0.46679262
H        3.16512845       0.40508514       0.18946352
7
Frame=11 idx=004964 GeodesicLength=4.507279169373078 rxn_smarts="[O:1]=[C:2]([C:3]#[C:4][H:7])[C:5]#[N:6]>>[O:1]=[C:2]([C:3]#[C:4][H:7])[N+:6]#[C-:5]"
O       -0.73082189       0.76287865       0.05279618
C       -0.34427859      -0.35033844      -0.17489303
C        1.12768851      -0.51520138      -0.12842563
C        2.28085401      -0.23463532       0.07399572
C       -1.91969171      -1.30736310      -0.57448415
N       -3.70574809       1.59959221       0.46244887
H        3.29199776       0.04506737       0.28856204
7
Frame=12 idx=004964 GeodesicLength=5.175888929847369 rxn_smarts="[O:1]=[C:2]([C:3]#[C:4][H:7])[C:5]#[N:6]>>[O:1]=[C:2]([C:3]#[C:4][H:7])[N+:6]#[C-:5]"
O       -0.59309516       0.99612963      -0.69759552
C       -0.40490180      -0.08640927      -0.24930703
C        0.97831738      -0.40854872       0.05550601
C        2.16716948      -0.30110711       0.20485029
C       -2.02844102      -0.99678827      -0.37471193
N       -3.32611591       0.93426019       0.67331098
H        3.20706703      -0.13753646       0.38794720
7
Frame=13 idx=004964 GeodesicLength=5.881406339328259 rxn_smarts="[O:1]=[C:2]([C:3]#[C:4][H:7])[C:5]#[N:6]>>[O:1]=[C:2]([C:3]#[C:4][H:7])[N+:6]#[C-:5]"
O       -0.58249011       1.04558948      -1.00173624
C       -0.46811767       0.09779142      -0.28773265
C        0.87703168      -0.26079327       0.11628691
C        2.06940122      -0.29359715       0.26268171
C       -2.05773848      -0.88934182      -0.27331540
N       -2.95749152       0.59362450       0.72844929
H        3.11940488      -0.29327315       0.45536637
7
Frame=14 idx=004964 GeodesicLength=6.629451875128069 rxn_smarts="[O:1]=[C:2]([C:3]#[C:4][H:7])[C:5]#[N:6]>>[O:1]=[C:2]([C:3]#[C:4][H:7])[N+:6]#[C-:5]"
O       -0.61314671       1.07909572      -1.19803958
C       -0.52080668       0.23200218      -0.35722213
C        0.80223311      -0.15636023       0.09139668
C        1.97747868      -0.27365905       0.31299598
C       -2.05923994      -0.83700566      -0.19390845
N       -2.59304074       0.36461589       0.78445719
H        3.00652228      -0.40868887       0.56032029
7
Frame=15 idx=004964 GeodesicLength=7.4817411087640675 rxn_smarts="[O:1]=[C:2]([C:3]#[C:4][H:7])[C:5]#[N:6]>>[O:1]=[C:2]([C:3]#[C:4][H:7])[N+:6]#[C-:5]"
O       -0.67640609       1.12291607      -1.31603755
C       -0.56411166       0.32618605      -0.43098757
C        0.75236433      -0.02783312       0.06340426
C        1.89000119      -0.27128346       0.35016979
C       -2.02928585      -0.81960301      -0.09190655
N       -2.25555138       0.19198791       0.77463548
H        2.88298945      -0.52237044       0.65072214
7
Frame=16 idx=004964 GeodesicLength=8.296307509685688 rxn_smarts="[O:1]=[C:2]([C:3]#[C:4][H:7])[C:5]#[N:6]>>[O:1]=[C:2]([C:3]#[C:4][H:7])[N+:6]#[C-:5]"
O       -0.73742542       1.16863239      -1.38080013
C       -0.59925679       0.40433700      -0.46740711
C        0.71900922       0.01964024       0.00232584
C        1.81308591      -0.28723494       0.37800244
C       -1.98676118      -0.81064203       0.00295872
N       -1.98565885       0.07997569       0.73375876
H        2.77700712      -0.57470835       0.73116148
