14
Frame=0 idx=003758 GeodesicLength=0.0 rxn_smarts="[C:1]([C@@:2]1([H:10])[O:3][C@@:4]2([H:11])[C:5]([H:12])([H:13])[C@@:6]12[H:14])([H:7])([H:8])[H:9]>>[C:1]([C@@:2]1([H:10])[O:3][C:4]([H:11])=[C:5]([H:12])[C:6]1([H:13])[H:14])([H:7])([H:8])[H:9]"
C       -1.71545413      -0.62273514       0.23704902
C       -0.73686773       0.40390646      -0.27155964
O       -0.20359815       1.24972371       0.76458540
C        1.12918923       0.90749640       0.38537552
C        1.60820518      -0.39676522       0.82231602
C        0.66656461      -0.04290960      -0.70336363
H       -2.56770123      -0.12467182       0.70106130
H       -1.24376732      -1.26253798       0.98322651
H       -2.08275832      -1.23559402      -0.58938106
H       -1.18299594       1.02116996      -1.05847808
H        1.79221031       1.74282482       0.19001058
H        2.60774378      -0.51333665       0.37561848
H        0.85790241      -1.09638964      -0.13110930
H        1.07132730      -0.03018134      -1.70535109
14
Frame=1 idx=003758 GeodesicLength=0.0867667838782713 rxn_smarts="[C:1]([C@@:2]1([H:10])[O:3][C@@:4]2([H:11])[C:5]([H:12])([H:13])[C@@:6]12[H:14])([H:7])([H:8])[H:9]>>[C:1]([C@@:2]1([H:10])[O:3][C:4]([H:11])=[C:5]([H:12])[C:6]1([H:13])[H:14])([H:7])([H:8])[H:9]"
C       -1.71641657      -0.62090500       0.23694097
C       -0.73369458       0.40142608      -0.27262311
O       -0.20351681       1.24764845       0.76570868
C        1.13112756       0.91871396       0.39125798
C        1.60872980      -0.39006801       0.79969690
C        0.66785431      -0.05243721      -0.70187471
H       -2.56831378      -0.11972829       0.69826339
H       -1.24844504      -1.26128523       0.98504351
H       -2.08373944      -1.23469221      -0.58878825
H       -1.17835141       1.01934918      -1.05966136
H        1.79057404       1.75982312       0.20989347
H        2.61344994      -0.50841397       0.36865649
H        0.85259380      -1.12090252      -0.12657106
H        1.06814820      -0.03852836      -1.70594292
14
Frame=2 idx=003758 GeodesicLength=0.17356505689668517 rxn_smarts="[C:1]([C@@:2]1([H:10])[O:3][C@@:4]2([H:11])[C:5]([H:12])([H:13])[C@@:6]12[H:14])([H:7])([H:8])[H:9]>>[C:1]([C@@:2]1([H:10])[O:3][C:4]([H:11])=[C:5]([H:12])[C:6]1([H:13])[H:14])([H:7])([H:8])[H:9]"
C       -1.71727564      -0.61907665       0.23684989
C       -0.73054883       0.39896608      -0.27382383
O       -0.20333166       1.24571825       0.76650399
C        1.13305850       0.92984995       0.39706123
C        1.60907524      -0.38315998       0.77671741
C        0.66891861      -0.06202783      -0.70084958
H       -2.56878264      -0.11480616       0.69554329
H       -1.25292268      -1.25994029       0.98687466
H       -2.08467881      -1.23387706      -0.58808639
H       -1.17387702       1.01750319      -1.06093799
H        1.78908386       1.77655074       0.23074962
H        2.61885439      -0.50363712       0.36174097
H        0.84765704      -1.14516074      -0.12138798
H        1.06476963      -0.04690240      -1.70695527
14
Frame=3 idx=003758 GeodesicLength=0.2603899614741152 rxn_smarts="[C:1]([C@@:2]1([H:10])[O:3][C@@:4]2([H:11])[C:5]([H:12])([H:13])[C@@:6]12[H:14])([H:7])([H:8])[H:9]>>[C:1]([C@@:2]1([H:10])[O:3][C:4]([H:11])=[C:5]([H:12])[C:6]1([H:13])[H:14])([H:7])([H:8])[H:9]"
C       -1.71802713      -0.61725004       0.23677472
C       -0.72743645       0.39653036      -0.27517771
O       -0.20304089       1.24393875       0.76695088
C        1.13498531       0.94089219       0.40277516
C        1.60925121      -0.37601803       0.75336867
C        0.66974356      -0.07168056      -0.70032657
H       -2.56910548      -0.10990771       0.69290023
H       -1.25718672      -1.25849375       0.98872244
H       -2.08557330      -1.23315734      -0.58726885
H       -1.16958805       1.01563529      -1.06231921
H        1.78774230       1.79296461       0.25265066
H        2.62393808      -0.49902205       0.35485994
H        0.84312161      -1.16912727      -0.11548454
H        1.06117596      -0.05530446      -1.70842582
14
Frame=4 idx=003758 GeodesicLength=0.34723877641789525 rxn_smarts="[C:1]([C@@:2]1([H:10])[O:3][C@@:4]2([H:11])[C:5]([H:12])([H:13])[C@@:6]12[H:14])([H:7])([H:8])[H:9]>>[C:1]([C@@:2]1([H:10])[O:3][C:4]([H:11])=[C:5]([H:12])[C:6]1([H:13])[H:14])([H:7])([H:8])[H:9]"
C       -1.71866727      -0.61542390       0.23671456
C       -0.72436204       0.39412147      -0.27670164
O       -0.20264337       1.24231685       0.76702688
C        1.13691246       0.95183386       0.40838763
C        1.60926942      -0.36862032       0.72963300
C        0.67031716      -0.08139900      -0.70033948
H       -2.56928077      -0.10503225       0.69033126
H       -1.26122479      -1.25693295       0.99059182
H       -2.08641955      -1.23254215      -0.58632707
H       -1.16549655       1.01374545      -1.06381992
H        1.78654577       1.80901689       0.27568156
H        2.62868622      -0.49457946       0.34799459
H        0.83901441      -1.19276813      -0.10878429
H        1.05734892      -0.06373637      -1.71038888
14
Frame=5 idx=003758 GeodesicLength=0.4341032559380672 rxn_smarts="[C:1]([C@@:2]1([H:10])[O:3][C@@:4]2([H:11])[C:5]([H:12])([H:13])[C@@:6]12[H:14])([H:7])([H:8])[H:9]>>[C:1]([C@@:2]1([H:10])[O:3][C:4]([H:11])=[C:5]([H:12])[C:6]1([H:13])[H:14])([H:7])([H:8])[H:9]"
C       -1.71919265      -0.61359827       0.23666869
C       -0.72133129       0.39174186      -0.27841264
O       -0.20214097       1.24086115       0.76670872
C        1.13883939       0.96266749       0.41389073
C        1.60913854      -0.36094657       0.70548940
C        0.67062712      -0.09118536      -0.70091889
H       -2.56930794      -0.10018088       0.68783259
H       -1.26502527      -1.25524600       0.99248862
H       -2.08721408      -1.23204338      -0.58525290
H       -1.16161601       1.01183194      -1.06545603
H        1.78550820       1.82465737       0.29992173
H        2.63308127      -0.49031723       0.34112709
H        0.83536381      -1.21604611      -0.10121002
H        1.05326990      -0.07219600      -1.71287709
14
Frame=6 idx=003758 GeodesicLength=0.5209816845200677 rxn_smarts="[C:1]([C@@:2]1([H:10])[O:3][C@@:4]2([H:11])[C:5]([H:12])([H:13])[C@@:6]12[H:14])([H:7])([H:8])[H:9]>>[C:1]([C@@:2]1([H:10])[O:3][C:4]([H:11])=[C:5]([H:12])[C:6]1([H:13])[H:14])([H:7])([H:8])[H:9]"
C       -1.71959803      -0.61177071       0.23663659
C       -0.71834778       0.38939385      -0.28032952
O       -0.20153130       1.23958010       0.76597014
C        1.14077163       0.97339127       0.41926908
C        1.60886628      -0.35297485       0.68090464
C        0.67066276      -0.10104520      -0.70209783
H       -2.56918371      -0.09535108       0.68540129
H       -1.26857427      -1.25341854       0.99441882
H       -2.08795265      -1.23167081      -0.58403524
H       -1.15795822       1.00989276      -1.06724527
H        1.78461983       1.83982391       0.32546986
H        2.63710478      -0.48624614       0.33424329
H        0.83220645      -1.23891755      -0.09267778
H        1.04891422      -0.08068701      -1.71592809
14
Frame=7 idx=003758 GeodesicLength=0.6078626557098332 rxn_smarts="[C:1]([C@@:2]1([H:10])[O:3][C@@:4]2([H:11])[C:5]([H:12])([H:13])[C@@:6]12[H:14])([H:7])([H:8])[H:9]>>[C:1]([C@@:2]1([H:10])[O:3][C:4]([H:11])=[C:5]([H:12])[C:6]1([H:13])[H:14])([H:7])([H:8])[H:9]"
C       -1.71987826      -0.60993899       0.23661801
C       -0.71541542       0.38707972      -0.28247118
O       -0.20081453       1.23848392       0.76478380
C        1.14271450       0.98400314       0.42450991
C        1.60846007      -0.34468036       0.65584725
C        0.67041333      -0.11098377      -0.70390517
H       -2.56890553      -0.09054046       0.68303304
H       -1.27185793      -1.25143449       0.99638914
H       -2.08862971      -1.23143475      -0.58266316
H       -1.15453413       1.00792465      -1.06920645
H        1.78387139       1.85443952       0.35242217
H        2.64074029      -0.48237183       0.32732278
H        0.82957687      -1.26133504      -0.08310373
H        1.04425908      -0.08921126      -1.71957644
14
Frame=8 idx=003758 GeodesicLength=0.694744209630626 rxn_smarts="[C:1]([C@@:2]1([H:10])[O:3][C@@:4]2([H:11])[C:5]([H:12])([H:13])[C@@:6]12[H:14])([H:7])([H:8])[H:9]>>[C:1]([C@@:2]1([H:10])[O:3][C:4]([H:11])=[C:5]([H:12])[C:6]1([H:13])[H:14])([H:7])([H:8])[H:9]"
C       -1.72002796      -0.60809949       0.23661342
C       -0.71253737       0.38480035      -0.28485845
O       -0.19999246       1.23758567       0.76311848
C        1.14467386       0.99450677       0.42959873
C        1.60792319      -0.33604057       0.63026936
C        0.66987000      -0.12101191      -0.70636675
H       -2.56847066      -0.08574395       0.68072304
H       -1.27486317      -1.24927441       0.99840846
H       -2.08923945      -1.23134718      -0.58112229
H       -1.15135372       1.00591874      -1.07136319
H        1.78325229       1.86841840       0.38089231
H        2.64397523      -0.47869766       0.32034449
H        0.82751410      -1.28324136      -0.07240363
H        1.03927611      -0.09777341      -1.72385398
14
Frame=9 idx=003758 GeodesicLength=0.7814790144911867 rxn_smarts="[C:1]([C@@:2]1([H:10])[O:3][C@@:4]2([H:11])[C:5]([H:12])([H:13])[C@@:6]12[H:14])([H:7])([H:8])[H:9]>>[C:1]([C@@:2]1([H:10])[O:3][C:4]([H:11])=[C:5]([H:12])[C:6]1([H:13])[H:14])([H:7])([H:8])[H:9]"
C       -1.72003245      -0.60623516       0.23663567
C       -0.70968606       0.38254906      -0.28750258
O       -0.19903855       1.23688966       0.76094873
C        1.14667911       1.00493141       0.43452346
C        1.60728329      -0.32704309       0.60415105
C        0.66904986      -0.13118243      -0.70944829
H       -2.56785093      -0.08092675       0.67848850
H       -1.27757059      -1.24692657       1.00048813
H       -2.08979461      -1.23138781      -0.57938726
H       -1.14837665       1.00385882      -1.07374399
H        1.78256870       1.88160976       0.41092088
H        2.64682553      -0.47517640       0.31334392
H        0.82597932      -1.30457450      -0.06067889
H        1.03396402      -0.10638601      -1.72873933
14
Frame=10 idx=003758 GeodesicLength=0.8681972455351938 rxn_smarts="[C:1]([C@@:2]1([H:10])[O:3][C@@:4]2([H:11])[C:5]([H:12])([H:13])[C@@:6]12[H:14])([H:7])([H:8])[H:9]>>[C:1]([C@@:2]1([H:10])[O:3][C:4]([H:11])=[C:5]([H:12])[C:6]1([H:13])[H:14])([H:7])([H:8])[H:9]"
C       -1.71988914      -0.60435322       0.23667743
C       -0.70689385       0.38033608      -0.29044167
O       -0.19797715       1.23642936       0.75821918
C        1.14871307       1.01525970       0.43925614
C        1.60652105      -0.31764168       0.57740413
C        0.66791799      -0.14146337      -0.71323647
H       -2.56706088      -0.07611034       0.67630881
H       -1.27995827      -1.24435647       1.00264106
H       -2.09026866      -1.23160301      -0.57744384
H       -1.14566472       1.00173974      -1.07637991
H        1.78196260       1.89392024       0.44272744
H        2.64923534      -0.47185765       0.30625743
H        0.82509812      -1.32524960      -0.04766830
H        1.02826449      -0.11504979      -1.73432142
14
Frame=11 idx=003758 GeodesicLength=0.9549065440348877 rxn_smarts="[C:1]([C@@:2]1([H:10])[O:3][C@@:4]2([H:11])[C:5]([H:12])([H:13])[C@@:6]12[H:14])([H:7])([H:8])[H:9]>>[C:1]([C@@:2]1([H:10])[O:3][C:4]([H:11])=[C:5]([H:12])[C:6]1([H:13])[H:14])([H:7])([H:8])[H:9]"
C       -1.71958885      -0.60244990       0.23674091
C       -0.70416567       0.37816567      -0.29370307
O       -0.19680948       1.23622772       0.75488398
C        1.15077769       1.02549473       0.44378147
C        1.60563736      -0.30780429       0.54996124
C        0.66646173      -0.15186097      -0.71775998
H       -2.56609427      -0.07129149       0.67418149
H       -1.28200056      -1.24154018       1.00487920
H       -2.09065369      -1.23200890      -0.57527092
H       -1.14323444       0.99955299      -1.07930281
H        1.78142207       1.90521016       0.47644151
H        2.65117164      -0.46874805       0.29907966
H        0.82493450      -1.34517867      -0.03327582
H        1.02214197      -0.12376883      -1.74063686
14
Frame=12 idx=003758 GeodesicLength=1.0416135171551695 rxn_smarts="[C:1]([C@@:2]1([H:10])[O:3][C@@:4]2([H:11])[C:5]([H:12])([H:13])[C@@:6]12[H:14])([H:7])([H:8])[H:9]>>[C:1]([C@@:2]1([H:10])[O:3][C:4]([H:11])=[C:5]([H:12])[C:6]1([H:13])[H:14])([H:7])([H:8])[H:9]"
C       -1.71911854      -0.60051835       0.23683142
C       -0.70150635       0.37604120      -0.29731978
O       -0.19553551       1.23631638       0.75088420
C        1.15287924       1.03564519       0.44807005
C        1.60463114      -0.29749031       0.52174072
C        0.66467017      -0.16238399      -0.72305203
H       -2.56494076      -0.06646210       0.67210597
H       -1.28366598      -1.23844353       1.00721983
H       -2.09093753      -1.23262485      -0.57283903
H       -1.14110334       0.99728157      -1.08255403
H        1.78091273       1.91529660       0.51223892
H        2.65260308      -0.46585404       0.29180159
H        0.82555727      -1.36424906      -0.01739850
H        1.01555438      -0.13255473      -1.74772933
14
Frame=13 idx=003758 GeodesicLength=1.1283174034630359 rxn_smarts="[C:1]([C@@:2]1([H:10])[O:3][C@@:4]2([H:11])[C:5]([H:12])([H:13])[C@@:6]12[H:14])([H:7])([H:8])[H:9]>>[C:1]([C@@:2]1([H:10])[O:3][C:4]([H:11])=[C:5]([H:12])[C:6]1([H:13])[H:14])([H:7])([H:8])[H:9]"
C       -1.71846309      -0.59855149       0.23695457
C       -0.69892159       0.37396674      -0.30132500
O       -0.19415755       1.23672789       0.74615852
C        1.15502121       1.04571644       0.45210376
C        1.60349901      -0.28665954       0.49265605
C        0.66253004      -0.17304100      -0.72914120
H       -2.56358740      -0.06161537       0.67008410
H       -1.28491775      -1.23503392       1.00967748
H       -2.09110668      -1.23346863      -0.57011673
H       -1.13929107       0.99490928      -1.08617359
H        1.78040160       1.92397351       0.55026822
H        2.65348786      -0.46318300       0.28443602
H        0.82704526      -1.38232657       0.00005574
H        1.00846015      -0.14141435      -1.75563793
14
Frame=14 idx=003758 GeodesicLength=1.2150277981346889 rxn_smarts="[C:1]([C@@:2]1([H:10])[O:3][C@@:4]2([H:11])[C:5]([H:12])([H:13])[C@@:6]12[H:14])([H:7])([H:8])[H:9]>>[C:1]([C@@:2]1([H:10])[O:3][C:4]([H:11])=[C:5]([H:12])[C:6]1([H:13])[H:14])([H:7])([H:8])[H:9]"
C       -1.71760185      -0.59653834       0.23712037
C       -0.69641383       0.37194869      -0.30575752
O       -0.19267261       1.23750453       0.74063296
C        1.15721553       1.05572246       0.45585256
C        1.60223573      -0.27526104       0.46260456
C        0.66003343      -0.18383903      -0.73606002
H       -2.56201568      -0.05674006       0.66812178
H       -1.28570897      -1.23126761       1.01227329
H       -2.09114414      -1.23455930      -0.56706275
H       -1.13781719       0.99241594      -1.09021068
H        1.77981351       1.93097110       0.59071098
H        2.65377617      -0.46074225       0.27700696
H        0.82949105      -1.39925027       0.01917606
H        1.00080885      -0.15036485      -1.76440856
14
Frame=15 idx=003758 GeodesicLength=1.301753323942864 rxn_smarts="[C:1]([C@@:2]1([H:10])[O:3][C@@:4]2([H:11])[C:5]([H:12])([H:13])[C@@:6]12[H:14])([H:7])([H:8])[H:9]>>[C:1]([C@@:2]1([H:10])[O:3][C:4]([H:11])=[C:5]([H:12])[C:6]1([H:13])[H:14])([H:7])([H:8])[H:9]"
C       -1.71650978      -0.59446725       0.23734078
C       -0.69398821       0.36999535      -0.31066091
O       -0.19108105       1.23869671       0.73422343
C        1.15947250       1.06567367       0.45928804
C        1.60083348      -0.26323689       0.43147544
C        0.65716946      -0.19478034      -0.74384542
H       -2.56020306      -0.05182535       0.66622770
H       -1.28598354      -1.22709667       1.01503095
H       -2.09102741      -1.23592027      -0.56362981
H       -1.13670694       0.98977962      -1.09471923
H        1.77907035       1.93597464       0.63374948
H        2.65340271      -0.45854633       0.26955258
H        0.83300251      -1.41482731       0.04005810
H        0.99254896      -0.15941957      -1.77409114
14
Frame=16 idx=003758 GeodesicLength=1.3884901669716352 rxn_smarts="[C:1]([C@@:2]1([H:10])[O:3][C@@:4]2([H:11])[C:5]([H:12])([H:13])[C@@:6]12[H:14])([H:7])([H:8])[H:9]>>[C:1]([C@@:2]1([H:10])[O:3][C:4]([H:11])=[C:5]([H:12])[C:6]1([H:13])[H:14])([H:7])([H:8])[H:9]"
C       -1.71515585      -0.59232783       0.23762723
C       -0.69164526       0.36812208      -0.31606960
O       -0.18938182       1.24035555       0.72686036
C        1.16180268       1.07557212       0.46242086
C        1.59927823      -0.25053489       0.39917288
C        0.65393453      -0.20585200      -0.75252388
H       -2.55812100      -0.04686721       0.66441644
H       -1.28567593      -1.22248274       1.01796850
H       -2.09072761      -1.23756848      -0.55977743
H       -1.13598113       0.98699259      -1.09974019
H        1.77806371       1.93862734       0.67943734
H        2.65227301      -0.45662563       0.26216667
H        0.83770227      -1.42884214       0.06276412
H        0.98363418      -0.16856878      -1.78472331
