16
Frame=0 idx=008006 GeodesicLength=0.0 rxn_smarts="[C:1]([C:2]#[C:3][C:4]([C@@:5]1([H:13])[C:6]([H:14])([H:15])[N:7]1[H:16])([H:11])[H:12])([H:8])([H:9])[H:10]>>[C:1]([C:2](=[C:3]=[C:4]([C@@:5]1([H:13])[C:6]([H:14])([H:15])[N:7]1[H:16])[H:12])[H:11])([H:8])([H:9])[H:10]"
C        2.37867800       0.48273285       2.01135778
C        1.74098585      -0.57037737       1.19455128
C        1.20081666      -0.49669572       0.02307040
C        0.16047759      -0.38442450      -0.88236608
C       -1.24644955      -0.16362892      -0.49260171
C       -2.14776107       0.64866054      -1.35308779
N       -2.26978950      -0.79746262      -1.32513665
H        2.03296277       1.50052951       1.78931640
H        3.45334160       0.45251954       1.80518490
H        2.27162595       0.28077183       3.07793069
H        1.21821351      -1.50362149      -0.58919590
H        0.34754930      -0.55676909      -1.93734882
H       -1.41947134      -0.11601657       0.57705936
H       -1.76756372       1.05917070      -2.28136664
H       -2.89596744       1.25595817      -0.85537832
H       -3.05764866      -1.09134682      -0.76198889
16
Frame=1 idx=008006 GeodesicLength=0.0947919344083215 rxn_smarts="[C:1]([C:2]#[C:3][C:4]([C@@:5]1([H:13])[C:6]([H:14])([H:15])[N:7]1[H:16])([H:11])[H:12])([H:8])([H:9])[H:10]>>[C:1]([C:2](=[C:3]=[C:4]([C@@:5]1([H:13])[C:6]([H:14])([H:15])[N:7]1[H:16])[H:12])[H:11])([H:8])([H:9])[H:10]"
C        2.39083048       0.47739753       2.02134282
C        1.73978291      -0.54026384       1.17102714
C        1.20871823      -0.43314065       0.00044872
C        0.15282864      -0.39520763      -0.89210673
C       -1.25170621      -0.16351200      -0.49765396
C       -2.15421939       0.64157708      -1.36249156
N       -2.27883762      -0.80455398      -1.31934678
H        2.05728116       1.50494157       1.82959880
H        3.46625757       0.44084274       1.82059283
H        2.27368159       0.24474057       3.08068310
H        1.22347210      -1.50116564      -0.56084582
H        0.33493123      -0.57354443      -1.94696513
H       -1.41962867      -0.10397764       0.57227349
H       -1.77706000       1.04177071      -2.29654223
H       -2.90058133       1.25474729      -0.86916172
H       -3.06575071      -1.09065167      -0.75085296
16
Frame=2 idx=008006 GeodesicLength=0.18934794017441553 rxn_smarts="[C:1]([C:2]#[C:3][C:4]([C@@:5]1([H:13])[C:6]([H:14])([H:15])[N:7]1[H:16])([H:11])[H:12])([H:8])([H:9])[H:10]>>[C:1]([C:2](=[C:3]=[C:4]([C@@:5]1([H:13])[C:6]([H:14])([H:15])[N:7]1[H:16])[H:12])[H:11])([H:8])([H:9])[H:10]"
C        2.40617753       0.47356162       2.02829411
C        1.73531067      -0.50895942       1.15291919
C        1.20948065      -0.37371126      -0.01468580
C        0.14425786      -0.40611098      -0.89572321
C       -1.25986019      -0.16671994      -0.50200745
C       -2.16024945       0.63556836      -1.37051380
N       -2.28657631      -0.81072944      -1.32116804
H        2.08917527       1.51017892       1.86199063
H        3.48130607       0.42428441       1.82998479
H        2.28032804       0.21703451       3.08117135
H        1.22684942      -1.49831640      -0.52696518
H        0.32568513      -0.58381250      -1.95082616
H       -1.42761384      -0.10166650       0.56764864
H       -1.78215038       1.03119415      -2.30614489
H       -2.90733078       1.25112817      -0.88137764
H       -3.07478970      -1.09292370      -0.75259655
16
Frame=3 idx=008006 GeodesicLength=0.28387959366269977 rxn_smarts="[C:1]([C:2]#[C:3][C:4]([C@@:5]1([H:13])[C:6]([H:14])([H:15])[N:7]1[H:16])([H:11])[H:12])([H:8])([H:9])[H:10]>>[C:1]([C:2](=[C:3]=[C:4]([C@@:5]1([H:13])[C:6]([H:14])([H:15])[N:7]1[H:16])[H:12])[H:11])([H:8])([H:9])[H:10]"
C        2.42284762       0.47078251       2.03295646
C        1.72976925      -0.47759334       1.13780702
C        1.20540174      -0.31814057      -0.02503105
C        0.13562608      -0.41755784      -0.89528645
C       -1.26942696      -0.17197468      -0.50576903
C       -2.16534195       0.63063127      -1.37751466
N       -2.29341897      -0.81603702      -1.32760464
H        2.12241228       1.51538304       1.89045493
H        3.49690676       0.40775898       1.83368727
H        2.29076847       0.19347563       3.07985886
H        1.22843269      -1.49645621      -0.48920904
H        0.31877008      -0.59049990      -1.95097028
H       -1.44015934      -0.10525103       0.56334609
H       -1.78358043       1.02514097      -2.31214938
H       -2.91451273       1.24679592      -0.89239455
H       -3.08449459      -1.09645772      -0.76218155
16
Frame=4 idx=008006 GeodesicLength=0.37840358122070744 rxn_smarts="[C:1]([C:2]#[C:3][C:4]([C@@:5]1([H:13])[C:6]([H:14])([H:15])[N:7]1[H:16])([H:11])[H:12])([H:8])([H:9])[H:10]>>[C:1]([C:2](=[C:3]=[C:4]([C@@:5]1([H:13])[C:6]([H:14])([H:15])[N:7]1[H:16])[H:12])[H:11])([H:8])([H:9])[H:10]"
C        2.44075871       0.46852070       2.03590861
C        1.72323543      -0.44593625       1.12514493
C        1.19725824      -0.26506210      -0.03146871
C        0.12708497      -0.42868272      -0.89164688
C       -1.28003473      -0.17842483      -0.50916303
C       -2.16988238       0.62624939      -1.38412610
N       -2.29929947      -0.82094362      -1.33742072
H        2.15702101       1.52015514       1.91638001
H        3.51292920       0.39108354       1.83258607
H        2.30478292       0.17241797       3.07721871
H        1.22788331      -1.49507955      -0.44786169
H        0.31362720      -0.59409152      -1.94810032
H       -1.45620273      -0.11260061       0.55916788
H       -1.78248385       1.02202886      -2.31591663
H       -2.92236024       1.24160490      -0.90317059
H       -3.09431758      -1.10123927      -0.77753154
16
Frame=5 idx=008006 GeodesicLength=0.4729181585350172 rxn_smarts="[C:1]([C:2]#[C:3][C:4]([C@@:5]1([H:13])[C:6]([H:14])([H:15])[N:7]1[H:16])([H:11])[H:12])([H:8])([H:9])[H:10]>>[C:1]([C:2](=[C:3]=[C:4]([C@@:5]1([H:13])[C:6]([H:14])([H:15])[N:7]1[H:16])[H:12])[H:11])([H:8])([H:9])[H:10]"
C        2.45974661       0.46640119       2.03740377
C        1.71570472      -0.41381840       1.11450917
C        1.18567072      -0.21331929      -0.03469107
C        0.11885612      -0.43863871      -0.88554220
C       -1.29136380      -0.18564514      -0.51232362
C       -2.17433908       0.62205285      -1.39040527
N       -2.30399874      -0.82584277      -1.34984433
H        2.19499897       1.52466985       1.93880693
H        3.52935870       0.37199791       1.82877887
H        2.31989600       0.15432193       3.07359344
H        1.22529231      -1.49355968      -0.40352161
H        0.31002615      -0.59443900      -1.94285936
H       -1.47491397      -0.12280564       0.55500290
H       -1.78000411       1.02115669      -2.31788412
H       -2.93133824       1.23514929      -0.91370726
H       -3.10359237      -1.10768109      -0.79731623
16
Frame=6 idx=008006 GeodesicLength=0.5672331740215137 rxn_smarts="[C:1]([C:2]#[C:3][C:4]([C@@:5]1([H:13])[C:6]([H:14])([H:15])[N:7]1[H:16])([H:11])[H:12])([H:8])([H:9])[H:10]>>[C:1]([C:2](=[C:3]=[C:4]([C@@:5]1([H:13])[C:6]([H:14])([H:15])[N:7]1[H:16])[H:12])[H:11])([H:8])([H:9])[H:10]"
C        2.47870768       0.46425236       2.03747715
C        1.70840428      -0.38187184       1.10448739
C        1.17174963      -0.16294997      -0.03595263
C        0.11130427      -0.44761476      -0.87773138
C       -1.30263466      -0.19313890      -0.51517843
C       -2.17833859       0.61809574      -1.39624945
N       -2.30749100      -0.83056674      -1.36348602
H        2.23325081       1.52835349       1.95873554
H        3.54528246       0.35268293       1.82276410
H        2.33509424       0.13762661       3.06872592
H        1.22064811      -1.49251052      -0.35686008
H        0.30751168      -0.59277889      -1.93592670
H       -1.49468466      -0.13446489       0.55094835
H       -1.77638776       1.02170475      -2.31851389
H       -2.94050168       1.22809191      -0.92388080
H       -3.11191480      -1.11491128      -0.81935908
16
Frame=7 idx=008006 GeodesicLength=0.6612822682760898 rxn_smarts="[C:1]([C:2]#[C:3][C:4]([C@@:5]1([H:13])[C:6]([H:14])([H:15])[N:7]1[H:16])([H:11])[H:12])([H:8])([H:9])[H:10]>>[C:1]([C:2](=[C:3]=[C:4]([C@@:5]1([H:13])[C:6]([H:14])([H:15])[N:7]1[H:16])[H:12])[H:11])([H:8])([H:9])[H:10]"
C        2.49676660       0.46195779       2.03622268
C        1.70254331      -0.35072060       1.09374285
C        1.15649813      -0.11403844      -0.03638292
C        0.10474512      -0.45580338      -0.86887908
C       -1.31323078      -0.20045315      -0.51765718
C       -2.18160899       0.61442061      -1.40161659
N       -2.30987221      -0.83501574      -1.37713129
H        2.26899311       1.53080625       1.97726575
H        3.56016513       0.33520009       1.81512690
H        2.34953686       0.12084010       3.06232648
H        1.21398870      -1.49251334      -0.30856957
H        0.30575328      -0.59020166      -1.92793985
H       -1.51421479      -0.14626303       0.54713381
H       -1.77186173       1.02289490      -2.31831845
H       -2.94909458       1.22106903      -0.93361132
H       -3.11910719      -1.12217944      -0.84171220
16
Frame=8 idx=008006 GeodesicLength=0.755101768377226 rxn_smarts="[C:1]([C:2]#[C:3][C:4]([C@@:5]1([H:13])[C:6]([H:14])([H:15])[N:7]1[H:16])([H:11])[H:12])([H:8])([H:9])[H:10]>>[C:1]([C:2](=[C:3]=[C:4]([C@@:5]1([H:13])[C:6]([H:14])([H:15])[N:7]1[H:16])[H:12])[H:11])([H:8])([H:9])[H:10]"
C        2.51433115       0.45933078       2.03378056
C        1.69808893      -0.32020584       1.08228788
C        1.13980469      -0.06588716      -0.03573040
C        0.09903051      -0.46277942      -0.85891177
C       -1.32332277      -0.20738146      -0.51984474
C       -2.18441469       0.61081715      -1.40686837
N       -2.31109497      -0.83939256      -1.39077495
H        2.30278628       1.53196686       1.99494469
H        3.57441356       0.31925264       1.80580566
H        2.36384287       0.10342282       3.05444076
H        1.20491384      -1.49318607      -0.25819196
H        0.30474493      -0.58663381      -1.91874627
H       -1.53375812      -0.15777895       0.54342053
H       -1.76673203       1.02435862      -2.31771666
H       -2.95754478       1.21380860      -0.94350846
H       -3.12508939      -1.12971221      -0.86438650
16
Frame=9 idx=008006 GeodesicLength=0.8487510539817725 rxn_smarts="[C:1]([C:2]#[C:3][C:4]([C@@:5]1([H:13])[C:6]([H:14])([H:15])[N:7]1[H:16])([H:11])[H:12])([H:8])([H:9])[H:10]>>[C:1]([C:2](=[C:3]=[C:4]([C@@:5]1([H:13])[C:6]([H:14])([H:15])[N:7]1[H:16])[H:12])[H:11])([H:8])([H:9])[H:10]"
C        2.53139789       0.45636488       2.03013099
C        1.69529339      -0.29038754       1.06967903
C        1.12177446      -0.01812132      -0.03410547
C        0.09416992      -0.46848166      -0.84795462
C       -1.33288834      -0.21397724      -0.52175313
C       -2.18683796       0.60727304      -1.41189813
N       -2.31114208      -0.84373106      -1.40440936
H        2.33519296       1.53200052       2.01130765
H        3.58820152       0.30423974       1.79556332
H        2.37713675       0.08576836       3.04505177
H        1.19332720      -1.49447105      -0.20566827
H        0.30448344      -0.58207749      -1.90846878
H       -1.55323536      -0.16918643       0.53980438
H       -1.76115892       1.02620023      -2.31658553
H       -2.96592306       1.20622855      -0.95335002
H       -3.12979181      -1.13764154      -0.88734384
16
Frame=10 idx=008006 GeodesicLength=0.9422732097224644 rxn_smarts="[C:1]([C:2]#[C:3][C:4]([C@@:5]1([H:13])[C:6]([H:14])([H:15])[N:7]1[H:16])([H:11])[H:12])([H:8])([H:9])[H:10]>>[C:1]([C:2](=[C:3]=[C:4]([C@@:5]1([H:13])[C:6]([H:14])([H:15])[N:7]1[H:16])[H:12])[H:11])([H:8])([H:9])[H:10]"
C        2.54848387       0.45287283       2.02530098
C        1.69418509      -0.26103332       1.05593023
C        1.10201143       0.02996701      -0.03093514
C        0.08997751      -0.47253129      -0.83571574
C       -1.34219073      -0.22010648      -0.52343838
C       -2.18911512       0.60359133      -1.41708831
N       -2.30992478      -0.84823881      -1.41820332
H        2.36686684       1.53078500       2.02683747
H        3.60197578       0.28988502       1.78404050
H        2.39026989       0.06734397       3.03409448
H        1.17868044      -1.49593294      -0.15023758
H        0.30508509      -0.57627979      -1.89674765
H       -1.57315948      -0.18024594       0.53615112
H       -1.75528491       1.02817258      -2.31526572
H       -2.97469595       1.19802091      -0.96381453
H       -3.13316498      -1.14627007      -0.91090842
16
Frame=11 idx=008006 GeodesicLength=1.035709561471768 rxn_smarts="[C:1]([C:2]#[C:3][C:4]([C@@:5]1([H:13])[C:6]([H:14])([H:15])[N:7]1[H:16])([H:11])[H:12])([H:8])([H:9])[H:10]>>[C:1]([C:2](=[C:3]=[C:4]([C@@:5]1([H:13])[C:6]([H:14])([H:15])[N:7]1[H:16])[H:12])[H:11])([H:8])([H:9])[H:10]"
C        2.56587591       0.44874459       2.01918542
C        1.69509085      -0.23209161       1.04068095
C        1.08019891       0.07883224      -0.02576106
C        0.08633202      -0.47480192      -0.82191127
C       -1.35138376      -0.22570151      -0.52490082
C       -2.19130039       0.59969161      -1.42268014
N       -2.30737515      -0.85300236      -1.43224426
H        2.39771822       1.52815052       2.04203209
H        3.61607527       0.27656831       1.77086666
H        2.40386629       0.04747602       3.02127861
H        1.16039055      -1.49738471      -0.09109153
H        0.30665192      -0.56920504      -1.88324982
H       -1.59387997      -0.19081590       0.53238994
H       -1.74905176       1.03014853      -2.31395118
H       -2.98401979       1.18909053      -0.97535472
H       -3.13518911      -1.15569930      -0.93528886
16
Frame=12 idx=008006 GeodesicLength=1.129162982664517 rxn_smarts="[C:1]([C:2]#[C:3][C:4]([C@@:5]1([H:13])[C:6]([H:14])([H:15])[N:7]1[H:16])([H:11])[H:12])([H:8])([H:9])[H:10]>>[C:1]([C:2](=[C:3]=[C:4]([C@@:5]1([H:13])[C:6]([H:14])([H:15])[N:7]1[H:16])[H:12])[H:11])([H:8])([H:9])[H:10]"
C        2.58428625       0.44378837       2.01156162
C        1.69793999      -0.20324134       1.02396356
C        1.05547905       0.12923889      -0.01738390
C        0.08297201      -0.47491964      -0.80586321
C       -1.36089085      -0.23076339      -0.52617556
C       -2.19359227       0.59540412      -1.42909230
N       -2.30327175      -0.85821708      -1.44703684
H        2.42873000       1.52391564       2.05715941
H        3.63109214       0.26396813       1.75516380
H        2.41914025       0.02566440       3.00630147
H        1.13757716      -1.49823604      -0.02673214
H        0.30948128      -0.56034728      -1.86719770
H       -1.61636371      -0.20104139       0.52833004
H       -1.74234824       1.03214559      -2.31279822
H       -2.99445115       1.17902378      -0.98877638
H       -3.13578015      -1.16638277      -0.96142364
16
Frame=13 idx=008006 GeodesicLength=1.2226369106159325 rxn_smarts="[C:1]([C:2]#[C:3][C:4]([C@@:5]1([H:13])[C:6]([H:14])([H:15])[N:7]1[H:16])([H:11])[H:12])([H:8])([H:9])[H:10]>>[C:1]([C:2](=[C:3]=[C:4]([C@@:5]1([H:13])[C:6]([H:14])([H:15])[N:7]1[H:16])[H:12])[H:11])([H:8])([H:9])[H:10]"
C        2.60489871       0.43763705       2.00202684
C        1.70224260      -0.17385236       1.00633656
C        1.02621821       0.18244842      -0.00356480
C        0.07945467      -0.47199943      -0.78641732
C       -1.37139032      -0.23532163      -0.52733130
C       -2.19634584       0.59036378      -1.43691748
N       -2.29703817      -0.86426665      -1.46352645
H        2.46257239       1.51786782       2.07180507
H        3.64773241       0.25043320       1.73563704
H        2.43764856       0.00184695       2.98885253
H        1.10877524      -1.49724705       0.04499554
H        0.31409003      -0.54834600      -1.84723903
H       -1.64222025      -0.21135060       0.52360079
H       -1.73510971       1.03424514      -2.31188104
H       -3.00701746       1.16684522      -1.00530334
H       -3.13451107      -1.17930387      -0.99107360
16
Frame=14 idx=008006 GeodesicLength=1.3163569047106023 rxn_smarts="[C:1]([C:2]#[C:3][C:4]([C@@:5]1([H:13])[C:6]([H:14])([H:15])[N:7]1[H:16])([H:11])[H:12])([H:8])([H:9])[H:10]>>[C:1]([C:2](=[C:3]=[C:4]([C@@:5]1([H:13])[C:6]([H:14])([H:15])[N:7]1[H:16])[H:12])[H:11])([H:8])([H:9])[H:10]"
C        2.62832670       0.43007649       1.98976278
C        1.70783276      -0.14366997       0.98749158
C        0.99113764       0.23882692       0.01771822
C        0.07541871      -0.46598387      -0.76219976
C       -1.38334046      -0.23935243      -0.52828328
C       -2.19928728       0.58453831      -1.44680869
N       -2.28822056      -0.87117922      -1.48221169
H        2.49815426       1.50921974       2.08749723
H        3.66643812       0.23818500       1.70931244
H        2.46247746      -0.02632849       2.96753733
H        1.07228914      -1.49386207       0.12723321
H        0.32092818      -0.53314595      -1.82178410
H       -1.67278383      -0.22173926       0.51794620
H       -1.72641703       1.03645286      -2.31143444
H       -3.02175442       1.15249683      -1.02636043
H       -3.13119938      -1.19453489      -1.02541659
16
Frame=15 idx=008006 GeodesicLength=1.4101080638028325 rxn_smarts="[C:1]([C:2]#[C:3][C:4]([C@@:5]1([H:13])[C:6]([H:14])([H:15])[N:7]1[H:16])([H:11])[H:12])([H:8])([H:9])[H:10]>>[C:1]([C:2](=[C:3]=[C:4]([C@@:5]1([H:13])[C:6]([H:14])([H:15])[N:7]1[H:16])[H:12])[H:11])([H:8])([H:9])[H:10]"
C        2.65516475       0.42049594       1.97367617
C        1.71299219      -0.11206445       0.96815966
C        0.94821989       0.29960526       0.04962476
C        0.07050164      -0.45557533      -0.73164394
C       -1.39711203      -0.24298797      -0.52894597
C       -2.20244370       0.57744549      -1.45902193
N       -2.27545171      -0.87935596      -1.50397584
H        2.53935549       1.49765079       2.10184380
H        3.68692016       0.22366813       1.67454502
H        2.49372366      -0.05784685       2.94167539
H        1.02674297      -1.48583273       0.22237075
H        0.33065016      -0.51227138      -1.78895813
H       -1.70939070      -0.23309027       0.51092795
H       -1.71610174       1.03902999      -2.31095976
H       -3.03937836       1.13451786      -1.05292083
H       -3.12439268      -1.21338851      -1.06639711
16
Frame=16 idx=008006 GeodesicLength=1.5039614954416216 rxn_smarts="[C:1]([C:2]#[C:3][C:4]([C@@:5]1([H:13])[C:6]([H:14])([H:15])[N:7]1[H:16])([H:11])[H:12])([H:8])([H:9])[H:10]>>[C:1]([C:2](=[C:3]=[C:4]([C@@:5]1([H:13])[C:6]([H:14])([H:15])[N:7]1[H:16])[H:12])[H:11])([H:8])([H:9])[H:10]"
C        2.68421006       0.40873005       1.95264072
C        1.71375255      -0.07885842       0.95018744
C        0.89738518       0.36420348       0.09317594
C        0.06492453      -0.44071865      -0.69412403
C       -1.41219495      -0.24665725      -0.52912677
C       -2.20511067       0.56925166      -1.47297908
N       -2.25751338      -0.88853622      -1.52897031
H        2.58747244       1.48316253       2.11196620
H        3.70690156       0.20445434       1.62901271
H        2.53063421      -0.09101026       2.91110962
H        0.97299803      -1.47193852       0.33110247
H        0.34358964      -0.48469800      -1.74799207
H       -1.75163626      -0.24675619       0.50240576
H       -1.70352279       1.04298127      -2.30928431
H       -3.05923947       1.11253822      -1.08444109
H       -3.11265069      -1.23614805      -1.11468319
