13
Frame=0 idx=003405 GeodesicLength=0.0 rxn_smarts="[N:1](=[C:2](/[O:3][C:4]1([H:9])[C:5]([H:10])([H:11])[C:6]1([H:12])[H:13])[H:8])\[H:7]>>[N:1]([C:2](=[O:3])[H:8])([C:5]([C:4](=[C:6]([H:12])[H:13])[H:9])([H:10])[H:11])[H:7]"
N        1.56812937      -0.83017020       0.38921859
C        1.70366078       0.04392730      -0.55449265
O        0.71809296       0.44717876      -1.26635946
C       -0.73215163      -0.06419715      -0.53371388
C       -0.43628316      -0.48387048       0.79318803
C       -1.73309073       0.85307660      -0.18814859
H        2.40884552      -0.96501370       0.93504292
H        2.66847907       0.51512504      -0.78437731
H       -1.00559688      -0.84755743      -1.23063478
H       -0.71746905      -1.47543059       1.11681067
H       -0.25417228       0.25811832       1.55477000
H       -1.52091914       1.65705219       0.50172777
H       -2.66752488       0.89176130      -0.73303130
13
Frame=1 idx=003405 GeodesicLength=0.057590413209646696 rxn_smarts="[N:1](=[C:2](/[O:3][C:4]1([H:9])[C:5]([H:10])([H:11])[C:6]1([H:12])[H:13])[H:8])\[H:7]>>[N:1]([C:2](=[O:3])[H:8])([C:5]([C:4](=[C:6]([H:12])[H:13])[H:9])([H:10])[H:11])[H:7]"
N        1.57506978      -0.80944496       0.40749137
C        1.71470173       0.05562486      -0.54384612
O        0.73412561       0.50332653      -1.23403862
C       -0.73448523      -0.05609468      -0.53960506
C       -0.44388863      -0.47658852       0.79234092
C       -1.75043099       0.83806568      -0.17964207
H        2.42445469      -0.97973723       0.92859695
H        2.70087281       0.44553479      -0.82997378
H       -0.99299370      -0.83735827      -1.24471238
H       -0.73393227      -1.46653320       1.11474126
H       -0.26269447       0.26361812       1.55637070
H       -1.54378991       1.65729360       0.49403089
H       -2.68700941       0.86229327      -0.72175405
13
Frame=2 idx=003405 GeodesicLength=0.1141158626860904 rxn_smarts="[N:1](=[C:2](/[O:3][C:4]1([H:9])[C:5]([H:10])([H:11])[C:6]1([H:12])[H:13])[H:8])\[H:7]>>[N:1]([C:2](=[O:3])[H:8])([C:5]([C:4](=[C:6]([H:12])[H:13])[H:9])([H:10])[H:11])[H:7]"
N        1.58351466      -0.78458133       0.42982771
C        1.72607180       0.06807718      -0.53209036
O        0.75078258       0.55952999      -1.19792185
C       -0.73564287      -0.04767727      -0.54523069
C       -0.45123892      -0.46988808       0.79154865
C       -1.76617193       0.82312675      -0.17161235
H        2.44125506      -0.99470571       0.92078764
H        2.72280098       0.37204279      -0.88002193
H       -0.97920725      -0.82610370      -1.25888349
H       -0.74923210      -1.45882714       1.11117279
H       -0.27298753       0.26792386       1.55903372
H       -1.56643816       1.65700832       0.48619347
H       -2.70350630       0.83407434      -0.71280331
13
Frame=3 idx=003405 GeodesicLength=0.17068715941452073 rxn_smarts="[N:1](=[C:2](/[O:3][C:4]1([H:9])[C:5]([H:10])([H:11])[C:6]1([H:12])[H:13])[H:8])\[H:7]>>[N:1]([C:2](=[O:3])[H:8])([C:5]([C:4](=[C:6]([H:12])[H:13])[H:9])([H:10])[H:11])[H:7]"
N        1.59370714      -0.75606470       0.45535102
C        1.73807725       0.08067979      -0.52032035
O        0.76850053       0.61647803      -1.15846257
C       -0.73537777      -0.03848952      -0.55099741
C       -0.45790615      -0.46313197       0.79069358
C       -1.78041032       0.80848758      -0.16463371
H        2.45796496      -1.01113959       0.91149762
H        2.73424520       0.29495375      -0.93189582
H       -0.96403515      -0.81366679      -1.27327025
H       -0.76303001      -1.45160098       1.10664982
H       -0.28400956       0.27194857       1.56227248
H       -1.58940743       1.65625240       0.47810856
H       -2.71831868       0.80529344      -0.70499297
13
Frame=4 idx=003405 GeodesicLength=0.22696766107629202 rxn_smarts="[N:1](=[C:2](/[O:3][C:4]1([H:9])[C:5]([H:10])([H:11])[C:6]1([H:12])[H:13])[H:8])\[H:7]>>[N:1]([C:2](=[O:3])[H:8])([C:5]([C:4](=[C:6]([H:12])[H:13])[H:9])([H:10])[H:11])[H:7]"
N        1.60573056      -0.72384429       0.48320438
C        1.75062043       0.09420516      -0.50845673
O        0.78753231       0.67333152      -1.11676151
C       -0.73339792      -0.02827572      -0.55737913
C       -0.46356764      -0.45648037       0.78903711
C       -1.79243217       0.79464922      -0.15881903
H        2.47255954      -1.02672976       0.90278579
H        2.73425689       0.21273598      -0.98472662
H       -0.94766694      -0.79967813      -1.28830433
H       -0.77463410      -1.44520924       1.09993470
H       -0.29545247       0.27514122       1.56566126
H       -1.61168832       1.65515707       0.47006505
H       -2.73186018       0.77499735      -0.69624094
13
Frame=5 idx=003405 GeodesicLength=0.28320656820945134 rxn_smarts="[N:1](=[C:2](/[O:3][C:4]1([H:9])[C:5]([H:10])([H:11])[C:6]1([H:12])[H:13])[H:8])\[H:7]>>[N:1]([C:2](=[O:3])[H:8])([C:5]([C:4](=[C:6]([H:12])[H:13])[H:9])([H:10])[H:11])[H:7]"
N        1.62016129      -0.68684334       0.51492011
C        1.76342847       0.10882450      -0.49549118
O        0.80710700       0.72960163      -1.07183000
C       -0.72981032      -0.01832429      -0.56324898
C       -0.46782821      -0.44965591       0.78803786
C       -1.80281210       0.78013221      -0.15376791
H        2.48521502      -1.04777993       0.88888908
H        2.71984482       0.13112252      -1.03747197
H       -0.92959814      -0.78605519      -1.30237294
H       -0.78352988      -1.43909268       1.09357695
H       -0.30723378       0.27866386       1.56982676
H       -1.63325755       1.65367204       0.46039160
H       -2.74168663       0.74573460      -0.69145937
13
Frame=6 idx=003405 GeodesicLength=0.3396400111971873 rxn_smarts="[N:1](=[C:2](/[O:3][C:4]1([H:9])[C:5]([H:10])([H:11])[C:6]1([H:12])[H:13])[H:8])\[H:7]>>[N:1]([C:2](=[O:3])[H:8])([C:5]([C:4](=[C:6]([H:12])[H:13])[H:9])([H:10])[H:11])[H:7]"
N        1.63657033      -0.64679096       0.54704459
C        1.77669171       0.12481814      -0.48297957
O        0.82752498       0.78311422      -1.02802207
C       -0.72470929      -0.00811993      -0.56998883
C       -0.47024807      -0.44261922       0.78608128
C       -1.81051109       0.76642582      -0.14978473
H        2.49150860      -1.07080458       0.87419293
H        2.69430585       0.05047614      -1.08463214
H       -0.91145189      -0.77239050      -1.31641486
H       -0.78910406      -1.43327139       1.08584844
H       -0.31776060       0.28212493       1.57329756
H       -1.65246680       1.65241340       0.44975116
H       -2.75034967       0.71462393      -0.68439376
13
Frame=7 idx=003405 GeodesicLength=0.39649672905512157 rxn_smarts="[N:1](=[C:2](/[O:3][C:4]1([H:9])[C:5]([H:10])([H:11])[C:6]1([H:12])[H:13])[H:8])\[H:7]>>[N:1]([C:2](=[O:3])[H:8])([C:5]([C:4](=[C:6]([H:12])[H:13])[H:9])([H:10])[H:11])[H:7]"
N        1.65453937      -0.60838427       0.57730671
C        1.78989899       0.14074160      -0.47059278
O        0.84788403       0.83290132      -0.98490074
C       -0.71881160       0.00078829      -0.57670254
C       -0.47086468      -0.43534368       0.78442768
C       -1.81606697       0.75255409      -0.14640367
H        2.49141075      -1.09751768       0.85598430
H        2.65963911      -0.02031599      -1.12448196
H       -0.89386946      -0.76089562      -1.32892204
H       -0.79314199      -1.42660562       1.07999218
H       -0.32545108       0.28663280       1.57597799
H       -1.66881300       1.65151524       0.43664108
H       -2.75635348       0.68392952      -0.67832622
13
Frame=8 idx=003405 GeodesicLength=0.45452137161734063 rxn_smarts="[N:1](=[C:2](/[O:3][C:4]1([H:9])[C:5]([H:10])([H:11])[C:6]1([H:12])[H:13])[H:8])\[H:7]>>[N:1]([C:2](=[O:3])[H:8])([C:5]([C:4](=[C:6]([H:12])[H:13])[H:9])([H:10])[H:11])[H:7]"
N        1.67376967      -0.57230630       0.60490644
C        1.80346305       0.15654526      -0.45906034
O        0.86845830       0.87937382      -0.94327328
C       -0.71233864       0.00910969      -0.58403644
C       -0.47002519      -0.42875139       0.78208513
C       -1.81959156       0.73925039      -0.14320144
H        2.48641698      -1.12136482       0.83992666
H        2.61691348      -0.08641474      -1.15906876
H       -0.87735717      -0.75014903      -1.34135567
H       -0.79593063      -1.42047110       1.07378848
H       -0.33068287       0.29033325       1.57783156
H       -1.68241805       1.65083172       0.42281131
H       -2.76067736       0.65401323      -0.67135363
13
Frame=9 idx=003405 GeodesicLength=0.5133146162637999 rxn_smarts="[N:1](=[C:2](/[O:3][C:4]1([H:9])[C:5]([H:10])([H:11])[C:6]1([H:12])[H:13])[H:8])\[H:7]>>[N:1]([C:2](=[O:3])[H:8])([C:5]([C:4](=[C:6]([H:12])[H:13])[H:9])([H:10])[H:11])[H:7]"
N        1.69375769      -0.53792865       0.62967969
C        1.81691631       0.17155208      -0.44923798
O        0.88891947       0.92171132      -0.90461641
C       -0.70582510       0.01664443      -0.59213015
C       -0.46796906      -0.42268846       0.77878499
C       -1.82113952       0.72668085      -0.14006837
H        2.47611542      -1.14328447       0.82563484
H        2.57017128      -0.14594762      -1.18617858
H       -0.86306511      -0.74049703      -1.35360703
H       -0.79763139      -1.41464717       1.06706157
H       -0.33336339       0.29345629       1.57843274
H       -1.69295751       1.65040830       0.40842035
H       -2.76392910       0.62454012      -0.66217566
13
Frame=10 idx=003405 GeodesicLength=0.5730794574491964 rxn_smarts="[N:1](=[C:2](/[O:3][C:4]1([H:9])[C:5]([H:10])([H:11])[C:6]1([H:12])[H:13])[H:8])\[H:7]>>[N:1]([C:2](=[O:3])[H:8])([C:5]([C:4](=[C:6]([H:12])[H:13])[H:9])([H:10])[H:11])[H:7]"
N        1.71402373      -0.50778814       0.65113493
C        1.83024949       0.18511067      -0.44062141
O        0.90937669       0.96079947      -0.86724604
C       -0.69947413       0.02344360      -0.60077066
C       -0.46526657      -0.41723313       0.77492343
C       -1.82134046       0.71479737      -0.13705832
H        2.46414056      -1.16193374       0.81351570
H        2.51990322      -0.19889792      -1.20804473
H       -0.85056271      -0.73185345      -1.36574931
H       -0.79983509      -1.40881243       1.06055728
H       -0.33374901       0.29608229       1.57806146
H       -1.70128458       1.65040568       0.39319033
H       -2.76618114       0.59587973      -0.65189267
13
Frame=11 idx=003405 GeodesicLength=0.6338575498651539 rxn_smarts="[N:1](=[C:2](/[O:3][C:4]1([H:9])[C:5]([H:10])([H:11])[C:6]1([H:12])[H:13])[H:8])\[H:7]>>[N:1]([C:2](=[O:3])[H:8])([C:5]([C:4](=[C:6]([H:12])[H:13])[H:9])([H:10])[H:11])[H:7]"
N        1.73460140      -0.48098668       0.67001615
C        1.84346725       0.19740945      -0.43301796
O        0.92991265       0.99718637      -0.83063918
C       -0.69325541       0.02963354      -0.60983708
C       -0.46205299      -0.41214220       0.77064675
C       -1.82044089       0.70345875      -0.13425878
H        2.45076696      -1.17854135       0.80255094
H        2.46680184      -0.24594407      -1.22531109
H       -0.83949843      -0.72413551      -1.37771302
H       -0.80249132      -1.40277575       1.05437463
H       -0.33227856       0.29852176       1.57686157
H       -1.70797320       1.65070598       0.37702185
H       -2.76755931       0.56760970      -0.64069480
13
Frame=12 idx=003405 GeodesicLength=0.6951250844071072 rxn_smarts="[N:1](=[C:2](/[O:3][C:4]1([H:9])[C:5]([H:10])([H:11])[C:6]1([H:12])[H:13])[H:8])\[H:7]>>[N:1]([C:2](=[O:3])[H:8])([C:5]([C:4](=[C:6]([H:12])[H:13])[H:9])([H:10])[H:11])[H:7]"
N        1.75524029      -0.45705042       0.68649008
C        1.85619749       0.20818897      -0.42680126
O        0.95024536       1.03044769      -0.79580985
C       -0.68764012       0.03507237      -0.61938899
C       -0.45862775      -0.40753791       0.76587118
C       -1.81870144       0.69282330      -0.13146547
H        2.43638694      -1.19317355       0.79300386
H        2.41406939      -0.28671368      -1.23769881
H       -0.83070529      -0.71746354      -1.38954892
H       -0.80572876      -1.39673205       1.04836125
H       -0.32924354       0.30059182       1.57482424
H       -1.71302116       1.65135419       0.36026497
H       -2.76847141       0.54019279      -0.62810229
13
Frame=13 idx=003405 GeodesicLength=0.756927054212131 rxn_smarts="[N:1](=[C:2](/[O:3][C:4]1([H:9])[C:5]([H:10])([H:11])[C:6]1([H:12])[H:13])[H:8])\[H:7]>>[N:1]([C:2](=[O:3])[H:8])([C:5]([C:4](=[C:6]([H:12])[H:13])[H:9])([H:10])[H:11])[H:7]"
N        1.77584899      -0.43644478       0.70078874
C        1.86854768       0.21763517      -0.42135254
O        0.97056590       1.06131004      -0.76145228
C       -0.68245966       0.03987078      -0.62926694
C       -0.45518143      -0.40315069       0.76087235
C       -1.81630057       0.68280036      -0.12895939
H        2.42194064      -1.20649945       0.78393619
H        2.36140857      -0.32157358      -1.24650496
H       -0.82349622      -0.71183715      -1.40109277
H       -0.81003424      -1.39022015       1.04298588
H       -0.32492789       0.30273215       1.57208509
H       -1.71698226       1.65236631       0.34243092
H       -2.76892951       0.51301101      -0.61447030
13
Frame=14 idx=003405 GeodesicLength=0.8193892266812034 rxn_smarts="[N:1](=[C:2](/[O:3][C:4]1([H:9])[C:5]([H:10])([H:11])[C:6]1([H:12])[H:13])[H:8])\[H:7]>>[N:1]([C:2](=[O:3])[H:8])([C:5]([C:4](=[C:6]([H:12])[H:13])[H:9])([H:10])[H:11])[H:7]"
N        1.79662117      -0.41819078       0.71344580
C        1.88059598       0.22613908      -0.41662550
O        0.99088723       1.09013778      -0.72755989
C       -0.67767232       0.04409829      -0.63942991
C       -0.45167338      -0.39897173       0.75567613
C       -1.81335586       0.67327182      -0.12666845
H        2.40707060      -1.21885839       0.77519786
H        2.30877766      -0.35168403      -1.25223021
H       -0.81766165      -0.70714456      -1.41241008
H       -0.81496995      -1.38342081       1.03807354
H       -0.31960386       0.30487190       1.56880638
H       -1.72015184       1.65353983       0.32379605
H       -2.76886379       0.48621159      -0.60007172
13
Frame=15 idx=003405 GeodesicLength=0.8824313774552989 rxn_smarts="[N:1](=[C:2](/[O:3][C:4]1([H:9])[C:5]([H:10])([H:11])[C:6]1([H:12])[H:13])[H:8])\[H:7]>>[N:1]([C:2](=[O:3])[H:8])([C:5]([C:4](=[C:6]([H:12])[H:13])[H:9])([H:10])[H:11])[H:7]"
N        1.81763400      -0.40145769       0.72476689
C        1.89227286       0.23380002      -0.41274718
O        1.01111206       1.11694175      -0.69452573
C       -0.67343445       0.04778582      -0.64992774
C       -0.44809026      -0.39521607       0.75011357
C       -1.80995855       0.66422708      -0.12435654
H        2.39191238      -1.22979676       0.76734943
H        2.25655520      -0.37805623      -1.25496538
H       -0.81347604      -0.70314652      -1.42372667
H       -0.82025338      -1.37670736       1.03316422
H       -0.31346577       0.30657038       1.56504102
H       -1.72246336       1.65480136       0.30464682
H       -2.76834470       0.46025424      -0.58483273
13
Frame=16 idx=003405 GeodesicLength=0.9455218360334233 rxn_smarts="[N:1](=[C:2](/[O:3][C:4]1([H:9])[C:5]([H:10])([H:11])[C:6]1([H:12])[H:13])[H:8])\[H:7]>>[N:1]([C:2](=[O:3])[H:8])([C:5]([C:4](=[C:6]([H:12])[H:13])[H:9])([H:10])[H:11])[H:7]"
N        1.83860686      -0.38633138       0.73471278
C        1.90334765       0.24057718      -0.40969035
O        1.03101160       1.14158202      -0.66269450
C       -0.67002337       0.05074898      -0.66072171
C       -0.44465730      -0.39201254       0.74421438
C       -1.80625046       0.65571593      -0.12190514
H        2.37723332      -1.23907122       0.76054494
H        2.20631703      -0.40056964      -1.25494459
H       -0.81138977      -0.70003250      -1.43495660
H       -0.82615076      -1.37016428       1.02832727
H       -0.30667657       0.30767494       1.56081448
H       -1.72386900       1.65612329       0.28521421
H       -2.76749925       0.43575925      -0.56891517
