13
Frame=0 idx=003636 GeodesicLength=0.0 rxn_smarts="[O:1]([N:2]=[C:3]1[C:4]([H:8])([H:9])[C:5]([H:10])([H:11])[C:6]1([H:12])[H:13])[H:7]>>[H:7][H:9].[O:1]=[N:2][C:3]1=[C:4]([H:8])[C:5]([H:10])([H:11])[C:6]1([H:12])[H:13]"
O        2.51179466      -0.43491620      -0.40158012
N        1.89312741       0.63247116      -0.11729104
C        0.57791600       0.50790094      -0.28618142
C       -0.15133760      -0.66157291      -0.47740515
C       -1.39651976      -0.03543019       0.11751666
C       -0.58632178       1.29453643       0.26603948
H        1.69929620      -1.46722212       0.22801462
H       -0.05377030      -1.47060947      -1.18678493
H        0.89681765      -1.66017254       0.46421188
H       -2.24899958      -0.00158442      -0.56331898
H       -1.72308617      -0.46907284       1.06232722
H       -0.94925906       2.08943750      -0.38495863
H       -0.46965764       1.67623470       1.27941046
13
Frame=1 idx=003636 GeodesicLength=0.07577255634459297 rxn_smarts="[O:1]([N:2]=[C:3]1[C:4]([H:8])([H:9])[C:5]([H:10])([H:11])[C:6]1([H:12])[H:13])[H:7]>>[H:7][H:9].[O:1]=[N:2][C:3]1=[C:4]([H:8])[C:5]([H:10])([H:11])[C:6]1([H:12])[H:13]"
O        2.51397657      -0.43041208      -0.40177905
N        1.89160403       0.63970535      -0.12701850
C        0.57519809       0.50827128      -0.28654480
C       -0.15125687      -0.66825414      -0.46295981
C       -1.39989026      -0.03365741       0.11781263
C       -0.58818859       1.29492753       0.26645272
H        1.72260389      -1.47499726       0.23270273
H       -0.06101467      -1.46359072      -1.18926402
H        0.89924959      -1.67922684       0.46199670
H       -2.24765368       0.00140676      -0.56875384
H       -1.73499895      -0.46208727       1.06200941
H       -0.94717197       2.09153222      -0.38473785
H       -0.47245718       1.67638259       1.28008369
13
Frame=2 idx=003636 GeodesicLength=0.15130318053624958 rxn_smarts="[O:1]([N:2]=[C:3]1[C:4]([H:8])([H:9])[C:5]([H:10])([H:11])[C:6]1([H:12])[H:13])[H:7]>>[H:7][H:9].[O:1]=[N:2][C:3]1=[C:4]([H:8])[C:5]([H:10])([H:11])[C:6]1([H:12])[H:13]"
O        2.51610514      -0.42594328      -0.40164007
N        1.88996616       0.64692424      -0.13699564
C        0.57244595       0.50868439      -0.28704517
C       -0.15111514      -0.67480146      -0.44851318
C       -1.40316905      -0.03192048       0.11806610
C       -0.59005774       1.29534070       0.26683873
H        1.74632961      -1.48268222       0.23750313
H       -0.06848621      -1.45628186      -1.19129567
H        0.90132662      -1.69862903       0.45943934
H       -2.24619421       0.00428595      -0.57418029
H       -1.74677734      -0.45513218       1.06156108
H       -0.94517013       2.09364427      -0.38447632
H       -0.47520368       1.67651096       1.28073797
13
Frame=3 idx=003636 GeodesicLength=0.226700941363308 rxn_smarts="[O:1]([N:2]=[C:3]1[C:4]([H:8])([H:9])[C:5]([H:10])([H:11])[C:6]1([H:12])[H:13])[H:7]>>[H:7][H:9].[O:1]=[N:2][C:3]1=[C:4]([H:8])[C:5]([H:10])([H:11])[C:6]1([H:12])[H:13]"
O        2.51818311      -0.42149544      -0.40114341
N        1.88821409       0.65412491      -0.14721900
C        0.56966086       0.50914717      -0.28768670
C       -0.15091453      -0.68119692      -0.43410400
C       -1.40635173      -0.03021868       0.11827868
C       -0.59192864       1.29577972       0.26719599
H        1.77050363      -1.49027492       0.24240186
H       -0.07615672      -1.44872830      -1.19286233
H        0.90297020      -1.71837704       0.45653315
H       -2.24463235       0.00705946      -0.57957883
H       -1.75839741      -0.44822037       1.06098588
H       -0.94325612       2.09577883      -0.38417362
H       -0.47789439       1.67662156       1.28137234
13
Frame=4 idx=003636 GeodesicLength=0.30203657987984767 rxn_smarts="[O:1]([N:2]=[C:3]1[C:4]([H:8])([H:9])[C:5]([H:10])([H:11])[C:6]1([H:12])[H:13])[H:7]>>[H:7][H:9].[O:1]=[N:2][C:3]1=[C:4]([H:8])[C:5]([H:10])([H:11])[C:6]1([H:12])[H:13]"
O        2.52020957      -0.41705768      -0.40026902
N        1.88634697       0.66130496      -0.15768551
C        0.56684391       0.50966638      -0.28847336
C       -0.15065784      -0.68742382      -0.41977100
C       -1.40943486      -0.02855141       0.11845339
C       -0.59380087       1.29624814       0.26752285
H        1.79516110      -1.49777153       0.24738775
H       -0.08399766      -1.44097239      -1.19395724
H        0.90410412      -1.73846997       0.45327688
H       -2.24297976       0.00973433      -0.58493008
H       -1.76983593      -0.44136426       1.06029007
H       -0.94143259       2.09794040      -0.38382991
H       -0.48052616       1.67671683       1.28198518
13
Frame=5 idx=003636 GeodesicLength=0.3773478401687058 rxn_smarts="[O:1]([N:2]=[C:3]1[C:4]([H:8])([H:9])[C:5]([H:10])([H:11])[C:6]1([H:12])[H:13])[H:7]>>[H:7][H:9].[O:1]=[N:2][C:3]1=[C:4]([H:8])[C:5]([H:10])([H:11])[C:6]1([H:12])[H:13]"
O        2.52218884      -0.41260979      -0.39899946
N        1.88436614       0.66846184      -0.16839312
C        0.56399566       0.51024742      -0.28940610
C       -0.15034716      -0.69347040      -0.40554093
C       -1.41241736      -0.02691686       0.11859365
C       -0.59567432       1.29674991       0.26781813
H        1.82034118      -1.50517349       0.25244653
H       -0.09197961      -1.43305689      -1.19457516
H        0.90464937      -1.75891088       0.44966542
H       -2.24124897       0.01231614      -0.59021748
H       -1.78107619      -0.43457119       1.05948032
H       -0.93970056       2.10013299      -0.38344702
H       -0.48309702       1.67680121       1.28257522
13
Frame=6 idx=003636 GeodesicLength=0.45276330957419114 rxn_smarts="[O:1]([N:2]=[C:3]1[C:4]([H:8])([H:9])[C:5]([H:10])([H:11])[C:6]1([H:12])[H:13])[H:7]>>[H:7][H:9].[O:1]=[N:2][C:3]1=[C:4]([H:8])[C:5]([H:10])([H:11])[C:6]1([H:12])[H:13]"
O        2.52411866      -0.40813551      -0.39734128
N        1.88227185       0.67558900      -0.17932322
C        0.56111819       0.51089261      -0.29047556
C       -0.14998528      -0.69932635      -0.39143883
C       -1.41529958      -0.02531274       0.11870262
C       -0.59755038       1.29728839       0.26808102
H        1.84611837      -1.51247637       0.25754439
H       -0.10007173      -1.42502194      -1.19471692
H        0.90450817      -1.77970428       0.44572323
H       -2.23944941       0.01481355      -0.59542953
H       -1.79210899      -0.42784650       1.05856346
H       -0.93805784       2.10235923      -0.38303018
H       -0.48561202       1.67688090       1.28314080
13
Frame=7 idx=003636 GeodesicLength=0.5283260958205511 rxn_smarts="[O:1]([N:2]=[C:3]1[C:4]([H:8])([H:9])[C:5]([H:10])([H:11])[C:6]1([H:12])[H:13])[H:7]>>[H:7][H:9].[O:1]=[N:2][C:3]1=[C:4]([H:8])[C:5]([H:10])([H:11])[C:6]1([H:12])[H:13]"
O        2.52599966      -0.40361366      -0.39529342
N        1.88006607       0.68268151      -0.19046750
C        0.55821291       0.51160372      -0.29167516
C       -0.14957431      -0.70498573      -0.37748137
C       -1.41808239      -0.02373643       0.11878459
C       -0.59942970       1.29786663       0.26831066
H        1.87256448      -1.51967448       0.26266312
H       -0.10824503      -1.41690172      -1.19439072
H        0.90358112      -1.80086062       0.44146035
H       -2.23759167       0.01723247      -0.60055417
H       -1.80292529      -0.42119410       1.05754813
H       -0.93650269       2.10462044      -0.38258453
H       -0.48807316       1.67696197       1.28368000
13
Frame=8 idx=003636 GeodesicLength=0.6040764708393968 rxn_smarts="[O:1]([N:2]=[C:3]1[C:4]([H:8])([H:9])[C:5]([H:10])([H:11])[C:6]1([H:12])[H:13])[H:7]>>[H:7][H:9].[O:1]=[N:2][C:3]1=[C:4]([H:8])[C:5]([H:10])([H:11])[C:6]1([H:12])[H:13]"
O        2.52783019      -0.39903037      -0.39287766
N        1.87774889       0.68973423      -0.20181046
C        0.55528110       0.51238193      -0.29299311
C       -0.14911678      -0.71044345      -0.36368278
C       -1.42076909      -0.02218492       0.11884162
C       -0.60131391       1.29848720       0.26850821
H        1.89977121      -1.52675435       0.26778190
H       -0.11647170      -1.40872872      -1.19360601
H        0.90176582      -1.82239588       0.43690565
H       -2.23568406       0.01958170      -0.60558698
H       -1.81352416      -0.41461583       1.05643922
H       -0.93503127       2.10691902      -0.38211332
H       -0.49048623       1.67704946       1.28419371
13
Frame=9 idx=003636 GeodesicLength=0.6799509107636221 rxn_smarts="[O:1]([N:2]=[C:3]1[C:4]([H:8])([H:9])[C:5]([H:10])([H:11])[C:6]1([H:12])[H:13])[H:7]>>[H:7][H:9].[O:1]=[N:2][C:3]1=[C:4]([H:8])[C:5]([H:10])([H:11])[C:6]1([H:12])[H:13]"
O        2.52960052      -0.39437006      -0.39008426
N        1.87532372       0.69673765      -0.21335446
C        0.55232345       0.51322739      -0.29442782
C       -0.14861522      -0.71569795      -0.35005865
C       -1.42336173      -0.02065738       0.11887825
C       -0.60320141       1.29915070       0.26867381
H        1.92782211      -1.53369041       0.27289375
H       -0.12472865      -1.40052789      -1.19238606
H        0.89896408      -1.84432463       0.43207374
H       -2.23373828       0.02186632      -0.61051636
H       -1.82390130      -0.40811500       1.05524458
H       -0.93363994       2.10925609      -0.38161774
H       -0.49284734       1.67714516       1.28468123
13
Frame=10 idx=003636 GeodesicLength=0.7560083081641413 rxn_smarts="[O:1]([N:2]=[C:3]1[C:4]([H:8])([H:9])[C:5]([H:10])([H:11])[C:6]1([H:12])[H:13])[H:7]>>[H:7][H:9].[O:1]=[N:2][C:3]1=[C:4]([H:8])[C:5]([H:10])([H:11])[C:6]1([H:12])[H:13]"
O        2.53130643      -0.38961877      -0.38697368
N        1.87279122       0.70368156      -0.22508323
C        0.54934134       0.51413535      -0.29595870
C       -0.14807436      -0.72075095      -0.33661108
C       -1.42586737      -0.01914862       0.11889222
C       -0.60509419       1.29985734       0.26881267
H        1.95685773      -1.54044704       0.27799613
H       -0.13299279      -1.39232423      -1.19074506
H        0.89504429      -1.86667604       0.42700656
H       -2.23175862       0.02410062      -0.61535046
H       -1.83406865      -0.40169116       1.05396313
H       -0.93231929       2.11163361      -0.38109723
H       -0.49516575       1.67724832       1.28514874
13
Frame=11 idx=003636 GeodesicLength=0.8322961690090638 rxn_smarts="[O:1]([N:2]=[C:3]1[C:4]([H:8])([H:9])[C:5]([H:10])([H:11])[C:6]1([H:12])[H:13])[H:7]>>[H:7][H:9].[O:1]=[N:2][C:3]1=[C:4]([H:8])[C:5]([H:10])([H:11])[C:6]1([H:12])[H:13]"
O        2.53293957      -0.38476309      -0.38360692
N        1.87015492       0.71055448      -0.23698988
C        0.54633620       0.51509998      -0.29756638
C       -0.14749734      -0.72560715      -0.32333802
C       -1.42829283      -0.01765504       0.11888016
C       -0.60699225       1.30060550       0.26893210
H        1.98704192      -1.54696968       0.28309278
H       -0.14124356      -1.38414051      -1.18869619
H        0.88985132      -1.88948762       0.42174428
H       -2.22974802       0.02629689      -0.62009983
H       -1.84404503      -0.39534194       1.05258893
H       -0.93105754       2.11405366      -0.38054652
H       -0.49744735       1.67735453       1.28560548
13
Frame=12 idx=003636 GeodesicLength=0.9087091587363555 rxn_smarts="[O:1]([N:2]=[C:3]1[C:4]([H:8])([H:9])[C:5]([H:10])([H:11])[C:6]1([H:12])[H:13])[H:7]>>[H:7][H:9].[O:1]=[N:2][C:3]1=[C:4]([H:8])[C:5]([H:10])([H:11])[C:6]1([H:12])[H:13]"
O        2.53448689      -0.37980916      -0.38003464
N        1.86741389       0.71734492      -0.24909114
C        0.54330732       0.51611706      -0.29924914
C       -0.14689127      -0.73026981      -0.31025656
C       -1.43064361      -0.01617501       0.11883983
C       -0.60889218       1.30139085       0.26904011
H        2.01851790      -1.55317443       0.28825986
H       -0.14946976      -1.37598756      -1.18627970
H        0.88325165      -1.91280312       0.41630458
H       -2.22771521       0.02847094      -0.62476556
H       -1.85383492      -0.38907464       1.05112034
H       -0.92984657       2.11652016      -0.37995044
H       -0.49968413       1.67744981       1.28606247
13
Frame=13 idx=003636 GeodesicLength=0.985160870181414 rxn_smarts="[O:1]([N:2]=[C:3]1[C:4]([H:8])([H:9])[C:5]([H:10])([H:11])[C:6]1([H:12])[H:13])[H:7]>>[H:7][H:9].[O:1]=[N:2][C:3]1=[C:4]([H:8])[C:5]([H:10])([H:11])[C:6]1([H:12])[H:13]"
O        2.53593187      -0.37475943      -0.37631477
N        1.86456960       0.72403606      -0.26141100
C        0.54025404       0.51717903      -0.30100420
C       -0.14626279      -0.73474678      -0.29737719
C       -1.43292526      -0.01470697       0.11876756
C       -0.61078857       1.30220677       0.26914726
H        2.05145625      -1.55895390       0.29358369
H       -0.15766434      -1.36787542      -1.18353227
H        0.87508424      -1.93667644       0.41069812
H       -2.22566616       0.03063891      -0.62935316
H       -1.86344951      -0.38289369       1.04955166
H       -0.92867442       2.11903617      -0.37928989
H       -0.50186495       1.67751570       1.28653418
13
Frame=14 idx=003636 GeodesicLength=1.061603151515205 rxn_smarts="[O:1]([N:2]=[C:3]1[C:4]([H:8])([H:9])[C:5]([H:10])([H:11])[C:6]1([H:12])[H:13])[H:7]>>[H:7][H:9].[O:1]=[N:2][C:3]1=[C:4]([H:8])[C:5]([H:10])([H:11])[C:6]1([H:12])[H:13]"
O        2.53725572      -0.36963271      -0.37255404
N        1.86162052       0.73060752      -0.27398139
C        0.53717533       0.51827527      -0.30283019
C       -0.14562236      -0.73904740      -0.28471965
C       -1.43514501      -0.01324922       0.11865551
C       -0.61267356       1.30304320       0.26926991
H        2.08606692      -1.56415161       0.29921884
H       -0.16582681      -1.35980916      -1.18050289
H        0.86515734      -1.96118236       0.40493434
H       -2.22360678       0.03282691      -0.63387313
H       -1.87290217      -0.37680936       1.04787194
H       -0.92752526       2.12160770      -0.37853271
H       -0.50397389       1.67752121       1.28704345
13
Frame=15 idx=003636 GeodesicLength=1.1379095733189168 rxn_smarts="[O:1]([N:2]=[C:3]1[C:4]([H:8])([H:9])[C:5]([H:10])([H:11])[C:6]1([H:12])[H:13])[H:7]>>[H:7][H:9].[O:1]=[N:2][C:3]1=[C:4]([H:8])[C:5]([H:10])([H:11])[C:6]1([H:12])[H:13]"
O        2.53843609      -0.36445721      -0.36885028
N        1.85856436       0.73703281      -0.28685989
C        0.53406827       0.51939285      -0.30473961
C       -0.14498287      -0.74318452      -0.27231240
C       -1.43730876      -0.01180165       0.11849677
C       -0.61453390       1.30388614       0.26942647
H        2.12255820      -1.56857190       0.30538309
H       -0.17396851      -1.35178793      -1.17725343
H        0.85327609      -1.98640138       0.39898617
H       -2.22154738       0.03506239      -0.63832885
H       -1.88220018      -0.37083580       1.04607196
H       -0.92638183       2.12424083      -0.37763684
H       -0.50597956       1.67742536       1.28761684
13
Frame=16 idx=003636 GeodesicLength=1.213937310646994 rxn_smarts="[O:1]([N:2]=[C:3]1[C:4]([H:8])([H:9])[C:5]([H:10])([H:11])[C:6]1([H:12])[H:13])[H:7]>>[H:7][H:9].[O:1]=[N:2][C:3]1=[C:4]([H:8])[C:5]([H:10])([H:11])[C:6]1([H:12])[H:13]"
O        2.53944857      -0.35927395      -0.36532527
N        1.85539684       0.74327763      -0.30012462
C        0.53092729       0.52051676      -0.30675904
C       -0.14436156      -0.74717312      -0.26020131
C       -1.43942180      -0.01036522       0.11828446
C       -0.61635159       1.30471713       0.26963918
H        2.16115297      -1.57196946       0.31238624
H       -0.18211358      -1.34380358      -1.17386601
H        0.83922985      -2.01242993       0.39279884
H       -2.21950304       0.03738080      -0.64271765
H       -1.89134237      -0.36499447       1.04414431
H       -0.92522604       2.12694412      -0.37654623
H       -0.50783554       1.67717329       1.28828709
