12
Frame=0 idx=007474 GeodesicLength=0.0 rxn_smarts="[N:1]([c:2]1[c:3]([H:10])[n:4]([H:11])[c:5](=[O:6])[n:7]1[H:12])([H:8])[H:9]>>[N:1](=[C:2]1/[C:3]([H:9])([H:10])[N:4]([H:11])[C:5](=[O:6])[N:7]1[H:12])\[H:8]"
N        2.02220585      -0.05456159       0.09343320
C        0.74155990      -0.16609233      -0.13919607
C        0.12301591       1.11777354       0.03872504
N       -1.25177593       0.73175019       0.28941978
C       -1.46176469      -0.59191089       0.08141075
O       -2.46154808      -1.25163204       0.19892975
N       -0.17966950      -1.13525040      -0.28387893
H        2.71093139      -0.71253595      -0.24943762
H        1.57345471       1.12515063       0.49561474
H        0.22560996       1.73211717      -0.85950200
H       -2.01241166       1.33220340       0.54431096
H       -0.02960786      -2.12701178      -0.20982965
12
Frame=1 idx=007474 GeodesicLength=0.037591228741070924 rxn_smarts="[N:1]([c:2]1[c:3]([H:10])[n:4]([H:11])[c:5](=[O:6])[n:7]1[H:12])([H:8])[H:9]>>[N:1](=[C:2]1/[C:3]([H:9])([H:10])[N:4]([H:11])[C:5](=[O:6])[N:7]1[H:12])\[H:8]"
N        2.02182890      -0.05843776       0.09615093
C        0.74340206      -0.16253414      -0.16204236
C        0.12122424       1.11742049       0.03181292
N       -1.25030933       0.72982242       0.28755432
C       -1.46014509      -0.59446591       0.07874493
O       -2.46059587      -1.25313744       0.19977341
N       -0.17929551      -1.13636804      -0.28059654
H        2.70192201      -0.72617822      -0.24513752
H        1.57275681       1.13184189       0.50078524
H        0.22230723       1.74893462      -0.85386585
H       -2.00954561       1.32976044       0.54767018
H       -0.02354983      -2.12665835      -0.20084965
12
Frame=2 idx=007474 GeodesicLength=0.07518011836940289 rxn_smarts="[N:1]([c:2]1[c:3]([H:10])[n:4]([H:11])[c:5](=[O:6])[n:7]1[H:12])([H:8])[H:9]>>[N:1](=[C:2]1/[C:3]([H:9])([H:10])[N:4]([H:11])[C:5](=[O:6])[N:7]1[H:12])\[H:8]"
N        2.02121430      -0.06247201       0.09887290
C        0.74519562      -0.15924423      -0.18358095
C        0.11951800       1.11695630       0.02483101
N       -1.24881327       0.72796296       0.28561291
C       -1.45850242      -0.59698739       0.07613882
O       -2.45964629      -1.25458765       0.20042290
N       -0.17872733      -1.13732744      -0.27688766
H        2.69269122      -0.73911751      -0.24200848
H        1.57195472       1.13849556       0.50632963
H        0.21929503       1.76501177      -0.84822911
H       -2.00666597       1.32747586       0.55058230
H       -0.01751361      -2.12616623      -0.19208429
12
Frame=3 idx=007474 GeodesicLength=0.11276287514955512 rxn_smarts="[N:1]([c:2]1[c:3]([H:10])[n:4]([H:11])[c:5](=[O:6])[n:7]1[H:12])([H:8])[H:9]>>[N:1](=[C:2]1/[C:3]([H:9])([H:10])[N:4]([H:11])[C:5](=[O:6])[N:7]1[H:12])\[H:8]"
N        2.02042316      -0.06661188       0.10157856
C        0.74694723      -0.15624002      -0.20383393
C        0.11789213       1.11638962       0.01777942
N       -1.24728712       0.72616889       0.28362315
C       -1.45683482      -0.59948883       0.07368467
O       -2.45872173      -1.25597581       0.20091364
N       -0.17801311      -1.13814495      -0.27283237
H        2.68332447      -0.75139208      -0.23991607
H        1.57104669       1.14515364       0.51221735
H        0.21655030       1.78035496      -0.84262951
H       -2.00378333       1.32535543       0.55304877
H       -0.01154387      -2.12556897      -0.18363370
12
Frame=4 idx=007474 GeodesicLength=0.15036701059672936 rxn_smarts="[N:1]([c:2]1[c:3]([H:10])[n:4]([H:11])[c:5](=[O:6])[n:7]1[H:12])([H:8])[H:9]>>[N:1](=[C:2]1/[C:3]([H:9])([H:10])[N:4]([H:11])[C:5](=[O:6])[N:7]1[H:12])\[H:8]"
N        2.01949869      -0.07079208       0.10417297
C        0.74866587      -0.15349857      -0.22299764
C        0.11632964       1.11574319       0.01062050
N       -1.24573096       0.72443573       0.28158469
C       -1.45513068      -0.60198393       0.07139251
O       -2.45780058      -1.25732264       0.20131890
N       -0.17718447      -1.13882227      -0.26854038
H        2.67385527      -0.76318223      -0.23853018
H        1.57000649       1.15184379       0.51840477
H        0.21401356       1.79507189      -0.83708455
H       -2.00087831       1.32337503       0.55519370
H       -0.00564452      -2.12486790      -0.17553528
12
Frame=5 idx=007474 GeodesicLength=0.18794615203623866 rxn_smarts="[N:1]([c:2]1[c:3]([H:10])[n:4]([H:11])[c:5](=[O:6])[n:7]1[H:12])([H:8])[H:9]>>[N:1](=[C:2]1/[C:3]([H:9])([H:10])[N:4]([H:11])[C:5](=[O:6])[N:7]1[H:12])\[H:8]"
N        2.01846603      -0.07500133       0.10670769
C        0.75035310      -0.15100931      -0.24112420
C        0.11482844       1.11501985       0.00335097
N       -1.24414671       0.72276145       0.27947856
C       -1.45338738      -0.60446648       0.06933549
O       -2.45685814      -1.25863176       0.20184775
N       -0.17627729      -1.13936899      -0.26411741
H        2.66432902      -0.77450264      -0.23773748
H        1.56881747       1.15857600       0.52490162
H        0.21168837       1.80917474      -0.83159606
H       -1.99796812       1.32154185       0.55692826
H        0.00015522      -2.12409338      -0.16797521
12
Frame=6 idx=007474 GeodesicLength=0.2255475127862871 rxn_smarts="[N:1]([c:2]1[c:3]([H:10])[n:4]([H:11])[c:5](=[O:6])[n:7]1[H:12])([H:8])[H:9]>>[N:1](=[C:2]1/[C:3]([H:9])([H:10])[N:4]([H:11])[C:5](=[O:6])[N:7]1[H:12])\[H:8]"
N        2.01734738      -0.07921719       0.10915342
C        0.75201894      -0.14876628      -0.25837884
C        0.11337720       1.11423630      -0.00407010
N       -1.24253904       0.72114967       0.27727643
C       -1.45161012      -0.60694910       0.06744050
O       -2.45588605      -1.25992394       0.20250929
N       -0.17531041      -1.13979143      -0.25961493
H        2.65476878      -0.78545244      -0.23735471
H        1.56745186       1.16536752       0.53168025
H        0.20954583       1.82275921      -0.82618585
H       -1.99501721       1.31983141       0.55843046
H        0.00585284      -2.12324372      -0.16088592
12
Frame=7 idx=007474 GeodesicLength=0.26316628510604917 rxn_smarts="[N:1]([c:2]1[c:3]([H:10])[n:4]([H:11])[c:5](=[O:6])[n:7]1[H:12])([H:8])[H:9]>>[N:1](=[C:2]1/[C:3]([H:9])([H:10])[N:4]([H:11])[C:5](=[O:6])[N:7]1[H:12])\[H:8]"
N        2.01616541      -0.08339524       0.11142432
C        0.75366997      -0.14673148      -0.27492995
C        0.11196592       1.11340218      -0.01166644
N       -1.24089352       0.71958368       0.27501397
C       -1.44979229      -0.60942227       0.06568124
O       -2.45488791      -1.26117916       0.20323550
N       -0.17428721      -1.14011752      -0.25506412
H        2.64516211      -0.79615202      -0.23718676
H        1.56589268       1.17223484       0.53868889
H        0.20752445       1.83590651      -0.82083993
H       -1.99199221       1.31820878       0.55982195
H        0.01147260      -2.12233828      -0.15417866
12
Frame=8 idx=007474 GeodesicLength=0.30077849489781394 rxn_smarts="[N:1]([c:2]1[c:3]([H:10])[n:4]([H:11])[c:5](=[O:6])[n:7]1[H:12])([H:8])[H:9]>>[N:1](=[C:2]1/[C:3]([H:9])([H:10])[N:4]([H:11])[C:5](=[O:6])[N:7]1[H:12])\[H:8]"
N        2.01493366      -0.08755391       0.11357595
C        0.75529967      -0.14492268      -0.29078088
C        0.11059785       1.11251289      -0.01942489
N       -1.23921208       0.71806825       0.27267796
C       -1.44792802      -0.61190038       0.06416048
O       -2.45387881      -1.26239769       0.20405329
N       -0.17322217      -1.14034562      -0.25048297
H        2.63554955      -0.80654642      -0.23731808
H        1.56412437       1.17916514       0.54596833
H        0.20565156       1.84860715      -0.81554759
H       -1.98891242       1.31669412       0.56100485
H        0.01699683      -2.12138084      -0.14788646
12
Frame=9 idx=007474 GeodesicLength=0.33841674121640725 rxn_smarts="[N:1]([c:2]1[c:3]([H:10])[n:4]([H:11])[c:5](=[O:6])[n:7]1[H:12])([H:8])[H:9]>>[N:1](=[C:2]1/[C:3]([H:9])([H:10])[N:4]([H:11])[C:5](=[O:6])[N:7]1[H:12])\[H:8]"
N        2.01366128      -0.09167281       0.11558803
C        0.75692527      -0.14331171      -0.30608319
C        0.10926446       1.11157858      -0.02738928
N       -1.23749676       0.71660148       0.27024102
C       -1.44603030      -0.61437287       0.06275345
O       -2.45284358      -1.26358324       0.20499192
N       -0.17212452      -1.14049968      -0.24589599
H        2.62592743      -0.81672277      -0.23757416
H        1.56211932       1.18617569       0.55348431
H        0.20389451       1.86094372      -0.81031923
H       -1.98573077       1.31525526       0.56215862
H        0.02243364      -2.12039165      -0.14195549
12
Frame=10 idx=007474 GeodesicLength=0.3760568697405133 rxn_smarts="[N:1]([c:2]1[c:3]([H:10])[n:4]([H:11])[c:5](=[O:6])[n:7]1[H:12])([H:8])[H:9]>>[N:1](=[C:2]1/[C:3]([H:9])([H:10])[N:4]([H:11])[C:5](=[O:6])[N:7]1[H:12])\[H:8]"
N        2.01234999      -0.09577258       0.11750755
C        0.75854161      -0.14190900      -0.32085201
C        0.10796907       1.11059472      -0.03554610
N       -1.23574748       0.71518317       0.26769527
C       -1.44409547      -0.61684175       0.06150360
O       -2.45177259      -1.26473837       0.20612876
N       -0.17100711      -1.14057799      -0.24133489
H        2.61632601      -0.82664175      -0.23800223
H        1.55986039       1.19325227       0.56126789
H        0.20227435       1.87291574      -0.80513290
H       -1.98246551       1.31390726       0.56318865
H        0.02776674      -2.11937171      -0.13642357
12
Frame=11 idx=007474 GeodesicLength=0.4137088389516475 rxn_smarts="[N:1]([c:2]1[c:3]([H:10])[n:4]([H:11])[c:5](=[O:6])[n:7]1[H:12])([H:8])[H:9]>>[N:1](=[C:2]1/[C:3]([H:9])([H:10])[N:4]([H:11])[C:5](=[O:6])[N:7]1[H:12])\[H:8]"
N        2.01100856      -0.09982908       0.11929073
C        0.76015552      -0.14069453      -0.33519636
C        0.10670475       1.10956689      -0.04392685
N       -1.23396279       0.71381099       0.26502128
C       -1.44213656      -0.61930258       0.06033557
O       -2.45067876      -1.26585664       0.20741129
N       -0.16986334      -1.14060076      -0.23680029
H        2.60673221      -0.83636751      -0.23850665
H        1.55731970       1.20040255       0.56930100
H        0.20077113       1.88457963      -0.79998684
H       -1.97906990       1.31262105       0.56424315
H        0.03301946      -2.11833002      -0.13118601
12
Frame=12 idx=007474 GeodesicLength=0.45137204212399384 rxn_smarts="[N:1]([c:2]1[c:3]([H:10])[n:4]([H:11])[c:5](=[O:6])[n:7]1[H:12])([H:8])[H:9]>>[N:1](=[C:2]1/[C:3]([H:9])([H:10])[N:4]([H:11])[C:5](=[O:6])[N:7]1[H:12])\[H:8]"
N        2.00964621      -0.10386078       0.12097799
C        0.76177129      -0.13967229      -0.34912701
C        0.10547803       1.10849356      -0.05250976
N       -1.23213980       0.71248095       0.26224574
C       -1.44013818      -0.62175575       0.05930322
O       -2.44954495      -1.26693700       0.20889773
N       -0.16871600      -1.14057093      -0.23230903
H        2.59717639      -0.84587258      -0.23912449
H        1.55449322       1.20762251       0.57759411
H        0.19938603       1.89593203      -0.79485522
H       -1.97557826       1.31141821       0.56520422
H        0.03816601      -2.11727794      -0.12629750
12
Frame=13 idx=007474 GeodesicLength=0.4890407144550738 rxn_smarts="[N:1]([c:2]1[c:3]([H:10])[n:4]([H:11])[c:5](=[O:6])[n:7]1[H:12])([H:8])[H:9]>>[N:1](=[C:2]1/[C:3]([H:9])([H:10])[N:4]([H:11])[C:5](=[O:6])[N:7]1[H:12])\[H:8]"
N        2.00826182      -0.10785122       0.12252730
C        0.76338516      -0.13883730      -0.36272186
C        0.10427705       1.10736847      -0.06133358
N       -1.23027013       0.71118833       0.25935288
C       -1.43812207      -0.62419671       0.05830954
O       -2.44841487      -1.26795650       0.21041237
N       -0.16754032      -1.14049947      -0.22783084
H        2.58764425      -0.85519820      -0.23980887
H        1.55135327       1.21492823       0.58610385
H        0.19809244       1.90700609      -0.78975460
H       -1.97190811       1.31025315       0.56630404
H        0.04324151      -2.11620487      -0.12156023
12
Frame=14 idx=007474 GeodesicLength=0.5267142118003967 rxn_smarts="[N:1]([c:2]1[c:3]([H:10])[n:4]([H:11])[c:5](=[O:6])[n:7]1[H:12])([H:8])[H:9]>>[N:1](=[C:2]1/[C:3]([H:9])([H:10])[N:4]([H:11])[C:5](=[O:6])[N:7]1[H:12])\[H:8]"
N        2.00685344      -0.11182147       0.12400109
C        0.76500564      -0.13818500      -0.37599860
C        0.10311088       1.10619694      -0.07038632
N       -1.22836269       0.70993726       0.25631272
C       -1.43608391      -0.62661966       0.05735840
O       -2.44723418      -1.26893304       0.21217565
N       -0.16636660      -1.14038703      -0.22342671
H        2.57815959      -0.86431658      -0.24056709
H        1.54787586       1.22229839       0.59488449
H        0.19691889       1.91780419      -0.78465823
H       -1.96809435       1.30914918       0.56740545
H        0.04821744      -2.11512318      -0.11710084
12
Frame=15 idx=007474 GeodesicLength=0.564397932752462 rxn_smarts="[N:1]([c:2]1[c:3]([H:10])[n:4]([H:11])[c:5](=[O:6])[n:7]1[H:12])([H:8])[H:9]>>[N:1](=[C:2]1/[C:3]([H:9])([H:10])[N:4]([H:11])[C:5](=[O:6])[N:7]1[H:12])\[H:8]"
N        2.00543246      -0.11576038       0.12536045
C        0.76663376      -0.13770783      -0.38900916
C        0.10197732       1.10497949      -0.07966536
N       -1.22640679       0.70872146       0.25316442
C       -1.43402029      -0.62903078       0.05646994
O       -2.44602483      -1.26986293       0.21411582
N       -0.16518277      -1.14024155      -0.21908349
H        2.56871211      -0.87327601      -0.24136371
H        1.54405519       1.22974763       0.60390352
H        0.19584430       1.92835627      -0.77953942
H       -1.96413334       1.30810640       0.56851750
H        0.05311290      -2.11403178      -0.11287050
12
Frame=16 idx=007474 GeodesicLength=0.6020858440688301 rxn_smarts="[N:1]([c:2]1[c:3]([H:10])[n:4]([H:11])[c:5](=[O:6])[n:7]1[H:12])([H:8])[H:9]>>[N:1](=[C:2]1/[C:3]([H:9])([H:10])[N:4]([H:11])[C:5](=[O:6])[N:7]1[H:12])\[H:8]"
N        2.00399612      -0.11968225       0.12664338
C        0.76827283      -0.13740408      -0.40176187
C        0.10087897       1.10371351      -0.08915863
N       -1.22439463       0.70753883       0.24992991
C       -1.43192531      -0.63143007       0.05567545
O       -2.44477267      -1.27074432       0.21629682
N       -0.16399727      -1.14006328      -0.21481781
H        2.55931583      -0.88206320      -0.24220194
H        1.53988429       1.23728227       0.61315918
H        0.19486829       1.93865441      -0.77438604
H       -1.96004139       1.30714124       0.56956160
H        0.05791494      -2.11294306      -0.10894006
