15
Frame=0 idx=008776 GeodesicLength=0.0 rxn_smarts="[O:1]=[C:2]1[C:3]([H:8])([H:9])[C:4]([H:10])([H:11])[C:5]([H:12])([H:13])[C:6]([H:14])=[C:7]1[H:15]>>[C:3](=[C:4]([H:10])[H:11])([H:8])[H:9].[O:1]=[C:2]=[C:7]([C:6](=[C:5]([H:12])[H:13])[H:14])[H:15]"
O        0.74767238      -1.83451427       1.83872323
C        0.86096956      -1.14473018       0.90364372
C       -1.07245011      -1.16530730      -0.10147655
C       -1.44963985       0.10488638      -0.47517996
C        0.11816332       1.55306584       0.17835799
C        1.20999261       0.91197791      -0.34757224
C        1.62780526      -0.34168992       0.09148729
H       -0.74189609      -1.87106201      -0.85235449
H       -1.49821318      -1.59809819       0.79419607
H       -1.38119379       0.41903092      -1.50769802
H       -2.16118501       0.65613906       0.12582469
H       -0.20151489       2.50396643      -0.22967291
H       -0.20096444       1.35484835       1.19169872
H        1.69719619       1.32337045      -1.22512284
H        2.44525807      -0.87188343      -0.38485466
15
Frame=1 idx=008776 GeodesicLength=0.06607966434868551 rxn_smarts="[O:1]=[C:2]1[C:3]([H:8])([H:9])[C:4]([H:10])([H:11])[C:5]([H:12])([H:13])[C:6]([H:14])=[C:7]1[H:15]>>[C:3](=[C:4]([H:10])[H:11])([H:8])[H:9].[O:1]=[C:2]=[C:7]([C:6](=[C:5]([H:12])[H:13])[H:14])[H:15]"
O        0.74751325      -1.83824941       1.84180037
C        0.85372198      -1.14638988       0.90623516
C       -1.06806373      -1.16599502      -0.11080889
C       -1.47400484       0.10876775      -0.44567730
C        0.11856729       1.55261406       0.14598922
C        1.21591653       0.89898663      -0.35799304
C        1.63783855      -0.34364324       0.10797322
H       -0.72716677      -1.83576345      -0.89041906
H       -1.50661400      -1.64680049       0.75401627
H       -1.46130561       0.43672044      -1.47644679
H       -2.17967349       0.63124123       0.18787664
H       -0.18510057       2.49925568      -0.28498672
H       -0.18868085       1.39835481       1.17097241
H        1.74476999       1.32074616      -1.20605003
H        2.47228227      -0.86984526      -0.34248146
15
Frame=2 idx=008776 GeodesicLength=0.13038129722636968 rxn_smarts="[O:1]=[C:2]1[C:3]([H:8])([H:9])[C:4]([H:10])([H:11])[C:5]([H:12])([H:13])[C:6]([H:14])=[C:7]1[H:15]>>[C:3](=[C:4]([H:10])[H:11])([H:8])[H:9].[O:1]=[C:2]=[C:7]([C:6](=[C:5]([H:12])[H:13])[H:14])[H:15]"
O        0.74657247      -1.84179834       1.84453366
C        0.84619943      -1.14829102       0.90826428
C       -1.06436790      -1.16643829      -0.12035999
C       -1.49756022       0.11199726      -0.41489536
C        0.11867502       1.55119244       0.11203833
C        1.22229421       0.88597166      -0.36850995
C        1.64698547      -0.34557970       0.12416172
H       -0.71362122      -1.79829523      -0.92766612
H       -1.51381276      -1.69419931       0.71121416
H       -1.54138589       0.45295732      -1.44095151
H       -2.19476938       0.60500509       0.25153981
H       -0.17010958       2.49143101      -0.34390005
H       -0.17628749       1.44303830       1.14690521
H        1.79446936       1.32104712      -1.18110442
H        2.49671848      -0.86803832      -0.30126976
15
Frame=3 idx=008776 GeodesicLength=0.1919013644625539 rxn_smarts="[O:1]=[C:2]1[C:3]([H:8])([H:9])[C:4]([H:10])([H:11])[C:5]([H:12])([H:13])[C:6]([H:14])=[C:7]1[H:15]>>[C:3](=[C:4]([H:10])[H:11])([H:8])[H:9].[O:1]=[C:2]=[C:7]([C:6](=[C:5]([H:12])[H:13])[H:14])[H:15]"
O        0.74397430      -1.84491293       1.84683733
C        0.83830474      -1.15095075       0.90919704
C       -1.06106456      -1.16626104      -0.13082330
C       -1.51949716       0.11501540      -0.38298071
C        0.11882146       1.54863572       0.07775372
C        1.22966963       0.87341142      -0.37795749
C        1.65521923      -0.34736471       0.14035158
H       -0.70111416      -1.75796434      -0.96484944
H       -1.51994005      -1.73969455       0.66495353
H       -1.61994187       0.46888371      -1.40097988
H       -2.20573593       0.57755841       0.31653428
H       -0.15604909       2.48044544      -0.40446804
H       -0.16390742       1.48799385       1.12032092
H        1.83980745       1.31945003      -1.15649700
H        2.52145342      -0.86424567      -0.25739255
15
Frame=4 idx=008776 GeodesicLength=0.2513026254597294 rxn_smarts="[O:1]=[C:2]1[C:3]([H:8])([H:9])[C:4]([H:10])([H:11])[C:5]([H:12])([H:13])[C:6]([H:14])=[C:7]1[H:15]>>[C:3](=[C:4]([H:10])[H:11])([H:8])[H:9].[O:1]=[C:2]=[C:7]([C:6](=[C:5]([H:12])[H:13])[H:14])[H:15]"
O        0.74144501      -1.84871484       1.84829985
C        0.83052582      -1.15400774       0.90951066
C       -1.05851968      -1.16584441      -0.14103357
C       -1.53959403       0.11748959      -0.35096281
C        0.11865084       1.54531236       0.04339710
C        1.23849759       0.86239276      -0.38522542
C        1.66263892      -0.34915318       0.15594990
H       -0.69047822      -1.71700336      -0.99973869
H       -1.52539160      -1.78178517       0.61785460
H       -1.69507734       0.48299749      -1.35822312
H       -2.21358844       0.54943576       0.38001917
H       -0.14354438       2.46658214      -0.46658244
H       -0.15251339       1.53340150       1.09118758
H        1.88389175       1.31983329      -1.12822474
H        2.54305716      -0.86093617      -0.21622806
15
Frame=5 idx=008776 GeodesicLength=0.3088820402504195 rxn_smarts="[O:1]=[C:2]1[C:3]([H:8])([H:9])[C:4]([H:10])([H:11])[C:5]([H:12])([H:13])[C:6]([H:14])=[C:7]1[H:15]>>[C:3](=[C:4]([H:10])[H:11])([H:8])[H:9].[O:1]=[C:2]=[C:7]([C:6](=[C:5]([H:12])[H:13])[H:14])[H:15]"
O        0.73842557      -1.85304786       1.84896119
C        0.82274311      -1.15773010       0.90898547
C       -1.05653972      -1.16502906      -0.15147130
C       -1.55789132       0.11966025      -0.31856008
C        0.11833606       1.54116860       0.00920978
C        1.24870470       0.85284257      -0.39011072
C        1.66934832      -0.35094633       0.17127094
H       -0.68142213      -1.67479700      -1.03314321
H       -1.53034121      -1.82079678       0.56919072
H       -1.76708258       0.49613745      -1.31231880
H       -2.21813056       0.52051675       0.44276599
H       -0.13224589       2.44963522      -0.52996429
H       -0.14210463       1.57909907       1.05959516
H        1.92489751       1.32033317      -1.09906825
H        2.56330276      -0.85704594      -0.17534260
15
Frame=6 idx=008776 GeodesicLength=0.3649416049621114 rxn_smarts="[O:1]=[C:2]1[C:3]([H:8])([H:9])[C:4]([H:10])([H:11])[C:5]([H:12])([H:13])[C:6]([H:14])=[C:7]1[H:15]>>[C:3](=[C:4]([H:10])[H:11])([H:8])[H:9].[O:1]=[C:2]=[C:7]([C:6](=[C:5]([H:12])[H:13])[H:14])[H:15]"
O        0.73534948      -1.85808695       1.84867208
C        0.81507535      -1.16209973       0.90757132
C       -1.05521864      -1.16388146      -0.16181724
C       -1.57442325       0.12149633      -0.28600165
C        0.11782719       1.53622562      -0.02472124
C        1.26024445       0.84503228      -0.39237033
C        1.67539698      -0.35283654       0.18602717
H       -0.67423522      -1.63201064      -1.06455376
H       -1.53512051      -1.85636150       0.51984596
H       -1.83549315       0.50810923      -1.26382743
H       -2.21978492       0.49098903       0.50411888
H       -0.12214144       2.42946821      -0.59450100
H       -0.13304118       1.62498992       1.02545288
H        1.96375687       1.32199773      -1.06809142
H        2.58180801      -0.85303154      -0.13580422
15
Frame=7 idx=008776 GeodesicLength=0.4195923392568976 rxn_smarts="[O:1]=[C:2]1[C:3]([H:8])([H:9])[C:4]([H:10])([H:11])[C:5]([H:12])([H:13])[C:6]([H:14])=[C:7]1[H:15]>>[C:3](=[C:4]([H:10])[H:11])([H:8])[H:9].[O:1]=[C:2]=[C:7]([C:6](=[C:5]([H:12])[H:13])[H:14])[H:15]"
O        0.73230319      -1.86379463       1.84736247
C        0.80758686      -1.16722116       0.90510622
C       -1.05453155      -1.16237236      -0.17204563
C       -1.58918023       0.12306599      -0.25337101
C        0.11717775       1.53046632      -0.05817750
C        1.27298690       0.83907162      -0.39174271
C        1.68081612      -0.35489639       0.20010263
H       -0.66898443      -1.58887024      -1.09398189
H       -1.53999604      -1.88835048       0.47012204
H       -1.90005956       0.51910718      -1.21305267
H       -2.21875571       0.46095159       0.56387704
H       -0.11299788       2.40592157      -0.65985034
H       -0.12551521       1.67089252       0.98882960
H        2.00018426       1.32468893      -1.03590628
H        2.59896553      -0.84866044      -0.09727196
15
Frame=8 idx=008776 GeodesicLength=0.47401259694679027 rxn_smarts="[O:1]=[C:2]1[C:3]([H:8])([H:9])[C:4]([H:10])([H:11])[C:5]([H:12])([H:13])[C:6]([H:14])=[C:7]1[H:15]>>[C:3](=[C:4]([H:10])[H:11])([H:8])[H:9].[O:1]=[C:2]=[C:7]([C:6](=[C:5]([H:12])[H:13])[H:14])[H:15]"
O        0.72900012      -1.87002233       1.84509053
C        0.80037759      -1.17361731       0.90112869
C       -1.05469660      -1.16063480      -0.18256811
C       -1.60259451       0.12444851      -0.22020917
C        0.11650971       1.52394085      -0.09152550
C        1.28676713       0.83466512      -0.38865872
C        1.68580474      -0.35736133       0.21338635
H       -0.66598272      -1.54516806      -1.12218367
H       -1.54537686      -1.91741908       0.41935234
H       -1.96199188       0.52974946      -1.15929834
H       -2.21484014       0.43026061       0.62316164
H       -0.10466025       2.37870352      -0.72662970
H       -0.11922213       1.71712908       0.94924215
H        2.03459102       1.32837817      -1.00276571
H        2.61631476      -0.84305240      -0.05752280
15
Frame=9 idx=008776 GeodesicLength=0.5259973356042739 rxn_smarts="[O:1]=[C:2]1[C:3]([H:8])([H:9])[C:4]([H:10])([H:11])[C:5]([H:12])([H:13])[C:6]([H:14])=[C:7]1[H:15]>>[C:3](=[C:4]([H:10])[H:11])([H:8])[H:9].[O:1]=[C:2]=[C:7]([C:6](=[C:5]([H:12])[H:13])[H:14])[H:15]"
O        0.72682294      -1.87695739       1.84140506
C        0.79347033      -1.18013039       0.89622351
C       -1.05532626      -1.15835427      -0.19188577
C       -1.61384169       0.12557933      -0.18775643
C        0.11564485       1.51639197      -0.12387764
C        1.30129628       0.83274847      -0.38195165
C        1.68998223      -0.35992961       0.22525504
H       -0.66494944      -1.50251571      -1.14698331
H       -1.55119143      -1.94176303       0.37078437
H       -2.01802121       0.53870050      -1.10529295
H       -2.20948109       0.39970570       0.67874181
H       -0.09681918       2.34750223      -0.79325577
H       -0.11545221       1.76259022       0.90728910
H        2.06759139       1.33503703      -0.96577849
H        2.63027448      -0.83860507      -0.02291687
15
Frame=10 idx=008776 GeodesicLength=0.577936109066894 rxn_smarts="[O:1]=[C:2]1[C:3]([H:8])([H:9])[C:4]([H:10])([H:11])[C:5]([H:12])([H:13])[C:6]([H:14])=[C:7]1[H:15]>>[C:3](=[C:4]([H:10])[H:11])([H:8])[H:9].[O:1]=[C:2]=[C:7]([C:6](=[C:5]([H:12])[H:13])[H:14])[H:15]"
O        0.72593465      -1.88486340       1.83661697
C        0.78736474      -1.18763770       0.89008274
C       -1.05689818      -1.15604573      -0.20038828
C       -1.62382022       0.12666152      -0.15583061
C        0.11480658       1.50841817      -0.15532088
C        1.31675196       0.83325180      -0.37174702
C        1.69411695      -0.36295978       0.23570336
H       -0.66640434      -1.46137413      -1.16922229
H       -1.55824369      -1.96270641       0.32384954
H       -2.06987383       0.54684242      -1.05091564
H       -2.20339068       0.36952899       0.73137290
H       -0.08908895       2.31305917      -0.85981196
H       -0.11378212       1.80804993       0.86282758
H        2.09911560       1.34426152      -0.92629180
H        2.64341153      -0.83448639       0.00907538
15
Frame=11 idx=008776 GeodesicLength=0.6289569778130534 rxn_smarts="[O:1]=[C:2]1[C:3]([H:8])([H:9])[C:4]([H:10])([H:11])[C:5]([H:12])([H:13])[C:6]([H:14])=[C:7]1[H:15]>>[C:3](=[C:4]([H:10])[H:11])([H:8])[H:9].[O:1]=[C:2]=[C:7]([C:6](=[C:5]([H:12])[H:13])[H:14])[H:15]"
O        0.72574481      -1.89330676       1.83044378
C        0.78179933      -1.19603916       0.88235936
C       -1.05908032      -1.15335686      -0.20846670
C       -1.63221132       0.12774863      -0.12399887
C        0.11406506       1.49963565      -0.18591370
C        1.33252032       0.83582782      -0.35789233
C        1.69778990      -0.36632877       0.24478234
H       -0.66996137      -1.42081708      -1.18962963
H       -1.56628407      -1.98017310       0.27779210
H       -2.11768366       0.55461026      -0.99551305
H       -2.19570477       0.33936274       0.78206633
H       -0.08100603       2.27430797      -0.92641956
H       -0.11414457       1.85321929       0.81555299
H        2.12821488       1.35489815      -0.88533292
H        2.65594181      -0.82958878       0.04016989
15
Frame=12 idx=008776 GeodesicLength=0.6794220095712127 rxn_smarts="[O:1]=[C:2]1[C:3]([H:8])([H:9])[C:4]([H:10])([H:11])[C:5]([H:12])([H:13])[C:6]([H:14])=[C:7]1[H:15]>>[C:3](=[C:4]([H:10])[H:11])([H:8])[H:9].[O:1]=[C:2]=[C:7]([C:6](=[C:5]([H:12])[H:13])[H:14])[H:15]"
O        0.72756760      -1.90310172       1.82291362
C        0.77707286      -1.20480648       0.87390547
C       -1.06181252      -1.15044241      -0.21515348
C       -1.63926020       0.12896207      -0.09304783
C        0.11346149       1.49051814      -0.21508007
C        1.34859034       0.84124092      -0.33940186
C        1.70143971      -0.36977825       0.25259690
H       -0.67527850      -1.38215792      -1.20704414
H       -1.57558600      -1.99412625       0.23445088
H       -2.16056010       0.56154157      -0.94119868
H       -2.18847947       0.30999928       0.82899761
H       -0.07195528       2.23189322      -0.99209067
H       -0.11727381       1.89815217       0.76574565
H        2.15542525       1.36796236      -0.84177418
H        2.66664863      -0.82585669       0.06618078
15
Frame=13 idx=008776 GeodesicLength=0.7295355026262058 rxn_smarts="[O:1]=[C:2]1[C:3]([H:8])([H:9])[C:4]([H:10])([H:11])[C:5]([H:12])([H:13])[C:6]([H:14])=[C:7]1[H:15]>>[C:3](=[C:4]([H:10])[H:11])([H:8])[H:9].[O:1]=[C:2]=[C:7]([C:6](=[C:5]([H:12])[H:13])[H:14])[H:15]"
O        0.73109779      -1.91443374       1.81363515
C        0.77310292      -1.21412053       0.86444194
C       -1.06501959      -1.14723437      -0.22086040
C       -1.64503333       0.13041645      -0.06252385
C        0.11310335       1.48105472      -0.24295414
C        1.36451571       0.84929001      -0.31586918
C        1.70495480      -0.37319705       0.25938509
H       -0.68218441      -1.34478944      -1.22219316
H       -1.58611094      -2.00496269       0.19297944
H       -2.19929221       0.56822870      -0.88724509
H       -2.18124455       0.28123050       0.87323649
H       -0.06134145       2.18514405      -1.05705761
H       -0.12306652       1.94315843       0.71282024
H        2.18013231       1.38237936      -0.79688393
H        2.67638613      -0.82216441       0.08908902
15
Frame=14 idx=008776 GeodesicLength=0.7797811844550536 rxn_smarts="[O:1]=[C:2]1[C:3]([H:8])([H:9])[C:4]([H:10])([H:11])[C:5]([H:12])([H:13])[C:6]([H:14])=[C:7]1[H:15]>>[C:3](=[C:4]([H:10])[H:11])([H:8])[H:9].[O:1]=[C:2]=[C:7]([C:6](=[C:5]([H:12])[H:13])[H:14])[H:15]"
O        0.73631635      -1.92751610       1.80205517
C        0.76995880      -1.22436707       0.85327773
C       -1.06896028      -1.14369271      -0.22577714
C       -1.64971350       0.13219724      -0.03195379
C        0.11307704       1.47103415      -0.27003711
C        1.37989262       0.85969694      -0.28744029
C        1.70826266      -0.37665610       0.26466670
H       -0.69121386      -1.30835688      -1.23563362
H       -1.59818463      -2.01288731       0.15305421
H       -2.23468886       0.57510595      -0.83294683
H       -2.17352154       0.25304335       0.91584920
H       -0.04870682       2.13300741      -1.12191922
H       -0.13121272       1.98827916       0.65575111
H        2.20255425       1.39838405      -0.74979343
H        2.68614049      -0.81727212       0.11084731
15
Frame=15 idx=008776 GeodesicLength=0.8295089410193249 rxn_smarts="[O:1]=[C:2]1[C:3]([H:8])([H:9])[C:4]([H:10])([H:11])[C:5]([H:12])([H:13])[C:6]([H:14])=[C:7]1[H:15]>>[C:3](=[C:4]([H:10])[H:11])([H:8])[H:9].[O:1]=[C:2]=[C:7]([C:6](=[C:5]([H:12])[H:13])[H:14])[H:15]"
O        0.74401912      -1.94295962       1.78817347
C        0.76763156      -1.23466322       0.84156476
C       -1.07310302      -1.13967096      -0.22923468
C       -1.65323998       0.13443052      -0.00197972
C        0.11350722       1.46078827      -0.29546375
C        1.39413107       0.87290062      -0.25280343
C        1.71139637      -0.37930093       0.26953190
H       -0.70118387      -1.27327320      -1.24649965
H       -1.61138167      -2.01770759       0.11568263
H       -2.26574963       0.58183174      -0.78009745
H       -2.16685640       0.22591349       0.95539161
H       -0.03301973       2.07582769      -1.18506028
H       -0.14221609       2.03317150       0.59485422
H        2.22185624       1.41531258      -0.70152516
H        2.69420880      -0.81260089       0.12746552
15
Frame=16 idx=008776 GeodesicLength=0.8793490549140466 rxn_smarts="[O:1]=[C:2]1[C:3]([H:8])([H:9])[C:4]([H:10])([H:11])[C:5]([H:12])([H:13])[C:6]([H:14])=[C:7]1[H:15]>>[C:3](=[C:4]([H:10])[H:11])([H:8])[H:9].[O:1]=[C:2]=[C:7]([C:6](=[C:5]([H:12])[H:13])[H:14])[H:15]"
O        0.75402186      -1.96067891       1.77140884
C        0.76629637      -1.24568031       0.82823861
C       -1.07785838      -1.13527754      -0.23155062
C       -1.65588825       0.13721598       0.02792915
C        0.11445130       1.45009658      -0.32004530
C        1.40649178       0.88787797      -0.21352714
C        1.71433103      -0.38119894       0.27349290
H       -0.71291743      -1.23931490      -1.25547082
H       -1.62614273      -2.01979382       0.08038628
H       -2.29363469       0.58896364      -0.72768211
H       -2.16049065       0.19991267       0.99314080
H       -0.01405176       2.01301147      -1.24671957
H       -0.15494136       2.07752312       0.52898061
H        2.23827451       1.43370691      -0.65056261
H        2.70205842      -0.80636391       0.14198098
