14
Frame=0 idx=003510 GeodesicLength=0.0 rxn_smarts="[C:1]([C@@:2]1([H:10])[C:3]([H:11])([H:12])[C@:4]1([C:5]#[C:6][H:14])[H:13])([H:7])([H:8])[H:9]>>[C:1]([C@@:2]1([H:10])[C:3]([H:11])([H:12])/[C:4]1=[C:5](\[C:6][H:14])[H:13])([H:7])([H:8])[H:9]"
C       -1.57507210       1.17102323       0.03605367
C       -0.83769056      -0.07848710       0.45177947
C       -0.57760303      -1.21283833      -0.54567855
C        0.49924765      -0.34421793      -0.07873434
C        1.82619887      -0.04289127      -0.05927427
C        3.03352596       0.19543942      -0.48023210
H       -1.32268818       1.44535567      -0.98957072
H       -1.30976412       2.01041631       0.68060258
H       -2.65473060       1.02027491       0.09643616
H       -1.04960296      -0.42126131       1.46179356
H       -0.89823966      -1.08698604      -1.57671337
H       -0.63868283      -2.23035063      -0.17661134
H        1.62588037      -0.27859558       1.06677904
H        3.87922116      -0.14688140       0.11337027
14
Frame=1 idx=003510 GeodesicLength=0.060114003728947776 rxn_smarts="[C:1]([C@@:2]1([H:10])[C:3]([H:11])([H:12])[C@:4]1([C:5]#[C:6][H:14])[H:13])([H:7])([H:8])[H:9]>>[C:1]([C@@:2]1([H:10])[C:3]([H:11])([H:12])/[C:4]1=[C:5](\[C:6][H:14])[H:13])([H:7])([H:8])[H:9]"
C       -1.56710359       1.17143971       0.03465082
C       -0.84773608      -0.08575742       0.45817127
C       -0.57455388      -1.21514687      -0.53964927
C        0.49918882      -0.35890125      -0.04337082
C        1.81774810      -0.02173661      -0.04779869
C        3.01618722       0.17121502      -0.51374385
H       -1.28995102       1.45095662      -0.98315112
H       -1.31043583       2.00475027       0.69054207
H       -2.64881001       1.02779605       0.07000795
H       -1.07859953      -0.43067373       1.46314310
H       -0.87107252      -1.07955622      -1.57642419
H       -0.64548049      -2.23508008      -0.17945197
H        1.61925323      -0.27966877       1.08835027
H        3.88136558      -0.11963672       0.07872444
14
Frame=2 idx=003510 GeodesicLength=0.12057568808442934 rxn_smarts="[C:1]([C@@:2]1([H:10])[C:3]([H:11])([H:12])[C@:4]1([C:5]#[C:6][H:14])[H:13])([H:7])([H:8])[H:9]>>[C:1]([C@@:2]1([H:10])[C:3]([H:11])([H:12])/[C:4]1=[C:5](\[C:6][H:14])[H:13])([H:7])([H:8])[H:9]"
C       -1.55707701       1.17226671       0.03289753
C       -0.85738866      -0.09323191       0.46419061
C       -0.57202148      -1.21819266      -0.53343006
C        0.49885272      -0.37562753      -0.00765142
C        1.80886936      -0.00595988      -0.03550001
C        2.99499328       0.15040091      -0.54418190
H       -1.25462354       1.45626074      -0.97644235
H       -1.30868225       1.99930829       0.69988049
H       -2.64037298       1.03704322       0.04291155
H       -1.10813911      -0.43984470       1.46367317
H       -0.84396606      -1.07287720      -1.57540433
H       -0.65432833      -2.24028544      -0.18217082
H        1.61172131      -0.28439363       1.11118878
H        3.88216274      -0.08486694       0.04003878
14
Frame=3 idx=003510 GeodesicLength=0.18123528759891278 rxn_smarts="[C:1]([C@@:2]1([H:10])[C:3]([H:11])([H:12])[C@:4]1([C:5]#[C:6][H:14])[H:13])([H:7])([H:8])[H:9]>>[C:1]([C@@:2]1([H:10])[C:3]([H:11])([H:12])/[C:4]1=[C:5](\[C:6][H:14])[H:13])([H:7])([H:8])[H:9]"
C       -1.54580520       1.17319203       0.03076839
C       -0.86662106      -0.10060918       0.46980828
C       -0.56918797      -1.22150961      -0.52695517
C        0.49836421      -0.39306707       0.02838110
C        1.79972188       0.00628217      -0.02192634
C        2.97103625       0.13524534      -0.57074151
H       -1.21776796       1.46107268      -0.96942536
H       -1.30588696       1.99400217       0.70850222
H       -2.63008374       1.04692397       0.01513729
H       -1.13796430      -0.44857781       1.46327231
H       -0.81623492      -1.06679470      -1.57353033
H       -0.66366847      -2.24548453      -0.18469862
H        1.60313879      -0.29119852       1.13562163
H        3.88095949      -0.04947693      -0.00421388
14
Frame=4 idx=003510 GeodesicLength=0.24200582268864698 rxn_smarts="[C:1]([C@@:2]1([H:10])[C:3]([H:11])([H:12])[C@:4]1([C:5]#[C:6][H:14])[H:13])([H:7])([H:8])[H:9]>>[C:1]([C@@:2]1([H:10])[C:3]([H:11])([H:12])/[C:4]1=[C:5](\[C:6][H:14])[H:13])([H:7])([H:8])[H:9]"
C       -1.53360020       1.17428017       0.02847963
C       -0.87524960      -0.10771783       0.47492533
C       -0.56619675      -1.22498187      -0.52047270
C        0.49769360      -0.41081151       0.06381973
C        1.79054516       0.01519205      -0.00791607
C        2.94549437       0.12244548      -0.59469135
H       -1.18051945       1.46534600      -0.96221813
H       -1.30200893       1.98904812       0.71638579
H       -2.61825066       1.05736127      -0.01226337
H       -1.16726870      -0.45668321       1.46202395
H       -0.78863056      -1.06131962      -1.57098995
H       -0.67321229      -2.25057022      -0.18717943
H        1.59360329      -0.30017752       1.16084728
H        3.87760071      -0.01141131      -0.05075072
14
Frame=5 idx=003510 GeodesicLength=0.3027873520243999 rxn_smarts="[C:1]([C@@:2]1([H:10])[C:3]([H:11])([H:12])[C@:4]1([C:5]#[C:6][H:14])[H:13])([H:7])([H:8])[H:9]>>[C:1]([C@@:2]1([H:10])[C:3]([H:11])([H:12])/[C:4]1=[C:5](\[C:6][H:14])[H:13])([H:7])([H:8])[H:9]"
C       -1.52063560       1.17549959       0.02614173
C       -0.88318579      -0.11445651       0.47947416
C       -0.56312583      -1.22845996      -0.51410682
C        0.49681853      -0.42848175       0.09812594
C        1.78154910       0.02107029       0.00614724
C        2.91929595       0.10976510      -0.61633880
H       -1.14354257       1.46901039      -0.95493832
H       -1.29698714       1.98449052       0.72346923
H       -2.60507940       1.06816823      -0.03863364
H       -1.19559733      -0.46406799       1.45995316
H       -0.76152406      -1.05636915      -1.56786804
H       -0.68279151      -2.25538601      -0.18967785
H        1.58299268      -0.31125773       1.18642987
H        3.87181298       0.03047498      -0.09817786
14
Frame=6 idx=003510 GeodesicLength=0.3635374962022356 rxn_smarts="[C:1]([C@@:2]1([H:10])[C:3]([H:11])([H:12])[C@:4]1([C:5]#[C:6][H:14])[H:13])([H:7])([H:8])[H:9]>>[C:1]([C@@:2]1([H:10])[C:3]([H:11])([H:12])/[C:4]1=[C:5](\[C:6][H:14])[H:13])([H:7])([H:8])[H:9]"
C       -1.50698917       1.17694227       0.02377057
C       -0.89053019      -0.12082643       0.48351184
C       -0.56009823      -1.23206124      -0.50786765
C        0.49573302      -0.44619939       0.13136395
C        1.77290940       0.02401326       0.02037156
C        2.89284096       0.09643548      -0.63589753
H       -1.10671713       1.47221560      -0.94754438
H       -1.29096106       1.98041550       0.72994834
H       -2.59075275       1.07948175      -0.06423571
H       -1.22306234      -0.47068173       1.45713783
H       -0.73504876      -1.05206756      -1.56426381
H       -0.69249856      -2.26006770      -0.19221438
H        1.57146096      -0.32457168       1.21246659
H        3.86371384       0.07697187      -0.14654723
14
Frame=7 idx=003510 GeodesicLength=0.424629439595858 rxn_smarts="[C:1]([C@@:2]1([H:10])[C:3]([H:11])([H:12])[C@:4]1([C:5]#[C:6][H:14])[H:13])([H:7])([H:8])[H:9]>>[C:1]([C@@:2]1([H:10])[C:3]([H:11])([H:12])/[C:4]1=[C:5](\[C:6][H:14])[H:13])([H:7])([H:8])[H:9]"
C       -1.49353712       1.17808749       0.02122347
C       -0.89728292      -0.12671249       0.48716718
C       -0.55558160      -1.23505704      -0.50148236
C        0.49477208      -0.46234672       0.16432832
C        1.76437916       0.02738123       0.03599041
C        2.86525296       0.08900298      -0.65289944
H       -1.07045907       1.47512745      -0.93982332
H       -1.28617291       1.97626300       0.73593453
H       -2.57587571       1.08969070      -0.09004999
H       -1.24981010      -0.47688162       1.45349277
H       -0.70717052      -1.04766937      -1.55998125
H       -0.69992237      -2.26399884      -0.19462544
H        1.55893318      -0.33805321       1.23978016
H        3.85247492       0.11516645      -0.19905505
14
Frame=8 idx=003510 GeodesicLength=0.48553006659667597 rxn_smarts="[C:1]([C@@:2]1([H:10])[C:3]([H:11])([H:12])[C@:4]1([C:5]#[C:6][H:14])[H:13])([H:7])([H:8])[H:9]>>[C:1]([C@@:2]1([H:10])[C:3]([H:11])([H:12])/[C:4]1=[C:5](\[C:6][H:14])[H:13])([H:7])([H:8])[H:9]"
C       -1.47992998       1.17929809       0.01869376
C       -0.90338852      -0.13215475       0.49029440
C       -0.55083564      -1.23795807      -0.49530935
C        0.49375189      -0.47777942       0.19583324
C        1.75638583       0.02926011       0.05149811
C        2.83802719       0.08197194      -0.66815571
H       -1.03547684       1.47746826      -0.93230339
H       -1.28072390       1.97261624       0.74114311
H       -2.56047890       1.09983364      -0.11439185
H       -1.27520892      -0.48235370       1.44923684
H       -0.67991761      -1.04377147      -1.55535467
H       -0.70665973      -2.26765951      -0.19705467
H        1.54550602      -0.35282938       1.26716089
H        3.83894911       0.15405803      -0.25129072
14
Frame=9 idx=003510 GeodesicLength=0.5463125601091783 rxn_smarts="[C:1]([C@@:2]1([H:10])[C:3]([H:11])([H:12])[C@:4]1([C:5]#[C:6][H:14])[H:13])([H:7])([H:8])[H:9]>>[C:1]([C@@:2]1([H:10])[C:3]([H:11])([H:12])/[C:4]1=[C:5](\[C:6][H:14])[H:13])([H:7])([H:8])[H:9]"
C       -1.46573666       1.18064314       0.01611623
C       -0.90884680      -0.13725246       0.49293589
C       -0.54611337      -1.24087784      -0.48925948
C        0.49258491      -0.49305028       0.22611818
C        1.74891218       0.02897148       0.06702999
C        2.81117521       0.07372343      -0.68166278
H       -1.00101555       1.47931932      -0.92494994
H       -1.27415632       1.96936354       0.74564478
H       -2.54413864       1.11030352      -0.13767744
H       -1.29941963      -0.48711921       1.44437649
H       -0.65337700      -1.04035616      -1.55033967
H       -0.71325521      -2.27109732      -0.19942240
H        1.53107948      -0.36943274       1.29475631
H        3.82230742       0.19686160      -0.30366617
14
Frame=10 idx=003510 GeodesicLength=0.6071385144379748 rxn_smarts="[C:1]([C@@:2]1([H:10])[C:3]([H:11])([H:12])[C@:4]1([C:5]#[C:6][H:14])[H:13])([H:7])([H:8])[H:9]>>[C:1]([C@@:2]1([H:10])[C:3]([H:11])([H:12])/[C:4]1=[C:5](\[C:6][H:14])[H:13])([H:7])([H:8])[H:9]"
C       -1.45189741       1.18186248       0.01357460
C       -0.91374843      -0.14193094       0.49518384
C       -0.54052908      -1.24341026      -0.48337079
C        0.49155821      -0.50700639       0.25544280
C        1.74191637       0.02894291       0.08291068
C        2.78429856       0.06840419      -0.69376025
H       -0.96790643       1.48092262      -0.91759969
H       -1.26817543       1.96631987       0.74974598
H       -2.52777644       1.12001973      -0.16013096
H       -1.32247477      -0.49148470       1.43897365
H       -0.62653593      -1.03699006      -1.54506360
H       -0.71812457      -2.27409956      -0.20187746
H        1.51586156      -0.38607553       1.32277549
H        3.80353380       0.23452564      -0.35680428
14
Frame=11 idx=003510 GeodesicLength=0.6679930921768759 rxn_smarts="[C:1]([C@@:2]1([H:10])[C:3]([H:11])([H:12])[C@:4]1([C:5]#[C:6][H:14])[H:13])([H:7])([H:8])[H:9]>>[C:1]([C@@:2]1([H:10])[C:3]([H:11])([H:12])/[C:4]1=[C:5](\[C:6][H:14])[H:13])([H:7])([H:8])[H:9]"
C       -1.43738936       1.18319288       0.01094513
C       -0.91812262      -0.14633085       0.49704177
C       -0.53501171      -1.24604370      -0.47751158
C        0.49039328      -0.52092212       0.28385287
C        1.73547118       0.02711642       0.09895047
C        2.75772167       0.06248489      -0.70451370
H       -0.93485476       1.48206880      -0.91038919
H       -1.26111002       1.96360110       0.75325414
H       -2.51046569       1.13005666      -0.18190974
H       -1.34464099      -0.49516914       1.43306246
H       -0.60018655      -1.03417956      -1.53940566
H       -0.72302247      -2.27697342      -0.20418882
H        1.49972348      -0.40452119       1.35106388
H        3.78149453       0.27561920      -0.41025204
14
Frame=12 idx=003510 GeodesicLength=0.7289185474566025 rxn_smarts="[C:1]([C@@:2]1([H:10])[C:3]([H:11])([H:12])[C@:4]1([C:5]#[C:6][H:14])[H:13])([H:7])([H:8])[H:9]>>[C:1]([C@@:2]1([H:10])[C:3]([H:11])([H:12])/[C:4]1=[C:5](\[C:6][H:14])[H:13])([H:7])([H:8])[H:9]"
C       -1.42335697       1.18433850       0.00841325
C       -0.92193807      -0.15037970       0.49853908
C       -0.52858332      -1.24821611      -0.47183490
C        0.48944136      -0.53344248       0.31130655
C        1.72945517       0.02606501       0.11508125
C        2.73100810       0.05985544      -0.71435552
H       -0.90328412       1.48308720      -0.90315379
H       -1.25477382       1.96096596       0.75647457
H       -2.49331791       1.13919001      -0.20280832
H       -1.36556785      -0.49865180       1.42665822
H       -0.57353115      -1.03121545      -1.53352835
H       -0.72602732      -2.27939600      -0.20662961
H        1.48285752      -0.42250419       1.37952408
H        3.75761838       0.31030362      -0.46368652
14
Frame=13 idx=003510 GeodesicLength=0.7899150207364409 rxn_smarts="[C:1]([C@@:2]1([H:10])[C:3]([H:11])([H:12])[C@:4]1([C:5]#[C:6][H:14])[H:13])([H:7])([H:8])[H:9]>>[C:1]([C@@:2]1([H:10])[C:3]([H:11])([H:12])/[C:4]1=[C:5](\[C:6][H:14])[H:13])([H:7])([H:8])[H:9]"
C       -1.40922762       1.18551266       0.00588877
C       -0.92529029      -0.15415113       0.49972447
C       -0.52183669      -1.25034561      -0.46625648
C        0.48855986      -0.54541721       0.33794497
C        1.72400943       0.02451898       0.13127347
C        2.70439239       0.05854411      -0.72340690
H       -0.87229638       1.48389112      -0.89597561
H       -1.24827445       1.95862027       0.75936249
H       -2.47587040       1.14815289      -0.22308464
H       -1.38559379      -0.50169329       1.41985906
H       -0.54699786      -1.02858001      -1.52742330
H       -0.72829699      -2.28170808      -0.20905308
H        1.46528690      -0.44114322       1.40818979
H        3.73143589       0.34379851      -0.51704300
14
Frame=14 idx=003510 GeodesicLength=0.8512636397974156 rxn_smarts="[C:1]([C@@:2]1([H:10])[C:3]([H:11])([H:12])[C@:4]1([C:5]#[C:6][H:14])[H:13])([H:7])([H:8])[H:9]>>[C:1]([C@@:2]1([H:10])[C:3]([H:11])([H:12])/[C:4]1=[C:5](\[C:6][H:14])[H:13])([H:7])([H:8])[H:9]"
C       -1.39299606       1.18701600       0.00295069
C       -0.92812030      -0.15781359       0.50059037
C       -0.51597280      -1.25319916      -0.46042516
C        0.48722018      -0.55887989       0.36420159
C        1.71918549       0.01900186       0.14797453
C        2.67843730       0.05343525      -0.73064581
H       -0.83932253       1.48390708      -0.88921697
H       -1.23871177       1.95671163       0.76134536
H       -2.45603540       1.15862897      -0.24341099
H       -1.40527227      -0.50367980       1.41262377
H       -0.52128871      -1.02718995      -1.52079035
H       -0.73246025      -2.28428696      -0.21091847
H        1.44632737      -0.46340610       1.43754310
H        3.69900977       0.38975466      -0.57182165
14
Frame=15 idx=003510 GeodesicLength=0.9127961539299045 rxn_smarts="[C:1]([C@@:2]1([H:10])[C:3]([H:11])([H:12])[C@:4]1([C:5]#[C:6][H:14])[H:13])([H:7])([H:8])[H:9]>>[C:1]([C@@:2]1([H:10])[C:3]([H:11])([H:12])/[C:4]1=[C:5](\[C:6][H:14])[H:13])([H:7])([H:8])[H:9]"
C       -1.37813110       1.18814334       0.00036181
C       -0.93037174      -0.16115650       0.50115958
C       -0.50865151      -1.25516696      -0.45494759
C        0.48639941      -0.57007375       0.38935180
C        1.71459022       0.01627868       0.16417156
C        2.65167740       0.05444448      -0.73811233
H       -0.80894077       1.48418670      -0.88223404
H       -1.23117115       1.95462032       0.76344711
H       -2.43732730       1.16737858      -0.26256299
H       -1.42332612      -0.50598144       1.40501440
H       -0.49496530      -1.02497693      -1.51413723
H       -0.73348738      -2.28620904      -0.21318607
H        1.42702875      -0.48362983       1.46646106
H        3.66667659       0.42214234      -0.62478705
14
Frame=16 idx=003510 GeodesicLength=0.9744553372251646 rxn_smarts="[C:1]([C@@:2]1([H:10])[C:3]([H:11])([H:12])[C@:4]1([C:5]#[C:6][H:14])[H:13])([H:7])([H:8])[H:9]>>[C:1]([C@@:2]1([H:10])[C:3]([H:11])([H:12])/[C:4]1=[C:5](\[C:6][H:14])[H:13])([H:7])([H:8])[H:9]"
C       -1.36312934       1.18925487      -0.00222042
C       -0.93217797      -0.16426457       0.50147355
C       -0.50113145      -1.25711164      -0.44951430
C        0.48567487      -0.58083795       0.41372185
C        1.71049146       0.01317326       0.18008598
C        2.62475514       0.05685864      -0.74531738
H       -0.77904205       1.48419960      -0.87534945
H       -1.22334808       1.95272498       0.76522544
H       -2.41834746       1.17596907      -0.28111879
H       -1.44046970      -0.50784177       1.39711995
H       -0.46889914      -1.02310004      -1.50724537
H       -0.73394119      -2.28801329      -0.21533743
H        1.40708535      -0.50441555       1.49525205
H        3.63247956       0.45340440      -0.67677569
