12
Frame=0 idx=007986 GeodesicLength=0.0 rxn_smarts="[N:1]([c:2]1[n:3][c:4]([H:10])[c:5]([H:11])[c:6]([H:12])[n:7]1)([H:8])[H:9]>>[N:1]([C:2]1([H:11])[N-:3][C:4]([H:10])=[C+:5][C:6]([H:12])=[N:7]1)([H:8])[H:9]"
N        1.99822416      -0.19843319      -0.02008840
C        0.61134502      -0.05093944       0.03613424
N       -0.08127081      -1.30179049      -0.25530852
C       -1.31207771      -1.07093875       0.02603933
C       -1.39686799       0.25383306       0.59515297
C       -1.08931507       1.22711374      -0.42675581
N        0.15202762       1.10379920      -0.72953220
H        2.51063488       0.64725473       0.16912252
H        2.34620193      -0.99870695       0.48213487
H       -2.11941997      -1.77598057      -0.12743915
H        0.14031984       0.20746224       1.11274457
H       -1.75980186       1.95732638      -0.86220437
12
Frame=1 idx=007986 GeodesicLength=0.09575888830724753 rxn_smarts="[N:1]([c:2]1[n:3][c:4]([H:10])[c:5]([H:11])[c:6]([H:12])[n:7]1)([H:8])[H:9]>>[N:1]([C:2]1([H:11])[N-:3][C:4]([H:10])=[C+:5][C:6]([H:12])=[N:7]1)([H:8])[H:9]"
N        1.99863208      -0.19802829      -0.00621284
C        0.61279509      -0.04936226       0.04699795
N       -0.07606044      -1.29800951      -0.25363003
C       -1.31313439      -1.07253753       0.01260628
C       -1.41931268       0.25106687       0.57762811
C       -1.08995460       1.22337195      -0.43672547
N        0.15717187       1.10070685      -0.72316208
H        2.52185679       0.65024705       0.13045162
H        2.35223834      -1.00671489       0.47685875
H       -2.10692606      -1.79816621      -0.11310596
H        0.10395853       0.21368960       1.13734273
H       -1.74126453       1.98373635      -0.84904905
12
Frame=2 idx=007986 GeodesicLength=0.1914335657381718 rxn_smarts="[N:1]([c:2]1[n:3][c:4]([H:10])[c:5]([H:11])[c:6]([H:12])[n:7]1)([H:8])[H:9]>>[N:1]([C:2]1([H:11])[N-:3][C:4]([H:10])=[C+:5][C:6]([H:12])=[N:7]1)([H:8])[H:9]"
N        1.99917255      -0.19668181       0.00979015
C        0.61425620      -0.04736515       0.05863484
N       -0.07043409      -1.29379890      -0.25159097
C       -1.31387805      -1.07410844      -0.00173588
C       -1.44216878       0.24814333       0.55868333
C       -1.09041906       1.21992362      -0.44698338
N        0.16260594       1.09827894      -0.71568438
H        2.53272368       0.65157662       0.08922787
H        2.35819791      -1.01522788       0.47034698
H       -2.09302300      -1.81995682      -0.09772466
H        0.06501187       0.22008044       1.16220732
H       -1.72204518       2.00913604      -0.83517125
12
Frame=3 idx=007986 GeodesicLength=0.28700817749611307 rxn_smarts="[N:1]([c:2]1[n:3][c:4]([H:10])[c:5]([H:11])[c:6]([H:12])[n:7]1)([H:8])[H:9]>>[N:1]([C:2]1([H:11])[N-:3][C:4]([H:10])=[C+:5][C:6]([H:12])=[N:7]1)([H:8])[H:9]"
N        1.99988958      -0.19413927       0.02848953
C        0.61575133      -0.04487645       0.07132441
N       -0.06423845      -1.28917931      -0.24877517
C       -1.31413000      -1.07578629      -0.01662920
C       -1.46540053       0.24499716       0.53836899
C       -1.09072600       1.21664869      -0.45748212
N        0.16827048       1.09643934      -0.70698472
H        2.54324985       0.65063207       0.04437302
H        2.36411489      -1.02398423       0.46261625
H       -2.07777405      -1.84087635      -0.08227901
H        0.02326972       0.22675978       1.18743759
H       -1.70227682       2.03336485      -0.82045958
12
Frame=4 idx=007986 GeodesicLength=0.3823922928768269 rxn_smarts="[N:1]([c:2]1[n:3][c:4]([H:10])[c:5]([H:11])[c:6]([H:12])[n:7]1)([H:8])[H:9]>>[N:1]([C:2]1([H:11])[N-:3][C:4]([H:10])=[C+:5][C:6]([H:12])=[N:7]1)([H:8])[H:9]"
N        2.00093057      -0.19010060       0.05042086
C        0.61737431      -0.04179493       0.08520424
N       -0.05746802      -1.28385484      -0.24545749
C       -1.31380632      -1.07728307      -0.03223567
C       -1.48881342       0.24177028       0.51678215
C       -1.09058585       1.21399365      -0.46769520
N        0.17436236       1.09557540      -0.69658093
H        2.55288201       0.64679453      -0.00318057
H        2.37005284      -1.03336101       0.45203763
H       -2.06099295      -1.86073166      -0.06613025
H       -0.02133887       0.23353645       1.21310014
H       -1.68259666       2.05545579      -0.80626490
12
Frame=5 idx=007986 GeodesicLength=0.4775166383194883 rxn_smarts="[N:1]([c:2]1[n:3][c:4]([H:10])[c:5]([H:11])[c:6]([H:12])[n:7]1)([H:8])[H:9]>>[N:1]([C:2]1([H:11])[N-:3][C:4]([H:10])=[C+:5][C:6]([H:12])=[N:7]1)([H:8])[H:9]"
N        2.00236085      -0.18412125       0.07616262
C        0.61918083      -0.03798265       0.10067452
N       -0.04974232      -1.27802184      -0.24059210
C       -1.31247991      -1.07899570      -0.04758852
C       -1.51231254       0.23824267       0.49414539
C       -1.09019584       1.21142590      -0.47771259
N        0.18062987       1.09535209      -0.68452167
H        2.56172937       0.63834177      -0.05635945
H        2.37585105      -1.04189098       0.44010090
H       -2.04309185      -1.87894324      -0.05211145
H       -0.06896976       0.24080877       1.23933639
H       -1.66295975       2.07578446      -0.79153405
12
Frame=6 idx=007986 GeodesicLength=0.5723344305593384 rxn_smarts="[N:1]([c:2]1[n:3][c:4]([H:10])[c:5]([H:11])[c:6]([H:12])[n:7]1)([H:8])[H:9]>>[N:1]([C:2]1([H:11])[N-:3][C:4]([H:10])=[C+:5][C:6]([H:12])=[N:7]1)([H:8])[H:9]"
N        2.00446082      -0.17608400       0.10505609
C        0.62135240      -0.03344119       0.11743266
N       -0.04109945      -1.27148672      -0.23468705
C       -1.31008398      -1.08063571      -0.06289931
C       -1.53554446       0.23455445       0.47056099
C       -1.08927992       1.20935927      -0.48712921
N        0.18724454       1.09614645      -0.67063036
H        2.56870927       0.62420444      -0.11279747
H        2.38148509      -1.04917153       0.42558867
H       -2.02392910      -1.89563088      -0.03904342
H       -0.11938364       0.24829243       1.26589066
H       -1.64393157       2.09389299      -0.77734225
12
Frame=7 idx=007986 GeodesicLength=0.6669165697012253 rxn_smarts="[N:1]([c:2]1[n:3][c:4]([H:10])[c:5]([H:11])[c:6]([H:12])[n:7]1)([H:8])[H:9]>>[N:1]([C:2]1([H:11])[N-:3][C:4]([H:10])=[C+:5][C:6]([H:12])=[N:7]1)([H:8])[H:9]"
N        2.00749415      -0.16662939       0.13435691
C        0.62412190      -0.02852361       0.13459715
N       -0.03176930      -1.26452779      -0.22789097
C       -1.30664435      -1.08214313      -0.07766785
C       -1.55790504       0.23082496       0.44645843
C       -1.08771552       1.20769956      -0.49585834
N        0.19411628       1.09761568      -0.65561803
H        2.57269728       0.60461630      -0.16892512
H        2.38696672      -1.05417636       0.40876449
H       -2.00401539      -1.91048631      -0.02667866
H       -0.17169979       0.25591915       1.29219194
H       -1.62564693       2.10981095      -0.76372993
12
Frame=8 idx=007986 GeodesicLength=0.7614823842220645 rxn_smarts="[N:1]([c:2]1[n:3][c:4]([H:10])[c:5]([H:11])[c:6]([H:12])[n:7]1)([H:8])[H:9]>>[N:1]([C:2]1([H:11])[N-:3][C:4]([H:10])=[C+:5][C:6]([H:12])=[N:7]1)([H:8])[H:9]"
N        2.01157538      -0.15647781       0.16025926
C        0.62766652      -0.02329848       0.15099665
N       -0.02182890      -1.25729511      -0.22083727
C       -1.30211672      -1.08363205      -0.09179659
C       -1.57899361       0.22680528       0.42233409
C       -1.08585064       1.20636501      -0.50355215
N        0.20078525       1.09979854      -0.64007545
H        2.57437873       0.57887250      -0.22596883
H        2.39155392      -1.05508311       0.39599349
H       -1.98374194      -1.92357922      -0.01624757
H       -0.22503483       0.26331178       1.31769676
H       -1.60839316       2.12421267      -0.74880237
12
Frame=9 idx=007986 GeodesicLength=0.8561070670422979 rxn_smarts="[N:1]([c:2]1[n:3][c:4]([H:10])[c:5]([H:11])[c:6]([H:12])[n:7]1)([H:8])[H:9]>>[N:1]([C:2]1([H:11])[N-:3][C:4]([H:10])=[C+:5][C:6]([H:12])=[N:7]1)([H:8])[H:9]"
N        2.01677681      -0.14721223       0.18018393
C        0.63209340      -0.01855550       0.16584108
N       -0.01210254      -1.25032866      -0.21353092
C       -1.29720891      -1.08492002      -0.10468604
C       -1.59857839       0.22301306       0.39844663
C       -1.08341741       1.20520777      -0.51066550
N        0.20742577       1.10183460      -0.62506486
H        2.57331436       0.55252302      -0.27600264
H        2.39621462      -1.05436127       0.38296370
H       -1.96396873      -1.93472806      -0.00531367
H       -0.27872185       0.27067531       1.34196705
H       -1.59182713       2.13685197      -0.73413876
12
Frame=10 idx=007986 GeodesicLength=0.9508191568655346 rxn_smarts="[N:1]([c:2]1[n:3][c:4]([H:10])[c:5]([H:11])[c:6]([H:12])[n:7]1)([H:8])[H:9]>>[N:1]([C:2]1([H:11])[N-:3][C:4]([H:10])=[C+:5][C:6]([H:12])=[N:7]1)([H:8])[H:9]"
N        2.02298526      -0.13838481       0.19472790
C        0.63736693      -0.01394135       0.17939981
N       -0.00229680      -1.24346050      -0.20593696
C       -1.29175026      -1.08612674      -0.11671099
C       -1.61698078       0.21914534       0.37470556
C       -1.08071264       1.20429104      -0.51692551
N        0.21386095       1.10411804      -0.61012042
H        2.57077832       0.52425222      -0.32415309
H        2.40077482      -1.05167907       0.37361539
H       -1.94458359      -1.94433939       0.00460426
H       -0.33335911       0.27782689       1.36528913
H       -1.57608309       2.14829831      -0.71849506
12
Frame=11 idx=007986 GeodesicLength=1.0455557286887165 rxn_smarts="[N:1]([c:2]1[n:3][c:4]([H:10])[c:5]([H:11])[c:6]([H:12])[n:7]1)([H:8])[H:9]>>[N:1]([C:2]1([H:11])[N-:3][C:4]([H:10])=[C+:5][C:6]([H:12])=[N:7]1)([H:8])[H:9]"
N        2.03014635      -0.13047981       0.20481541
C        0.64348258      -0.00975253       0.19196232
N        0.00730193      -1.23687641      -0.19765602
C       -1.28604304      -1.08719902      -0.12763031
C       -1.63435265       0.21544826       0.35094259
C       -1.07750003       1.20347121      -0.52270542
N        0.22036360       1.10625668      -0.59527972
H        2.56686810       0.49694893      -0.36766658
H        2.40575569      -1.04880797       0.36381341
H       -1.92583174      -1.95246067       0.01474767
H       -0.38938376       0.28506498       1.38774890
H       -1.56080702       2.15838633      -0.70309226
12
Frame=12 idx=007986 GeodesicLength=1.1403542598517078 rxn_smarts="[N:1]([c:2]1[n:3][c:4]([H:10])[c:5]([H:11])[c:6]([H:12])[n:7]1)([H:8])[H:9]>>[N:1]([C:2]1([H:11])[N-:3][C:4]([H:10])=[C+:5][C:6]([H:12])=[N:7]1)([H:8])[H:9]"
N        2.03825351      -0.12271821       0.21146250
C        0.65046331      -0.00558960       0.20399789
N        0.01708756      -1.23030732      -0.18852074
C       -1.27976767      -1.08816122      -0.13786188
C       -1.65089098       0.21167851       0.32695098
C       -1.07389438       1.20288406      -0.52771232
N        0.22688792       1.10870609      -0.57990187
H        2.56178789       0.46828515      -0.41080912
H        2.41111217      -1.04506350       0.35598061
H       -1.90737209      -1.95939848       0.02396623
H       -0.44755335       0.29221659       1.40959473
H       -1.54611387       2.16746792      -0.68714700
12
Frame=13 idx=007986 GeodesicLength=1.2351555803796397 rxn_smarts="[N:1]([c:2]1[n:3][c:4]([H:10])[c:5]([H:11])[c:6]([H:12])[n:7]1)([H:8])[H:9]>>[N:1]([C:2]1([H:11])[N-:3][C:4]([H:10])=[C+:5][C:6]([H:12])=[N:7]1)([H:8])[H:9]"
N        2.04725986      -0.11564465       0.21513073
C        0.65833598      -0.00172852       0.21565185
N        0.02681382      -1.22393184      -0.17823952
C       -1.27314974      -1.08901545      -0.14712010
C       -1.66665102       0.20801674       0.30258305
C       -1.06968532       1.20237442      -0.53225424
N        0.23364384       1.11115335      -0.56400060
H        2.55573431       0.44062201      -0.45104793
H        2.41709187      -1.04164028       0.34676389
H       -1.88940644      -1.96516776       0.03337999
H       -0.50828189       0.29954401       1.43074219
H       -1.53170527       2.17541798      -0.67158930
12
Frame=14 idx=007986 GeodesicLength=1.330000755616755 rxn_smarts="[N:1]([c:2]1[n:3][c:4]([H:10])[c:5]([H:11])[c:6]([H:12])[n:7]1)([H:8])[H:9]>>[N:1]([C:2]1([H:11])[N-:3][C:4]([H:10])=[C+:5][C:6]([H:12])=[N:7]1)([H:8])[H:9]"
N        2.05720956      -0.10874572       0.21618378
C        0.66717664       0.00208925       0.22718720
N        0.03674572      -1.21758136      -0.16660857
C       -1.26593795      -1.08976608      -0.15564092
C       -1.68168719       0.20430889       0.27766567
C       -1.06490717       1.20204360      -0.53611926
N        0.24060959       1.11388229      -0.54717660
H        2.54863694       0.41227803      -0.49093212
H        2.42370494      -1.03796410       0.33775158
H       -1.87170902      -1.96995254       0.04229632
H       -0.57220367       0.30691877       1.45120809
H       -1.51763840       2.18248897      -0.65581517
12
Frame=15 idx=007986 GeodesicLength=1.4248347524408935 rxn_smarts="[N:1]([c:2]1[n:3][c:4]([H:10])[c:5]([H:11])[c:6]([H:12])[n:7]1)([H:8])[H:9]>>[N:1]([C:2]1([H:11])[N-:3][C:4]([H:10])=[C+:5][C:6]([H:12])=[N:7]1)([H:8])[H:9]"
N        2.06807800      -0.10252278       0.21490620
C        0.67704881       0.00563815       0.23872733
N        0.04671086      -1.21138677      -0.15338013
C       -1.25826880      -1.09043706      -0.16315592
C       -1.69599840       0.20065910       0.25206641
C       -1.05937237       1.20175767      -0.53949172
N        0.24794708       1.11668572      -0.52931595
H        2.54072231       0.38510083      -0.52876011
H        2.43104552      -1.03488721       0.32653491
H       -1.85442509      -1.97375017       0.05155454
H       -0.63980950       0.31455271       1.47080373
H       -1.50367841       2.18858980      -0.64048929
12
Frame=16 idx=007986 GeodesicLength=1.5196996592041319 rxn_smarts="[N:1]([c:2]1[n:3][c:4]([H:10])[c:5]([H:11])[c:6]([H:12])[n:7]1)([H:8])[H:9]>>[N:1]([C:2]1([H:11])[N-:3][C:4]([H:10])=[C+:5][C:6]([H:12])=[N:7]1)([H:8])[H:9]"
N        2.07993231      -0.09660279       0.21134817
C        0.68807217       0.00911667       0.25047452
N        0.05692136      -1.20521211      -0.13828356
C       -1.24990374      -1.09102388      -0.16981186
C       -1.70955815       0.19694738       0.22559120
C       -1.05305694       1.20160935      -0.54217560
N        0.25565660       1.11978028      -0.51006830
H        2.53177655       0.35775071      -0.56637717
H        2.43914006      -1.03194012       0.31430739
H       -1.83735080      -1.97668462       0.06070508
H       -0.71179176       0.32233516       1.48935306
H       -1.48983766       2.19392397      -0.62506293
