10
Frame=0 idx=004799 GeodesicLength=0.0 rxn_smarts="[O:1]=[c:2]1[n:3]([H:7])[c:4]([H:8])[c:5]([H:9])[n:6]1[H:10]>>[O:1]=[C:2]1[N+:3]([H:7])([H:8])[C-:4]=[C:5]([H:9])[N:6]1[H:10]"
O        2.27664065       0.15000310      -0.20202942
C        1.07886051       0.08634926      -0.08690552
N        0.29321635      -1.08790434       0.06419457
C       -1.20143196      -0.76436871       0.32343494
C       -1.14423337       0.57512898       0.14357431
N        0.14252767       1.07354928      -0.04449342
H        0.71250069      -1.92102478       0.44899122
H       -0.57796714      -1.40608396      -0.67409802
H       -1.98346370       1.25319288       0.14147264
H        0.40335029       2.04115828      -0.11414130
10
Frame=1 idx=004799 GeodesicLength=0.04250735401219055 rxn_smarts="[O:1]=[c:2]1[n:3]([H:7])[c:4]([H:8])[c:5]([H:9])[n:6]1[H:10]>>[O:1]=[C:2]1[N+:3]([H:7])([H:8])[C-:4]=[C:5]([H:9])[N:6]1[H:10]"
O        2.27547618       0.14906564      -0.21431285
C        1.07825553       0.08764944      -0.09154242
N        0.29209526      -1.08720039       0.06407232
C       -1.19621271      -0.76248961       0.32087439
C       -1.14424247       0.57662824       0.14366006
N        0.14418570       1.07598872      -0.03995012
H        0.71274060      -1.91436464       0.46003491
H       -0.58406475      -1.42185950      -0.67861550
H       -1.98486631       1.25268122       0.13268920
H        0.40663297       2.04390089      -0.09691000
10
Frame=2 idx=004799 GeodesicLength=0.08501179773807081 rxn_smarts="[O:1]=[c:2]1[n:3]([H:7])[c:4]([H:8])[c:5]([H:9])[n:6]1[H:10]>>[O:1]=[C:2]1[N+:3]([H:7])([H:8])[C-:4]=[C:5]([H:9])[N:6]1[H:10]"
O        2.27422814       0.14822775      -0.22665386
C        1.07761206       0.08901063      -0.09634452
N        0.29101366      -1.08645227       0.06395114
C       -1.19104218      -0.76058132       0.31806109
C       -1.14423476       0.57817254       0.14378221
N        0.14587666       1.07845069      -0.03525291
H        0.71301337      -1.90752154       0.47096660
H       -0.59029037      -1.43799831      -0.68279590
H       -1.98615046       1.25221358       0.12373845
H        0.40997388       2.04647826      -0.07945229
10
Frame=3 idx=004799 GeodesicLength=0.1275066648832148 rxn_smarts="[O:1]=[c:2]1[n:3]([H:7])[c:4]([H:8])[c:5]([H:9])[n:6]1[H:10]>>[O:1]=[C:2]1[N+:3]([H:7])([H:8])[C-:4]=[C:5]([H:9])[N:6]1[H:10]"
O        2.27298849       0.14753677      -0.23823076
C        1.07697368       0.09044283      -0.10090630
N        0.28996505      -1.08568864       0.06370775
C       -1.18594592      -0.75872061       0.31481560
C       -1.14418753       0.57974384       0.14423847
N        0.14763055       1.08092116      -0.03000658
H        0.71323318      -1.90069079       0.48142015
H       -0.59658186      -1.45425585      -0.68697202
H       -1.98725449       1.25183369       0.11539087
H        0.41317886       2.04887760      -0.06345718
10
Frame=4 idx=004799 GeodesicLength=0.16998193442980297 rxn_smarts="[O:1]=[c:2]1[n:3]([H:7])[c:4]([H:8])[c:5]([H:9])[n:6]1[H:10]>>[O:1]=[C:2]1[N+:3]([H:7])([H:8])[C-:4]=[C:5]([H:9])[N:6]1[H:10]"
O        2.27188445       0.14703671      -0.24806933
C        1.07640600       0.09195336      -0.10469835
N        0.28894087      -1.08495221       0.06319715
C       -1.18095285      -0.75700142       0.31091808
C       -1.14406685       0.58131240       0.14542163
N        0.14949082       1.08337449      -0.02368205
H        0.71328039      -1.89414216       0.49096230
H       -0.60285689      -1.47031981      -0.69158539
H       -1.98811628       1.25159067       0.10857369
H        0.41599035       2.05114797      -0.05103773
10
Frame=5 idx=004799 GeodesicLength=0.21244082660733535 rxn_smarts="[O:1]=[c:2]1[n:3]([H:7])[c:4]([H:8])[c:5]([H:9])[n:6]1[H:10]>>[O:1]=[C:2]1[N+:3]([H:7])([H:8])[C-:4]=[C:5]([H:9])[N:6]1[H:10]"
O        2.27087552       0.14669326      -0.25668268
C        1.07589257       0.09353725      -0.10790309
N        0.28794598      -1.08423394       0.06249168
C       -1.17604764      -0.75538797       0.30645946
C       -1.14388321       0.58288035       0.14720484
N        0.15145163       1.08580256      -0.01639806
H        0.71318808      -1.88780443       0.49980809
H       -0.60914914      -1.48631546      -0.69647896
H       -1.98877212       1.25145648       0.10281134
H        0.41849831       2.05337189      -0.04131262
10
Frame=6 idx=004799 GeodesicLength=0.2548947655666351 rxn_smarts="[O:1]=[c:2]1[n:3]([H:7])[c:4]([H:8])[c:5]([H:9])[n:6]1[H:10]>>[O:1]=[C:2]1[N+:3]([H:7])([H:8])[C-:4]=[C:5]([H:9])[N:6]1[H:10]"
O        2.26987045       0.14646711      -0.26491884
C        1.07538287       0.09518913      -0.11097187
N        0.28698996      -1.08350187       0.06170565
C       -1.17119486      -0.75379389       0.30162430
C       -1.14365784       0.58446373       0.14927907
N        0.15347196       1.08820702      -0.00865891
H        0.71304539      -1.88146955       0.50834811
H       -0.61554672      -1.50253070      -0.70127318
H       -1.98927905       1.25138642       0.09728715
H        0.42091784       2.05558260      -0.03242148
10
Frame=7 idx=004799 GeodesicLength=0.2973545592604362 rxn_smarts="[O:1]=[c:2]1[n:3]([H:7])[c:4]([H:8])[c:5]([H:9])[n:6]1[H:10]>>[O:1]=[C:2]1[N+:3]([H:7])([H:8])[C-:4]=[C:5]([H:9])[N:6]1[H:10]"
O        2.26878133       0.14632649      -0.27352495
C        1.07482927       0.09690708      -0.11429311
N        0.28608374      -1.08272659       0.06094039
C       -1.16637162      -0.75214684       0.29654115
C       -1.14342287       0.58608175       0.15134213
N        0.15550203       1.09059890      -0.00096607
H        0.71293859      -1.87493474       0.51693768
H       -0.62211308      -1.51923713      -0.70561693
H       -1.98968380       1.25135836       0.09132932
H        0.42345641       2.05777273      -0.02268962
10
Frame=8 idx=004799 GeodesicLength=0.33981970408492507 rxn_smarts="[O:1]=[c:2]1[n:3]([H:7])[c:4]([H:8])[c:5]([H:9])[n:6]1[H:10]>>[O:1]=[C:2]1[N+:3]([H:7])([H:8])[C-:4]=[C:5]([H:9])[N:6]1[H:10]"
O        2.26750586       0.14625728      -0.28321648
C        1.07416776       0.09869218      -0.11835451
N        0.28523151      -1.08186266       0.06029270
C       -1.16155502      -0.75036655       0.29132383
C       -1.14321506       0.58775662       0.15297730
N        0.15748889       1.09298082       0.00596210
H        0.71295052      -1.86792361       0.52596718
H       -0.62892349      -1.53676254      -0.70907838
H       -1.99000762       1.25133851       0.08433508
H        0.42635665       2.05988995      -0.01020881
10
Frame=9 idx=004799 GeodesicLength=0.382268202924485 rxn_smarts="[O:1]=[c:2]1[n:3]([H:7])[c:4]([H:8])[c:5]([H:9])[n:6]1[H:10]>>[O:1]=[C:2]1[N+:3]([H:7])([H:8])[C-:4]=[C:5]([H:9])[N:6]1[H:10]"
O        2.26635130       0.14634450      -0.29165319
C        1.07358230       0.10056111      -0.12172864
N        0.28441453      -1.08102326       0.05942597
C       -1.15682255      -0.74869072       0.28540506
C       -1.14292800       0.58940887       0.15521120
N        0.15958597       1.09531655       0.01394583
H        0.71276144      -1.86115466       0.53435191
H       -0.63572375      -1.55424189      -0.71287992
H       -1.99010667       1.25146288       0.07857982
H        0.42888541       2.06201662      -0.00065804
10
Frame=10 idx=004799 GeodesicLength=0.4247250972151917 rxn_smarts="[O:1]=[c:2]1[n:3]([H:7])[c:4]([H:8])[c:5]([H:9])[n:6]1[H:10]>>[O:1]=[C:2]1[N+:3]([H:7])([H:8])[C-:4]=[C:5]([H:9])[N:6]1[H:10]"
O        2.26525698       0.14656088      -0.29943218
C        1.07302747       0.10250882      -0.12480739
N        0.28364426      -1.08017949       0.05842036
C       -1.15215377      -0.74704545       0.27888086
C       -1.14260256       0.59105250       0.15773879
N        0.16176063       1.09760679       0.02251010
H        0.71244600      -1.85443365       0.54241833
H       -0.64257415      -1.57193462      -0.71671242
H       -1.99002458       1.25171942       0.07354832
H        0.43121973       2.06414479       0.00743522
10
Frame=11 idx=004799 GeodesicLength=0.4671877394771176 rxn_smarts="[O:1]=[c:2]1[n:3]([H:7])[c:4]([H:8])[c:5]([H:9])[n:6]1[H:10]>>[O:1]=[C:2]1[N+:3]([H:7])([H:8])[C-:4]=[C:5]([H:9])[N:6]1[H:10]"
O        2.26410172       0.14688043      -0.30745826
C        1.07243710       0.10453649      -0.12812503
N        0.28292923      -1.07928735       0.05738990
C       -1.14751598      -0.74534174       0.27191889
C       -1.14226488       0.59271796       0.16017255
N        0.16394157       1.09986905       0.03092783
H        0.71211068      -1.84747181       0.55058575
H       -0.64957356      -1.59019987      -0.72007270
H       -1.98981443       1.25206063       0.06838193
H        0.43364856       2.06623620       0.01627915
10
Frame=12 idx=004799 GeodesicLength=0.5096778999510457 rxn_smarts="[O:1]=[c:2]1[n:3]([H:7])[c:4]([H:8])[c:5]([H:9])[n:6]1[H:10]>>[O:1]=[C:2]1[N+:3]([H:7])([H:8])[C-:4]=[C:5]([H:9])[N:6]1[H:10]"
O        2.26280402       0.14729472      -0.31628736
C        1.07175958       0.10664435      -0.13203766
N        0.28227640      -1.07831806       0.05639851
C       -1.14289186      -0.74353152       0.26459722
C       -1.14195343       0.59442036       0.16223444
N        0.16608273       1.10211684       0.03875975
H        0.71182968      -1.84006375       0.55911417
H       -0.65678283      -1.60928673      -0.72261665
H       -1.98950739       1.25246971       0.06256818
H        0.43638310       2.06825408       0.02726939
10
Frame=13 idx=004799 GeodesicLength=0.5521624358745164 rxn_smarts="[O:1]=[c:2]1[n:3]([H:7])[c:4]([H:8])[c:5]([H:9])[n:6]1[H:10]>>[O:1]=[C:2]1[N+:3]([H:7])([H:8])[C-:4]=[C:5]([H:9])[N:6]1[H:10]"
O        2.26133075       0.14781359      -0.32605474
C        1.07098449       0.10884301      -0.13656227
N        0.28168704      -1.07726515       0.05543771
C       -1.13827940      -0.74161134       0.25685863
C       -1.14167424       0.59616040       0.16390152
N        0.16818096       1.10435212       0.04603317
H        0.71159859      -1.83215375       0.56804014
H       -0.66419812      -1.62923891      -0.72424784
H       -1.98909261       1.25294677       0.05600503
H        0.43946254       2.07015325       0.04058864
10
Frame=14 idx=004799 GeodesicLength=0.5946682888306823 rxn_smarts="[O:1]=[c:2]1[n:3]([H:7])[c:4]([H:8])[c:5]([H:9])[n:6]1[H:10]>>[O:1]=[C:2]1[N+:3]([H:7])([H:8])[C-:4]=[C:5]([H:9])[N:6]1[H:10]"
O        2.25979344       0.14846127      -0.33604093
C        1.07017482       0.11113759      -0.14130071
N        0.28116087      -1.07615612       0.05441216
C       -1.13369398      -0.73963826       0.24853321
C       -1.14139514       0.59791414       0.16544788
N        0.17027718       1.10656329       0.05314347
H        0.71131740      -1.82394783       0.57705851
H       -0.67176034      -1.64981871      -0.72530924
H       -1.98854101       1.25353236       0.04940940
H        0.44266676       2.07195227       0.05464624
10
Frame=15 idx=004799 GeodesicLength=0.6371831178490697 rxn_smarts="[O:1]=[c:2]1[n:3]([H:7])[c:4]([H:8])[c:5]([H:9])[n:6]1[H:10]>>[O:1]=[C:2]1[N+:3]([H:7])([H:8])[C-:4]=[C:5]([H:9])[N:6]1[H:10]"
O        2.25824976       0.14924531      -0.34594208
C        1.06936152       0.11352995      -0.14610947
N        0.28070037      -1.07499984       0.05327515
C       -1.12913210      -0.73762684       0.23952280
C       -1.14110368       0.59966809       0.16695920
N        0.17237650       1.10874741       0.06013550
H        0.71093486      -1.81551693       0.58606149
H       -0.67944963      -1.67094990      -0.72589989
H       -1.98785343       1.25424502       0.04311062
H        0.44591583       2.07365773       0.06888668
10
Frame=16 idx=004799 GeodesicLength=0.6797030042305077 rxn_smarts="[O:1]=[c:2]1[n:3]([H:7])[c:4]([H:8])[c:5]([H:9])[n:6]1[H:10]>>[O:1]=[C:2]1[N+:3]([H:7])([H:8])[C-:4]=[C:5]([H:9])[N:6]1[H:10]"
O        2.25675200       0.15016767      -0.35553542
C        1.06857363       0.11602031      -0.15088570
N        0.28030942      -1.07380263       0.05199236
C       -1.12458533      -0.73558203       0.22974325
C       -1.14079035       0.60140782       0.16849199
N        0.17447965       1.11090273       0.06700898
H        0.71040652      -1.80691269       0.59497941
H       -0.68725672      -1.69258091      -0.72608538
H       -1.98704075       1.25509585       0.03736432
H        0.44915194       2.07528387       0.08292619
