13
Frame=0 idx=010197 GeodesicLength=0.0 rxn_smarts="[C:1]([C:2](=[O:3])[C@@:4]([O:5][H:12])([C:6](=[O:7])[H:13])[H:11])([H:8])([H:9])[H:10]>>[C:1](=[C:2]1[O:3][C@@:6]([O:7][H:10])([H:13])[C@@:4]1([O:5][H:12])[H:11])([H:8])[H:9]"
C       -1.57024329       0.35223086      -0.12410133
C       -0.45867703      -0.00332366      -0.85980106
O       -0.24798237      -1.08396489      -1.49064442
C        0.91425243       0.43227619      -0.37905344
O        1.09531654       1.47678368       0.52240114
C        1.03958419      -0.96356100       0.25778779
O        0.24938233      -1.23120859       1.19969223
H       -1.64865213       1.36359239       0.26246590
H       -2.50042158      -0.17482619      -0.30071459
H       -0.63133224      -0.58456642       0.98802002
H        1.61200463       0.54747932      -1.20300892
H        0.31881371       1.54912696       1.08474845
H        1.82795482      -1.68003868       0.04220819
13
Frame=1 idx=010197 GeodesicLength=0.10272892674337898 rxn_smarts="[C:1]([C:2](=[O:3])[C@@:4]([O:5][H:12])([C:6](=[O:7])[H:13])[H:11])([H:8])([H:9])[H:10]>>[C:1](=[C:2]1[O:3][C@@:6]([O:7][H:10])([H:13])[C@@:4]1([O:5][H:12])[H:11])([H:8])[H:9]"
C       -1.57534429       0.34921059      -0.12691958
C       -0.46136775      -0.00398423      -0.86419100
O       -0.24367117      -1.09925931      -1.47062338
C        0.91247096       0.43506520      -0.38522570
O        1.09129313       1.48487256       0.50916909
C        1.04584594      -0.95723119       0.25708561
O        0.27537207      -1.21018764       1.22166496
H       -1.65141978       1.35632936       0.27124693
H       -2.51301716      -0.15017221      -0.34074876
H       -0.65899170      -0.60092587       1.00026651
H        1.60747707       0.54967058      -1.21219951
H        0.34218582       1.52268256       1.11085951
H        1.82916686      -1.67607041       0.02961531
13
Frame=2 idx=010197 GeodesicLength=0.20545174892254364 rxn_smarts="[C:1]([C:2](=[O:3])[C@@:4]([O:5][H:12])([C:6](=[O:7])[H:13])[H:11])([H:8])([H:9])[H:10]>>[C:1](=[C:2]1[O:3][C@@:6]([O:7][H:10])([H:13])[C@@:4]1([O:5][H:12])[H:11])([H:8])[H:9]"
C       -1.58051866       0.34513017      -0.12895593
C       -0.46415211      -0.00461505      -0.86850886
O       -0.23928138      -1.11370439      -1.45062682
C        0.91063856       0.43784130      -0.39126336
O        1.08633635       1.49288946       0.49630800
C        1.05206495      -0.95084961       0.25662413
O        0.30073539      -1.18857054       1.24258768
H       -1.65457845       1.34776353       0.28101764
H       -2.52441104      -0.12394382      -0.38111251
H       -0.68678042      -0.61927349       1.01267790
H        1.60302552       0.55195054      -1.22108949
H        0.36689924       1.49770126       1.13447815
H        1.83002206      -1.67231936       0.01786349
13
Frame=3 idx=010197 GeodesicLength=0.3081703782423488 rxn_smarts="[C:1]([C:2](=[O:3])[C@@:4]([O:5][H:12])([C:6](=[O:7])[H:13])[H:11])([H:8])([H:9])[H:10]>>[C:1](=[C:2]1[O:3][C@@:6]([O:7][H:10])([H:13])[C@@:4]1([O:5][H:12])[H:11])([H:8])[H:9]"
C       -1.58580031       0.33997994      -0.13036171
C       -0.46701487      -0.00522200      -0.87281959
O       -0.23477697      -1.12733504      -1.43072377
C        0.90874689       0.44060641      -0.39717597
O        1.08052420       1.50080906       0.48380979
C        1.05819871      -0.94440651       0.25640394
O        0.32529832      -1.16657439       1.26239550
H       -1.65812219       1.33789271       0.29160255
H       -2.53441784      -0.09619247      -0.42144452
H       -0.71465775      -0.63932249       1.02528392
H        1.59866737       0.55430273      -1.22967584
H        0.39282510       1.47420071       1.15577177
H        1.83052934      -1.66873867       0.00693392
13
Frame=4 idx=010197 GeodesicLength=0.4108854302077122 rxn_smarts="[C:1]([C:2](=[O:3])[C@@:4]([O:5][H:12])([C:6](=[O:7])[H:13])[H:11])([H:8])([H:9])[H:10]>>[C:1](=[C:2]1[O:3][C@@:6]([O:7][H:10])([H:13])[C@@:4]1([O:5][H:12])[H:11])([H:8])[H:9]"
C       -1.59121702       0.33378862      -0.13131535
C       -0.46993694      -0.00581174      -0.87719091
O       -0.23012897      -1.14019050      -1.41097444
C        0.90678806       0.44336152      -0.40296851
O        1.07391438       1.50860350       0.47167808
C        1.06420907      -0.93790131       0.25641134
O        0.34894775      -1.14438975       1.28107389
H       -1.66203004       1.32674467       0.30281858
H       -2.54288702      -0.06701618      -0.46136927
H       -0.74264194      -0.66079042       1.03808994
H        1.59441895       0.55672302      -1.23795018
H        0.41985560       1.45216120       1.17490528
H        1.83070813      -1.66528264      -0.00320845
13
Frame=5 idx=010197 GeodesicLength=0.5135918723758408 rxn_smarts="[C:1]([C:2](=[O:3])[C@@:4]([O:5][H:12])([C:6](=[O:7])[H:13])[H:11])([H:8])([H:9])[H:10]>>[C:1](=[C:2]1[O:3][C@@:6]([O:7][H:10])([H:13])[C@@:4]1([O:5][H:12])[H:11])([H:8])[H:9]"
C       -1.59678895       0.32661963      -0.13200671
C       -0.47289788      -0.00638742      -0.88168644
O       -0.22531916      -1.15230337      -1.39142457
C        0.90475690       0.44610603      -0.40863991
O        1.06655494       1.51623631       0.45992726
C        1.07006379      -0.93133782       0.25662291
O        0.37162956      -1.12216527       1.29864621
H       -1.66627077       1.31437134       0.31447847
H       -2.54971404      -0.03656127      -0.50051367
H       -0.77080443      -0.68341789       1.05107188
H        1.59029629       0.55921491      -1.24589487
H        0.44790868       1.43153047       1.19202746
H        1.83058507      -1.66190565      -0.01260802
13
Frame=6 idx=010197 GeodesicLength=0.6162951577284353 rxn_smarts="[C:1]([C:2](=[O:3])[C@@:4]([O:5][H:12])([C:6](=[O:7])[H:13])[H:11])([H:8])([H:9])[H:10]>>[C:1](=[C:2]1[O:3][C@@:6]([O:7][H:10])([H:13])[C@@:4]1([O:5][H:12])[H:11])([H:8])[H:9]"
C       -1.60252341       0.31855459      -0.13261747
C       -0.47587287      -0.00695499      -0.88636922
O       -0.22033364      -1.16371672      -1.37211778
C        0.90265329       0.44884315      -0.41419272
O        1.05848679       1.52368734       0.44857346
C        1.07573555      -0.92472453       0.25701314
O        0.39333438      -1.10000085       1.31517771
H       -1.67079973       1.30084021       0.32642645
H       -2.55484665      -0.00499346      -0.53854199
H       -0.79927402      -0.70701504       1.06418232
H        1.58631976       0.56179048      -1.25350470
H        0.47693293       1.41226269       1.20728273
H        1.83018763      -1.65857288      -0.02131190
13
Frame=7 idx=010197 GeodesicLength=0.7189933675834902 rxn_smarts="[C:1]([C:2](=[O:3])[C@@:4]([O:5][H:12])([C:6](=[O:7])[H:13])[H:11])([H:8])([H:9])[H:10]>>[C:1](=[C:2]1[O:3][C@@:6]([O:7][H:10])([H:13])[C@@:4]1([O:5][H:12])[H:11])([H:8])[H:9]"
C       -1.60841833       0.30969525      -0.13331328
C       -0.47883798      -0.00751314      -0.89129021
O       -0.21516728      -1.17446018      -1.35308065
C        0.90048039       0.45157558      -0.41962463
O        1.04974919       1.53093056       0.43763739
C        1.08120398      -0.91807014       0.25755639
O        0.41409252      -1.07795480       1.33074731
H       -1.67557093       1.28623305       0.33851424
H       -2.55827765       0.02748873      -0.57515145
H       -0.82820865      -0.73143157       1.07735012
H        1.58250756       0.56446313      -1.26076698
H        0.50690365       1.39429820       1.22078846
H        1.82954353      -1.65525466      -0.02936671
13
Frame=8 idx=010197 GeodesicLength=0.821707054430575 rxn_smarts="[C:1]([C:2](=[O:3])[C@@:4]([O:5][H:12])([C:6](=[O:7])[H:13])[H:11])([H:8])([H:9])[H:10]>>[C:1](=[C:2]1[O:3][C@@:6]([O:7][H:10])([H:13])[C@@:4]1([O:5][H:12])[H:11])([H:8])[H:9]"
C       -1.61446973       0.30014061      -0.13423135
C       -0.48177248      -0.00806628      -0.89649284
O       -0.20982073      -1.18457371      -1.33433395
C        0.89824909       0.45430766      -0.42493678
O        1.04038872       1.53795357       0.42713985
C        1.08646184      -0.91138155       0.25823295
O        0.43396458      -1.05604041       1.34545348
H       -1.68053854       1.27062629       0.35064133
H       -2.56005735       0.06071152      -0.61010523
H       -0.85780224      -0.75659564       1.09048276
H        1.57888513       0.56724418      -1.26768069
H        0.53782166       1.37760404       1.23264335
H        1.82869007      -1.65193029      -0.03681288
13
Frame=9 idx=010197 GeodesicLength=0.9243826879477723 rxn_smarts="[C:1]([C:2](=[O:3])[C@@:4]([O:5][H:12])([C:6](=[O:7])[H:13])[H:11])([H:8])([H:9])[H:10]>>[C:1](=[C:2]1[O:3][C@@:6]([O:7][H:10])([H:13])[C@@:4]1([O:5][H:12])[H:11])([H:8])[H:9]"
C       -1.62064169       0.29001981      -0.13548719
C       -0.48464889      -0.00859085      -0.90199888
O       -0.20429962      -1.19404686      -1.31587151
C        0.89595799       0.45704773      -0.43012200
O        1.03042937       1.54472367       0.41709616
C        1.09148411      -0.90466515       0.25902564
O        0.45302120      -1.03426547       1.35938425
H       -1.68564760       1.25412540       0.36266300
H       -2.56020840       0.09439953      -0.64317573
H       -0.88823999      -0.78242298       1.10348488
H        1.57544720       0.57015965      -1.27422826
H        0.56972526       1.36209320       1.24291700
H        1.82762105      -1.64857767      -0.04368736
13
Frame=10 idx=010197 GeodesicLength=1.0270670571686784 rxn_smarts="[C:1]([C:2](=[O:3])[C@@:4]([O:5][H:12])([C:6](=[O:7])[H:13])[H:11])([H:8])([H:9])[H:10]>>[C:1](=[C:2]1[O:3][C@@:6]([O:7][H:10])([H:13])[C@@:4]1([O:5][H:12])[H:11])([H:8])[H:9]"
C       -1.62692892       0.27940823      -0.13715093
C       -0.48745358      -0.00910465      -0.90782559
O       -0.19861279      -1.20293524      -1.29769093
C        0.89362827       0.45979991      -0.43518443
O        1.01992772       1.55124625       0.40752340
C        1.09628590      -0.89791890       0.25992704
O        0.47136533      -1.01257084       1.37264859
H       -1.69085580       1.23677623       0.37457091
H       -2.55886427       0.12846026      -0.67426178
H       -0.91976191      -0.80896718       1.11622538
H        1.57222509       0.57320996      -1.28042118
H        0.60265603       1.34777977       1.25165467
H        1.82638894      -1.64518379      -0.05001514
13
Frame=11 idx=010197 GeodesicLength=1.1297468495398535 rxn_smarts="[C:1]([C:2](=[O:3])[C@@:4]([O:5][H:12])([C:6](=[O:7])[H:13])[H:11])([H:8])([H:9])[H:10]>>[C:1](=[C:2]1[O:3][C@@:6]([O:7][H:10])([H:13])[C@@:4]1([O:5][H:12])[H:11])([H:8])[H:9]"
C       -1.63330323       0.26839454      -0.13927270
C       -0.49016998      -0.00960589      -0.91397308
O       -0.19277123      -1.21125496      -1.27976494
C        0.89126518       0.46257179      -0.44012461
O        1.00891403       1.55750916       0.39842956
C        1.10086744      -0.89113725       0.26093724
O        0.48910456      -0.99089616       1.38534788
H       -1.69611299       1.21863202       0.38632898
H       -2.55610920       0.16275464      -0.70327468
H       -0.95259556      -0.83628053       1.12856936
H        1.56921699       0.57640735      -1.28626304
H        0.63668416       1.33463662       1.25887122
H        1.82500983      -1.64173133      -0.05581120
13
Frame=12 idx=010197 GeodesicLength=1.2324241645426879 rxn_smarts="[C:1]([C:2](=[O:3])[C@@:4]([O:5][H:12])([C:6](=[O:7])[H:13])[H:11])([H:8])([H:9])[H:10]>>[C:1](=[C:2]1[O:3][C@@:6]([O:7][H:10])([H:13])[C@@:4]1([O:5][H:12])[H:11])([H:8])[H:9]"
C       -1.63974166       0.25705494      -0.14187947
C       -0.49278548      -0.01009832      -0.92043323
O       -0.18678796      -1.21902944      -1.26205971
C        0.88887878       0.46537187      -0.44494527
O        0.99742530       1.56350792       0.38982331
C        1.10523643      -0.88431081       0.26206365
O        0.50635498      -0.96915815       1.39758391
H       -1.70137384       1.19973103       0.39793500
H       -2.55204213       0.19718008      -0.73015773
H       -0.98699245      -0.86446543       1.14035795
H        1.56642653       0.57975987      -1.29176364
H        0.67189591       1.32266331       1.26455536
H        1.82350560      -1.63820686      -0.06108013
13
Frame=13 idx=010197 GeodesicLength=1.3350983938923053 rxn_smarts="[C:1]([C:2](=[O:3])[C@@:4]([O:5][H:12])([C:6](=[O:7])[H:13])[H:11])([H:8])([H:9])[H:10]>>[C:1](=[C:2]1[O:3][C@@:6]([O:7][H:10])([H:13])[C@@:4]1([O:5][H:12])[H:11])([H:8])[H:9]"
C       -1.64622117       0.24545842      -0.14497760
C       -0.49529032      -0.01058715      -0.92718639
O       -0.18067738      -1.22627994      -1.24452781
C        0.88647802       0.46820840      -0.44964851
O        0.98549809       1.56923575       0.38171452
C        1.10940387      -0.87742563       0.26332016
O        0.52324395      -0.94725521       1.40945410
H       -1.70659434       1.18010089       0.40940356
H       -2.54675754       0.23165700      -0.75487283
H       -1.02322206      -0.89365726       1.15140568
H        1.56385226       0.58327211      -1.29693243
H        0.70838962       1.31186925       1.26866423
H        1.82189699      -1.63459663      -0.06581668
13
Frame=14 idx=010197 GeodesicLength=1.4377735872801503 rxn_smarts="[C:1]([C:2](=[O:3])[C@@:4]([O:5][H:12])([C:6](=[O:7])[H:13])[H:11])([H:8])([H:9])[H:10]>>[C:1](=[C:2]1[O:3][C@@:6]([O:7][H:10])([H:13])[C@@:4]1([O:5][H:12])[H:11])([H:8])[H:9]"
C       -1.65271905       0.23365956      -0.14855767
C       -0.49767643      -0.01108397      -0.93420876
O       -0.17445523      -1.23303405      -1.22711585
C        0.88407319       0.47109082      -0.45424138
O        0.97317372       1.57469182       0.37411022
C        1.11338081      -0.87046145       0.26473079
O        0.53990366      -0.92506203       1.42106227
H       -1.71172411       1.15974219       0.42078620
H       -2.54034053       0.26614757      -0.77739444
H       -1.06158408      -0.92404234       1.16149214
H        1.56149305       0.58694530      -1.30178925
H        0.74627466       1.30229262       1.27112603
H        1.82020033      -1.63088604      -0.07000029
13
Frame=15 idx=010197 GeodesicLength=1.5404485775294663 rxn_smarts="[C:1]([C:2](=[O:3])[C@@:4]([O:5][H:12])([C:6](=[O:7])[H:13])[H:11])([H:8])([H:9])[H:10]>>[C:1](=[C:2]1[O:3][C@@:6]([O:7][H:10])([H:13])[C@@:4]1([O:5][H:12])[H:11])([H:8])[H:9]"
C       -1.65921094       0.22171011      -0.15259244
C       -0.49993713      -0.01160129      -0.94146442
O       -0.16813720      -1.23931675      -1.20975287
C        0.88167340       0.47402800      -0.45873040
O        0.96049632       1.57987129       0.36701854
C        1.11717986      -0.86339320       0.26632652
O        0.55648066      -0.90243391       1.43250762
H       -1.71670973       1.13864623       0.43214800
H       -2.53286082       0.30063179      -0.79769091
H       -1.10240824      -0.95583923       1.17035182
H        1.55934268       0.59077531      -1.30635269
H        0.78566139       1.29398140       1.27182959
H        1.81842976      -1.62705974      -0.07359836
13
Frame=16 idx=010197 GeodesicLength=1.6431231780813342 rxn_smarts="[C:1]([C:2](=[O:3])[C@@:4]([O:5][H:12])([C:6](=[O:7])[H:13])[H:11])([H:8])([H:9])[H:10]>>[C:1](=[C:2]1[O:3][C@@:6]([O:7][H:10])([H:13])[C@@:4]1([O:5][H:12])[H:11])([H:8])[H:9]"
C       -1.66567083       0.20965752      -0.15703763
C       -0.50206710      -0.01215569      -0.94890839
O       -0.16174006      -1.24515532      -1.19235282
C        0.87928924       0.47702821      -0.46312432
O        0.94752125       1.58476900       0.36044758
C        1.12081560      -0.85618951       0.26814737
O        0.57313853      -0.87920156       1.44389073
H       -1.72148957       1.11678985       0.44357704
H       -2.52437348       0.33511325      -0.81571619
H       -1.14606693      -0.98930711       1.17766151
H        1.55739330       0.59475001      -1.31064634
H        0.82665264       1.28700267       1.27062511
H        1.81659741      -1.62310132      -0.07656365
