10
Frame=0 idx=007770 GeodesicLength=0.0 rxn_smarts="[O:1]=[C:2]([n:3]1[c:4]([H:9])[n:5][c:6]([H:10])[n:7]1)[H:8]>>[O:1]=[C:2]([C@:4]1([H:9])[N:3]=[N:7][C:6]([H:10])=[N:5]1)[H:8]"
O        2.47513983       0.25290649      -0.32791114
C        1.39612427      -0.16150750      -0.23046985
N        0.18475554       0.40133786       1.11154656
C       -0.06309558       0.96197764      -0.13815418
N       -1.07920290       0.34796353      -0.77087773
C       -1.38735776      -0.61212860       0.08971925
N       -0.63816094      -0.62527150       1.21095489
H        0.93487086      -1.14396749      -0.43658405
H        0.34219949       1.92142860      -0.42614543
H       -2.16527281      -1.34273904      -0.08207831
10
Frame=1 idx=007770 GeodesicLength=0.05006317705488359 rxn_smarts="[O:1]=[C:2]([n:3]1[c:4]([H:9])[n:5][c:6]([H:10])[n:7]1)[H:8]>>[O:1]=[C:2]([C@:4]1([H:9])[N:3]=[N:7][C:6]([H:10])=[N:5]1)[H:8]"
O        2.48164194       0.27032965      -0.33071598
C        1.40816336      -0.16122228      -0.22515627
N        0.18723032       0.38770717       1.10296207
C       -0.06214563       0.95543803      -0.14406116
N       -1.08533953       0.34657611      -0.77214759
C       -1.39817274      -0.61067781       0.08910075
N       -0.64397478      -0.62972205       1.20853823
H        0.96903077      -1.15320790      -0.43363056
H        0.33658002       1.92016661      -0.42324669
H       -2.19301374      -1.32538752      -0.07164279
10
Frame=2 idx=007770 GeodesicLength=0.10008949634195619 rxn_smarts="[O:1]=[C:2]([n:3]1[c:4]([H:9])[n:5][c:6]([H:10])[n:7]1)[H:8]>>[O:1]=[C:2]([C@:4]1([H:9])[N:3]=[N:7][C:6]([H:10])=[N:5]1)[H:8]"
O        2.48796194       0.28795160      -0.33340228
C        1.42038131      -0.16086154      -0.22000291
N        0.18966370       0.37360864       1.09399730
C       -0.06118439       0.94854574      -0.15027104
N       -1.09169029       0.34514804      -0.77351498
C       -1.40951460      -0.60893560       0.08861270
N       -0.64971325      -0.63455398       1.20578291
H        1.00443554      -1.16236572      -0.43023874
H        0.33070439       1.91865954      -0.42015509
H       -2.22104436      -1.30719673      -0.06080786
10
Frame=3 idx=007770 GeodesicLength=0.15006185351574425 rxn_smarts="[O:1]=[C:2]([n:3]1[c:4]([H:9])[n:5][c:6]([H:10])[n:7]1)[H:8]>>[O:1]=[C:2]([C@:4]1([H:9])[N:3]=[N:7][C:6]([H:10])=[N:5]1)[H:8]"
O        2.49405748       0.30567132      -0.33600950
C        1.43271495      -0.16046827      -0.21504930
N        0.19207321       0.35905326       1.08463773
C       -0.06020978       0.94132819      -0.15678601
N       -1.09831981       0.34378028      -0.77492221
C       -1.42149845      -0.60672630       0.08836500
N       -0.65541386      -0.63970156       1.20272041
H        1.04102132      -1.17143769      -0.42635238
H        0.32461493       1.91690141      -0.41686423
H       -2.24903998      -1.28840064      -0.04973951
10
Frame=4 idx=007770 GeodesicLength=0.2000328555662222 rxn_smarts="[O:1]=[C:2]([n:3]1[c:4]([H:9])[n:5][c:6]([H:10])[n:7]1)[H:8]>>[O:1]=[C:2]([C@:4]1([H:9])[N:3]=[N:7][C:6]([H:10])=[N:5]1)[H:8]"
O        2.50000858       0.32374563      -0.33839010
C        1.44530659      -0.15994293      -0.21028469
N        0.19442940       0.34388784       1.07479845
C       -0.05923848       0.93365975      -0.16367869
N       -1.10512581       0.34224616      -0.77652579
C       -1.43398955      -0.60428914       0.08818167
N       -0.66098165      -0.64543344       1.19916909
H        1.07915663      -1.18033939      -0.42195101
H        0.31817560       1.91481672      -0.41334659
H       -2.27774131      -1.26835121      -0.03797234
10
Frame=5 idx=007770 GeodesicLength=0.24990192095756658 rxn_smarts="[O:1]=[C:2]([n:3]1[c:4]([H:9])[n:5][c:6]([H:10])[n:7]1)[H:8]>>[O:1]=[C:2]([C@:4]1([H:9])[N:3]=[N:7][C:6]([H:10])=[N:5]1)[H:8]"
O        2.50563457       0.34166186      -0.34080729
C        1.45785612      -0.15949674      -0.20580384
N        0.19679853       0.32831152       1.06454400
C       -0.05825008       0.92574477      -0.17086993
N       -1.11236502       0.34103032      -0.77801260
C       -1.44739436      -0.60094193       0.08852706
N       -0.66660901      -0.65129151       1.19541195
H        1.11827165      -1.18916202      -0.41694162
H        0.31163803       1.91247636      -0.40962187
H       -2.30558043      -1.24833265      -0.02642587
10
Frame=6 idx=007770 GeodesicLength=0.29978580997071164 rxn_smarts="[O:1]=[C:2]([n:3]1[c:4]([H:9])[n:5][c:6]([H:10])[n:7]1)[H:8]>>[O:1]=[C:2]([C@:4]1([H:9])[N:3]=[N:7][C:6]([H:10])=[N:5]1)[H:8]"
O        2.51111678       0.35999061      -0.34293741
C        1.47068436      -0.15890696      -0.20156176
N        0.19911500       0.31201067       1.05371470
C       -0.05727584       0.91731594      -0.17850194
N       -1.11979098       0.33961217      -0.77973712
C       -1.46136374      -0.59728879       0.08896862
N       -0.67208729      -0.65785934       1.19106112
H        1.15914284      -1.19771986      -0.41131377
H        0.30471038       1.90972987      -0.40564336
H       -2.33425152      -1.22688430      -0.01404908
10
Frame=7 idx=007770 GeodesicLength=0.3496345386860213 rxn_smarts="[O:1]=[C:2]([n:3]1[c:4]([H:9])[n:5][c:6]([H:10])[n:7]1)[H:8]>>[O:1]=[C:2]([C@:4]1([H:9])[N:3]=[N:7][C:6]([H:10])=[N:5]1)[H:8]"
O        2.51634621       0.37843494      -0.34493064
C        1.48361328      -0.15830503      -0.19763359
N        0.20141790       0.29507378       1.04232347
C       -0.05630712       0.90848321      -0.18654103
N       -1.12756231       0.33828254      -0.78151426
C       -1.47615836      -0.59287497       0.08981126
N       -0.67753209      -0.66488775       1.18626233
H        1.20147841      -1.20603539      -0.40497876
H        0.29754077       1.90659995      -0.40141739
H       -2.36283669      -1.20477127      -0.00138139
10
Frame=8 idx=007770 GeodesicLength=0.3994901883108736 rxn_smarts="[O:1]=[C:2]([n:3]1[c:4]([H:9])[n:5][c:6]([H:10])[n:7]1)[H:8]>>[O:1]=[C:2]([C@:4]1([H:9])[N:3]=[N:7][C:6]([H:10])=[N:5]1)[H:8]"
O        2.52137442       0.39721986      -0.34664122
C        1.49676307      -0.15760959      -0.19402337
N        0.20368289       0.27732420       1.03026235
C       -0.05535970       0.89912261      -0.19506552
N       -1.13559790       0.33683477      -0.78349045
C       -1.49167622      -0.58788193       0.09091608
N       -0.68287100      -0.67265271       1.18081661
H        1.24563718      -1.21397892      -0.39787730
H        0.29001100       1.90298980      -0.39692175
H       -2.39196374      -1.18136809       0.01202456
10
Frame=9 idx=007770 GeodesicLength=0.4492809658978509 rxn_smarts="[O:1]=[C:2]([n:3]1[c:4]([H:9])[n:5][c:6]([H:10])[n:7]1)[H:8]>>[O:1]=[C:2]([C@:4]1([H:9])[N:3]=[N:7][C:6]([H:10])=[N:5]1)[H:8]"
O        2.52607024       0.41601584      -0.34820864
C        1.50993468      -0.15704155      -0.19092960
N        0.20595459       0.25877728       1.01747070
C       -0.05442549       0.88930368      -0.20409506
N       -1.14412820       0.33560762      -0.78539575
C       -1.50828823      -0.58147198       0.09288598
N       -0.68825023      -0.68093974       1.17477470
H        1.29135818      -1.22145521      -0.38976559
H        0.28230138       1.89888551      -0.39217442
H       -2.42052692      -1.15768146       0.02543769
10
Frame=10 idx=007770 GeodesicLength=0.4990788860714574 rxn_smarts="[O:1]=[C:2]([n:3]1[c:4]([H:9])[n:5][c:6]([H:10])[n:7]1)[H:8]>>[O:1]=[C:2]([C@:4]1([H:9])[N:3]=[N:7][C:6]([H:10])=[N:5]1)[H:8]"
O        2.53055831       0.43529946      -0.34934008
C        1.52338667      -0.15636858      -0.18823527
N        0.20818097       0.23917647       1.00382374
C       -0.05353086       0.87882429      -0.21372719
N       -1.15291300       0.33412990      -0.78759574
C       -1.52562845      -0.57438764       0.09516303
N       -0.69350497      -0.69024677       1.16782866
H        1.33924224      -1.22830687      -0.38070647
H        0.27415619       1.89413671      -0.38713250
H       -2.44994710      -1.13225699       0.03992183
10
Frame=11 idx=007770 GeodesicLength=0.548835531997544 rxn_smarts="[O:1]=[C:2]([n:3]1[c:4]([H:9])[n:5][c:6]([H:10])[n:7]1)[H:8]>>[O:1]=[C:2]([C@:4]1([H:9])[N:3]=[N:7][C:6]([H:10])=[N:5]1)[H:8]"
O        2.53474862       0.45483263      -0.35014169
C        1.53697327      -0.15571110      -0.18602234
N        0.21038990       0.21856817       0.98930081
C       -0.05267704       0.86776633      -0.22394989
N       -1.16208802       0.33264518      -0.78992081
C       -1.54389518      -0.56615090       0.09807550
N       -0.69873625      -0.70037850       1.16006921
H        1.38904166      -1.23452224      -0.37060634
H        0.26570435       1.88873910      -0.38180609
H       -2.47946132      -1.10578866       0.05500164
10
Frame=12 idx=007770 GeodesicLength=0.5985930252571396 rxn_smarts="[O:1]=[C:2]([n:3]1[c:4]([H:9])[n:5][c:6]([H:10])[n:7]1)[H:8]>>[O:1]=[C:2]([C@:4]1([H:9])[N:3]=[N:7][C:6]([H:10])=[N:5]1)[H:8]"
O        2.53868592       0.47495632      -0.35033949
C        1.55086203      -0.15495911      -0.18429322
N        0.21254708       0.19665700       0.97371436
C       -0.05188464       0.85592270      -0.23489593
N       -1.17154274       0.33081082      -0.79260754
C       -1.56291240      -0.55707074       0.10139239
N       -0.70385534      -0.71179191       1.15114383
H        1.44123870      -1.23984342      -0.35937096
H        0.25676036       1.88251217      -0.37617542
H       -2.50989896      -1.07719383       0.07143199
10
Frame=13 idx=007770 GeodesicLength=0.6482764764671953 rxn_smarts="[O:1]=[C:2]([n:3]1[c:4]([H:9])[n:5][c:6]([H:10])[n:7]1)[H:8]>>[O:1]=[C:2]([C@:4]1([H:9])[N:3]=[N:7][C:6]([H:10])=[N:5]1)[H:8]"
O        2.54224391       0.49529362      -0.35011531
C        1.56484242      -0.15429421      -0.18314133
N        0.21469299       0.17356066       0.95706068
C       -0.05114830       0.84344488      -0.24652823
N       -1.18147356       0.32902164      -0.79537307
C       -1.58291946      -0.54644894       0.10560716
N       -0.70901574      -0.72412478       1.14123233
H        1.49537585      -1.24428672      -0.34690982
H        0.24754568       1.87548583      -0.37026828
H       -2.54014380      -1.04765198       0.08843588
10
Frame=14 idx=007770 GeodesicLength=0.6979315431107692 rxn_smarts="[O:1]=[C:2]([n:3]1[c:4]([H:9])[n:5][c:6]([H:10])[n:7]1)[H:8]>>[O:1]=[C:2]([C@:4]1([H:9])[N:3]=[N:7][C:6]([H:10])=[N:5]1)[H:8]"
O        2.54544771       0.51624233      -0.34911208
C        1.57910597      -0.15360707      -0.18259816
N        0.21678986       0.14888842       0.93907972
C       -0.05049264       0.83007725      -0.25902166
N       -1.19177506       0.32688305      -0.79848728
C       -1.60364428      -0.53470507       0.11041543
N       -0.71414348      -0.73793969       1.12987490
H        1.55202660      -1.24746744      -0.33305902
H        0.23784869       1.86742172      -0.36406561
H       -2.57116338      -1.01579349       0.10697374
10
Frame=15 idx=007770 GeodesicLength=0.7475011318082345 rxn_smarts="[O:1]=[C:2]([n:3]1[c:4]([H:9])[n:5][c:6]([H:10])[n:7]1)[H:8]>>[O:1]=[C:2]([C@:4]1([H:9])[N:3]=[N:7][C:6]([H:10])=[N:5]1)[H:8]"
O        2.54818460       0.53757239      -0.34738135
C        1.59352322      -0.15304089      -0.18275387
N        0.21885536       0.12262621       0.91967628
C       -0.04991988       0.81588438      -0.27239911
N       -1.20260425       0.32465998      -0.80175201
C       -1.62513674      -0.52138144       0.11614610
N       -0.71938108      -0.75304936       1.11709748
H        1.61090084      -1.24925381      -0.31768493
H        0.22782568       1.85827937      -0.35759436
H       -2.60224774      -0.98229682       0.12664577
10
Frame=16 idx=007770 GeodesicLength=0.7969824237570698 rxn_smarts="[O:1]=[C:2]([n:3]1[c:4]([H:9])[n:5][c:6]([H:10])[n:7]1)[H:8]>>[O:1]=[C:2]([C@:4]1([H:9])[N:3]=[N:7][C:6]([H:10])=[N:5]1)[H:8]"
O        2.55037929       0.55944020      -0.34466441
C        1.60814830      -0.15260037      -0.18366691
N        0.22085820       0.09448357       0.89860006
C       -0.04945777       0.80071898      -0.28679955
N       -1.21397887       0.32221862      -0.80525293
C       -1.64716210      -0.50667598       0.12266753
N       -0.72477342      -0.76974535       1.10258207
H        1.67218911      -1.24928773      -0.30060661
H        0.21740015       1.84786560      -0.35085934
H       -2.63360289      -0.94641754       0.14800008
