13
Frame=0 idx=001826 GeodesicLength=0.0 rxn_smarts="[C:1]([C@@:2]1([H:10])[C:3]([H:11])([H:12])[N:4]([H:13])[C:5]1=[O:6])([H:7])([H:8])[H:9]>>[C:1]([C@@:2]1([H:10])[C:3]([H:11])([H:12])[N:4]=[C:5]1[O:6][H:13])([H:7])([H:8])[H:9]"
C        1.53293830      -0.01706453       0.53516310
C        0.38714570      -0.15910365      -0.44490080
C       -0.83942781      -1.03123099      -0.03050793
N       -1.68743228       0.19868465      -0.15992711
C       -0.66380891       0.93780783      -0.43831899
O       -0.94094779       2.17155641      -0.48937240
H        2.20200967       0.78874735       0.23068325
H        1.16498516       0.21099633       1.53733808
H        2.11252386      -0.94014156       0.58498285
H        0.74343125      -0.38177806      -1.45160779
H       -0.79145060      -1.41567083       0.98906353
H       -1.12269887      -1.82548777      -0.72057838
H       -2.09726764       1.46268479      -0.14201745
13
Frame=1 idx=001826 GeodesicLength=0.033184999010897796 rxn_smarts="[C:1]([C@@:2]1([H:10])[C:3]([H:11])([H:12])[N:4]([H:13])[C:5]1=[O:6])([H:7])([H:8])[H:9]>>[C:1]([C@@:2]1([H:10])[C:3]([H:11])([H:12])[N:4]=[C:5]1[O:6][H:13])([H:7])([H:8])[H:9]"
C        1.53277479      -0.01637012       0.53456682
C        0.38790479      -0.16121030      -0.44611056
C       -0.83950182      -1.03091815      -0.03094885
N       -1.68713874       0.19692217      -0.16487871
C       -0.66097340       0.93638501      -0.44462283
O       -0.93713186       2.17124518      -0.47747329
H        2.20245467       0.78823906       0.22817229
H        1.16392139       0.21487313       1.53570599
H        2.11224539      -0.93937330       0.58782572
H        0.74524734      -0.38539565      -1.45215774
H       -0.79202015      -1.41385923       0.98929056
H       -1.12244930      -1.82665045      -0.71961486
H       -2.10533310       1.46611265      -0.13975453
13
Frame=2 idx=001826 GeodesicLength=0.0663687922770945 rxn_smarts="[C:1]([C@@:2]1([H:10])[C:3]([H:11])([H:12])[N:4]([H:13])[C:5]1=[O:6])([H:7])([H:8])[H:9]>>[C:1]([C@@:2]1([H:10])[C:3]([H:11])([H:12])[N:4]=[C:5]1[O:6][H:13])([H:7])([H:8])[H:9]"
C        1.53264082      -0.01569798       0.53398209
C        0.38868382      -0.16328535      -0.44729730
C       -0.83956951      -1.03055866      -0.03139450
N       -1.68680890       0.19521669      -0.16977538
C       -0.65807266       0.93502145      -0.45085131
O       -0.93343469       2.17070026      -0.46575968
H        2.20294759       0.78769794       0.22570314
H        1.16290326       0.21869187       1.53408772
H        2.11197619      -0.93862980       0.59064151
H        0.74707523      -0.38897668      -1.45268530
H       -0.79258700      -1.41203145       0.98949877
H       -1.12221766      -1.82773366      -0.71867797
H       -2.11353649       1.46958537      -0.13747178
13
Frame=3 idx=001826 GeodesicLength=0.09954898648059951 rxn_smarts="[C:1]([C@@:2]1([H:10])[C:3]([H:11])([H:12])[N:4]([H:13])[C:5]1=[O:6])([H:7])([H:8])[H:9]>>[C:1]([C@@:2]1([H:10])[C:3]([H:11])([H:12])[N:4]=[C:5]1[O:6][H:13])([H:7])([H:8])[H:9]"
C        1.53253584      -0.01504934       0.53341492
C        0.38948421      -0.16532990      -0.44845788
C       -0.83963127      -1.03015401      -0.03184723
N       -1.68644122       0.19357110      -0.17460549
C       -0.65510322       0.93371650      -0.45699506
O       -0.92987525       2.16992703      -0.45432543
H        2.20348218       0.78713227       0.22329335
H        1.16192937       0.22243252       1.53249397
H        2.11172336      -0.93790907       0.59342349
H        0.74891705      -0.39251744      -1.45318832
H       -0.79314875      -1.41020034       0.98968187
H       -1.12200827      -1.82873195      -0.71777738
H       -2.12186403       1.47311264      -0.13511083
13
Frame=4 idx=001826 GeodesicLength=0.13271139137674268 rxn_smarts="[C:1]([C@@:2]1([H:10])[C:3]([H:11])([H:12])[N:4]([H:13])[C:5]1=[O:6])([H:7])([H:8])[H:9]>>[C:1]([C@@:2]1([H:10])[C:3]([H:11])([H:12])[N:4]=[C:5]1[O:6][H:13])([H:7])([H:8])[H:9]"
C        1.53245773      -0.01442448       0.53287075
C        0.39030783      -0.16734630      -0.44959019
C       -0.83968797      -1.02970470      -0.03231051
N       -1.68603430       0.19198817      -0.17936091
C       -0.65206135       0.93246706      -0.46305133
O       -0.92647059       2.16893419      -0.44325872
H        2.20405124       0.78654968       0.22095872
H        1.16099451       0.22607911       1.53093298
H        2.11149218      -0.93720761       0.59616766
H        0.75077724      -0.39601759      -1.45366403
H       -0.79370484      -1.40837574       0.98983220
H       -1.12182501      -1.82963932      -0.71692212
H       -2.13029666       1.47669754      -0.13260450
13
Frame=5 idx=001826 GeodesicLength=0.16587483211564014 rxn_smarts="[C:1]([C@@:2]1([H:10])[C:3]([H:11])([H:12])[N:4]([H:13])[C:5]1=[O:6])([H:7])([H:8])[H:9]>>[C:1]([C@@:2]1([H:10])[C:3]([H:11])([H:12])[N:4]=[C:5]1[O:6][H:13])([H:7])([H:8])[H:9]"
C        1.53240202      -0.01381806       0.53234761
C        0.39115555      -0.16933929      -0.45070253
C       -0.83973865      -1.02921555      -0.03279282
N       -1.68559151       0.19045878      -0.18407704
C       -0.64894953       0.93126594      -0.46904508
O       -0.92320750       2.16773468      -0.43250968
H        2.20466413       0.78593580       0.21867508
H        1.16008809       0.22967560       1.52939169
H        2.11126558      -0.93652635       0.59890695
H        0.75266293      -0.39949044      -1.45411653
H       -0.79426168      -1.40654854       0.98994769
H       -1.12165826      -1.83047082      -0.71611383
H       -2.13883119       1.48033824      -0.12991150
13
Frame=6 idx=001826 GeodesicLength=0.19903597013271973 rxn_smarts="[C:1]([C@@:2]1([H:10])[C:3]([H:11])([H:12])[N:4]([H:13])[C:5]1=[O:6])([H:7])([H:8])[H:9]>>[C:1]([C@@:2]1([H:10])[C:3]([H:11])([H:12])[N:4]=[C:5]1[O:6][H:13])([H:7])([H:8])[H:9]"
C        1.53235915      -0.01322384       0.53184710
C        0.39202989      -0.17131587      -0.45180567
C       -0.83978499      -1.02868997      -0.03330889
N       -1.68511710       0.18897461      -0.18880817
C       -0.64576668       0.93010506      -0.47501210
O       -0.92008424       2.16633473      -0.42211160
H        2.20531696       0.78529084       0.21643859
H        1.15918639       0.23325097       1.52786219
H        2.11103043      -0.93585988       0.60166966
H        0.75458899      -0.40295234      -1.45455091
H       -0.79483930      -1.40470319       0.99002196
H       -1.12149345      -1.83124492      -0.71535699
H       -2.14742605       1.48403379      -0.12688518
13
Frame=7 idx=001826 GeodesicLength=0.23218874047196844 rxn_smarts="[C:1]([C@@:2]1([H:10])[C:3]([H:11])([H:12])[N:4]([H:13])[C:5]1=[O:6])([H:7])([H:8])[H:9]>>[C:1]([C@@:2]1([H:10])[C:3]([H:11])([H:12])[N:4]=[C:5]1[O:6][H:13])([H:7])([H:8])[H:9]"
C        1.53232305      -0.01263808       0.53136772
C        0.39293248      -0.17327965      -0.45290875
C       -0.83982834      -1.02812740      -0.03386868
N       -1.68461525       0.18752777      -0.19361004
C       -0.64251144       0.92897875      -0.48097924
O       -0.91709242       2.16474427      -0.41204497
H        2.20601332       0.78460530       0.21423723
H        1.15827605       0.23683727       1.52633205
H        2.11077085      -0.93520753       0.60448128
H        0.75656382      -0.40641416      -1.45497061
H       -0.79545413      -1.40281504       0.99005381
H       -1.12131642      -1.83197796      -0.71464737
H       -2.15606157       1.48776647      -0.12344242
13
Frame=8 idx=001826 GeodesicLength=0.26534438469570804 rxn_smarts="[C:1]([C@@:2]1([H:10])[C:3]([H:11])([H:12])[N:4]([H:13])[C:5]1=[O:6])([H:7])([H:8])[H:9]>>[C:1]([C@@:2]1([H:10])[C:3]([H:11])([H:12])[N:4]=[C:5]1[O:6][H:13])([H:7])([H:8])[H:9]"
C        1.53229884      -0.01206311       0.53091160
C        0.39386269      -0.17523007      -0.45400124
C       -0.83986929      -1.02752832      -0.03446303
N       -1.68408196       0.18612428      -0.19844069
C       -0.63918087       0.92788798      -0.48692035
O       -0.91424085       2.16297340      -0.40235585
H        2.20674524       0.78389482       0.21209067
H        1.15737154       0.24038991       1.52481681
H        2.11051044      -0.93456191       0.60730948
H        0.75858127      -0.40987340      -1.45536789
H       -0.79609965      -1.40090532       0.99004378
H       -1.12114191      -1.83265540      -0.71398715
H       -2.16475549       1.49154713      -0.11963612
13
Frame=9 idx=001826 GeodesicLength=0.2984909316024423 rxn_smarts="[C:1]([C@@:2]1([H:10])[C:3]([H:11])([H:12])[N:4]([H:13])[C:5]1=[O:6])([H:7])([H:8])[H:9]>>[C:1]([C@@:2]1([H:10])[C:3]([H:11])([H:12])[N:4]=[C:5]1[O:6][H:13])([H:7])([H:8])[H:9]"
C        1.53228264      -0.01149627       0.53047985
C        0.39482105      -0.17717224      -0.45508870
C       -0.83990932      -1.02689355      -0.03509609
N       -1.68351813       0.18476444      -0.20331824
C       -0.63577449       0.92682960      -0.49285711
O       -0.91152080       2.16103642      -0.39303336
H        2.20750806       0.78316164       0.20999542
H        1.15646359       0.24392257       1.52331430
H        2.11024643      -0.93392091       0.61016422
H        0.76064574      -0.41334220      -1.45574573
H       -0.79677924      -1.39896907       0.98999148
H       -1.12096932      -1.83328436      -0.71337583
H       -2.17349621       1.49536394      -0.11543021
13
Frame=10 idx=001826 GeodesicLength=0.3316373696871146 rxn_smarts="[C:1]([C@@:2]1([H:10])[C:3]([H:11])([H:12])[N:4]([H:13])[C:5]1=[O:6])([H:7])([H:8])[H:9]>>[C:1]([C@@:2]1([H:10])[C:3]([H:11])([H:12])[N:4]=[C:5]1[O:6][H:13])([H:7])([H:8])[H:9]"
C        1.53227115      -0.01093381       0.53007021
C        0.39580844      -0.17910816      -0.45617683
C       -0.83994933      -1.02622308      -0.03577362
N       -1.68292692       0.18344141      -0.20828003
C       -0.63229185       0.92579942      -0.49880704
O       -0.90892345       2.15893711      -0.38404810
H        2.20830648       0.78239932       0.20794109
H        1.15554482       0.24745880       1.52181519
H        2.10996631      -0.93328396       0.61306208
H        0.76276357      -0.41682966      -1.45610580
H       -0.79750171      -1.39699015       0.98989665
H       -1.12079113      -1.83387592      -0.71280895
H       -2.18227637       1.49920867      -0.11078485
13
Frame=11 idx=001826 GeodesicLength=0.36478553113101897 rxn_smarts="[C:1]([C@@:2]1([H:10])[C:3]([H:11])([H:12])[N:4]([H:13])[C:5]1=[O:6])([H:7])([H:8])[H:9]>>[C:1]([C@@:2]1([H:10])[C:3]([H:11])([H:12])[N:4]=[C:5]1[O:6][H:13])([H:7])([H:8])[H:9]"
C        1.53225979      -0.01037186       0.52968196
C        0.39682592      -0.18103996      -0.45727172
C       -0.83998971      -1.02551725      -0.03650360
N       -1.68230953       0.18215109      -0.21335641
C       -0.62873227       0.92479423      -0.50479067
O       -0.90644272       2.15668266      -0.37538896
H        2.20914511       0.78159928       0.20591614
H        1.15460528       0.25102571       1.52031036
H        2.10965432      -0.93265167       0.61602727
H        0.76494103      -0.42034465      -1.45645033
H       -0.79827566      -1.39495636       0.98975630
H       -1.12059841      -1.83443873      -0.71228840
H       -2.19108314       1.50306752      -0.10564195
13
Frame=12 idx=001826 GeodesicLength=0.39794661969735867 rxn_smarts="[C:1]([C@@:2]1([H:10])[C:3]([H:11])([H:12])[N:4]([H:13])[C:5]1=[O:6])([H:7])([H:8])[H:9]>>[C:1]([C@@:2]1([H:10])[C:3]([H:11])([H:12])[N:4]=[C:5]1[O:6][H:13])([H:7])([H:8])[H:9]"
C        1.53224128      -0.00980528       0.52931593
C        0.39787493      -0.18297053      -0.45838073
C       -0.84003124      -1.02477645      -0.03729717
N       -1.68166791       0.18088764      -0.21858282
C       -0.62509583       0.92380817      -0.51083409
O       -0.90407185       2.15427611      -0.36706619
H        2.21002663       0.78075311       0.20391157
H        1.15362718       0.25465172       1.51878948
H        2.10929327      -0.93202145       0.61908662
H        0.76719010      -0.42389700      -1.45678030
H       -0.79911153      -1.39285360       0.98956394
H       -1.12038087      -1.83498215      -0.71181796
H       -2.19989415       1.50692971      -0.09990829
13
Frame=13 idx=001826 GeodesicLength=0.4311087013357908 rxn_smarts="[C:1]([C@@:2]1([H:10])[C:3]([H:11])([H:12])[N:4]([H:13])[C:5]1=[O:6])([H:7])([H:8])[H:9]>>[C:1]([C@@:2]1([H:10])[C:3]([H:11])([H:12])[N:4]=[C:5]1[O:6][H:13])([H:7])([H:8])[H:9]"
C        1.53221576      -0.00923471       0.52897556
C        0.39895553      -0.18490034      -0.45950069
C       -0.84007486      -1.02400125      -0.03815277
N       -1.68099865       0.17965704      -0.22393303
C       -0.62138013       0.92284114      -0.51693188
O       -0.90181765       2.15172864      -0.35912520
H        2.21094585       0.77986876       0.20193965
H        1.15261140       0.25832062       1.51726039
H        2.10888919      -0.93139123       0.62223135
H        0.76950933      -0.42748447      -1.45709386
H       -0.80000320      -1.39069586       0.98931659
H       -1.12014854      -1.83549823      -0.71140362
H       -2.20870403       1.51078990      -0.09358248
13
Frame=14 idx=001826 GeodesicLength=0.4642661930754546 rxn_smarts="[C:1]([C@@:2]1([H:10])[C:3]([H:11])([H:12])[N:4]([H:13])[C:5]1=[O:6])([H:7])([H:8])[H:9]>>[C:1]([C@@:2]1([H:10])[C:3]([H:11])([H:12])[N:4]=[C:5]1[O:6][H:13])([H:7])([H:8])[H:9]"
C        1.53218164      -0.00865990       0.52866432
C        0.40006793      -0.18683102      -0.46062915
C       -0.84012133      -1.02319223      -0.03907067
N       -1.68029914       0.17846367      -0.22938598
C       -0.61758374       0.92189013      -0.52308388
O       -0.89968412       2.14905167      -0.35161451
H        2.21189574       0.77895399       0.20001239
H        1.15155477       0.26201931       1.51572877
H        2.10844691      -0.93075699       0.62545578
H        0.77189948      -0.43110759      -1.45738805
H       -0.80094569      -1.38849533       0.98900914
H       -1.11990949      -1.83597949      -0.71105184
H       -2.21750296       1.51464377      -0.08664631
13
Frame=15 idx=001826 GeodesicLength=0.49741932410168005 rxn_smarts="[C:1]([C@@:2]1([H:10])[C:3]([H:11])([H:12])[N:4]([H:13])[C:5]1=[O:6])([H:7])([H:8])[H:9]>>[C:1]([C@@:2]1([H:10])[C:3]([H:11])([H:12])[N:4]=[C:5]1[O:6][H:13])([H:7])([H:8])[H:9]"
C        1.53213660      -0.00807964       0.52838560
C        0.40121239      -0.18876474      -0.46176470
C       -0.84017173      -1.02235090      -0.04005185
N       -1.67956725       0.17731096      -0.23492356
C       -0.61370549       0.92095125      -0.52929329
O       -0.89767251       2.14625766      -0.34458000
H        2.21286902       0.77801748       0.19814092
H        1.15045230       0.26573754       1.51419995
H        2.10797021      -0.93011403       0.62875597
H        0.77436229      -0.43476865      -1.45766065
H       -0.80193523      -1.38626404       0.98863665
H       -1.11967122      -1.83642075      -0.71076936
H       -2.22627938       1.51848787      -0.07907568
13
Frame=16 idx=001826 GeodesicLength=0.5305718344489943 rxn_smarts="[C:1]([C@@:2]1([H:10])[C:3]([H:11])([H:12])[N:4]([H:13])[C:5]1=[O:6])([H:7])([H:8])[H:9]>>[C:1]([C@@:2]1([H:10])[C:3]([H:11])([H:12])[N:4]=[C:5]1[O:6][H:13])([H:7])([H:8])[H:9]"
C        1.53207678      -0.00749068       0.52813925
C        0.40238912      -0.19070317      -0.46291060
C       -0.84022707      -1.02147662      -0.04110291
N       -1.67880454       0.17619603      -0.24057059
C       -0.60974480       0.92002149      -0.53557472
O       -0.89577816       2.14335179      -0.33800549
H        2.21387111       0.77704851       0.19631315
H        1.14929772       0.26949807       1.51266623
H        2.10744806      -0.92946046       0.63215114
H        0.77690148      -0.43847359      -1.45791154
H       -0.80298174      -1.38398945       0.98819665
H       -1.11942647      -1.83682776      -0.71055761
H       -2.23502151       1.52230584      -0.07083296
