17
Frame=0 idx=009038 GeodesicLength=0.0 rxn_smarts="[C:1]([C@@:2]1([H:11])[C:3]([H:12])([H:13])[C:4]([H:14])=[C:5]([H:15])[C:6]([H:16])([H:17])[O:7]1)([H:8])([H:9])[H:10]>>[C:1]([C:2]([C:3]([H:12])([H:13])[H:16])([O:7]/[C:6](=[C:5](\[C:4][H:14])[H:15])[H:17])[H:11])([H:8])([H:9])[H:10]"
C       -1.75816817       0.08316233      -0.53782025
C       -0.88636301       0.49815266       0.63490475
C       -0.03471098      -0.61656356       1.23663186
C        1.20549370      -1.28175328      -0.75286688
C        1.56238705      -0.02763625      -0.92882151
C        1.29541347       1.01968851       0.06366454
O        0.04593562       1.53440904       0.25809433
H       -2.52713382      -0.61286523      -0.19663426
H       -1.18269962      -0.39368391      -1.33032544
H       -2.25465822       0.95984019      -0.95481276
H       -1.52709513       0.96163243       1.39002339
H       -0.40722636      -1.60816350       1.01743601
H        0.10570718      -0.53189129       2.31908570
H        1.08785383      -2.03215380      -1.53338452
H        2.15230567       0.29113985      -1.78817663
H        1.09929792      -0.06994615       0.96539749
H        2.02366086       1.82663195       0.13760417
17
Frame=1 idx=009038 GeodesicLength=0.10030853752531611 rxn_smarts="[C:1]([C@@:2]1([H:11])[C:3]([H:12])([H:13])[C:4]([H:14])=[C:5]([H:15])[C:6]([H:16])([H:17])[O:7]1)([H:8])([H:9])[H:10]>>[C:1]([C:2]([C:3]([H:12])([H:13])[H:16])([O:7]/[C:6](=[C:5](\[C:4][H:14])[H:15])[H:17])[H:11])([H:8])([H:9])[H:10]"
C       -1.77740399       0.08838674      -0.52688382
C       -0.88216920       0.49453324       0.63001523
C       -0.03714506      -0.62936247       1.22196202
C        1.20011990      -1.27683432      -0.74646773
C        1.57433219      -0.02614345      -0.93013917
C        1.30102699       1.02783725       0.05218628
O        0.04516050       1.52862871       0.23559794
H       -2.54732455      -0.59966671      -0.17186908
H       -1.21659459      -0.39388283      -1.32671769
H       -2.27425595       0.96840571      -0.93643525
H       -1.50346907       0.96539332       1.39700567
H       -0.41201489      -1.61757667       0.98818002
H        0.06858955      -0.56778736       2.30975924
H        1.13006766      -2.03731648      -1.52297088
H        2.19908332       0.27603652      -1.77055714
H        1.11569448      -0.04863782       0.99343757
H        2.01630270       1.84798662       0.10389678
17
Frame=2 idx=009038 GeodesicLength=0.200580507467348 rxn_smarts="[C:1]([C@@:2]1([H:11])[C:3]([H:12])([H:13])[C:4]([H:14])=[C:5]([H:15])[C:6]([H:16])([H:17])[O:7]1)([H:8])([H:9])[H:10]>>[C:1]([C:2]([C:3]([H:12])([H:13])[H:16])([O:7]/[C:6](=[C:5](\[C:4][H:14])[H:15])[H:17])[H:11])([H:8])([H:9])[H:10]"
C       -1.79714546       0.09396128      -0.51536444
C       -0.87804072       0.49080850       0.62476714
C       -0.03957848      -0.64230835       1.20663788
C        1.19490087      -1.27155946      -0.74124143
C        1.58658852      -0.02447409      -0.93178241
C        1.30658860       1.03576588       0.04060341
O        0.04433627       1.52233689       0.21237002
H       -2.56764168      -0.58587716      -0.14597433
H       -1.25176373      -0.39392926      -1.32256638
H       -2.29412172       0.97750249      -0.91720427
H       -1.47897893       0.96898861       1.40365985
H       -0.41698271      -1.62677004       0.95791454
H        0.03213941      -0.60432164       2.29816191
H        1.17439083      -2.04293034      -1.50997627
H        2.24635497       0.26096265      -1.75108795
H        1.13047594      -0.02666716       1.02113737
H        2.00847802       1.86851120       0.06994537
17
Frame=3 idx=009038 GeodesicLength=0.30079627352864147 rxn_smarts="[C:1]([C@@:2]1([H:11])[C:3]([H:12])([H:13])[C:4]([H:14])=[C:5]([H:15])[C:6]([H:16])([H:17])[O:7]1)([H:8])([H:9])[H:10]>>[C:1]([C:2]([C:3]([H:12])([H:13])[H:16])([O:7]/[C:6](=[C:5](\[C:4][H:14])[H:15])[H:17])[H:11])([H:8])([H:9])[H:10]"
C       -1.81731950       0.09992484      -0.50326826
C       -0.87395065       0.48693399       0.61912832
C       -0.04203354      -0.65545534       1.19060319
C        1.18983331      -1.26595457      -0.73726723
C        1.59918695      -0.02264398      -0.93374716
C        1.31210529       1.04348616       0.02889141
O        0.04349439       1.51549394       0.18846591
H       -2.58797037      -0.57148784      -0.11900058
H       -1.28817765      -0.39371661      -1.31789598
H       -2.31416553       0.98719119      -0.89707539
H       -1.45358658       0.97229986       1.40992737
H       -0.42211824      -1.63576717       0.92651214
H       -0.00369122      -0.64144979       2.28425492
H        1.22086446      -2.04896883      -1.49392812
H        2.29358929       0.24599789      -1.72987309
H        1.14370997      -0.00405163       1.04851976
H        2.00022962       1.88816789       0.03575278
17
Frame=4 idx=009038 GeodesicLength=0.4009514844877659 rxn_smarts="[C:1]([C@@:2]1([H:11])[C:3]([H:12])([H:13])[C:4]([H:14])=[C:5]([H:15])[C:6]([H:16])([H:17])[O:7]1)([H:8])([H:9])[H:10]>>[C:1]([C:2]([C:3]([H:12])([H:13])[H:16])([O:7]/[C:6](=[C:5](\[C:4][H:14])[H:15])[H:17])[H:11])([H:8])([H:9])[H:10]"
C       -1.83788746       0.10631376      -0.49057604
C       -0.86989002       0.48286515       0.61307217
C       -0.04452706      -0.66886427       1.17377493
C        1.18487548      -1.26003918      -0.73468008
C        1.61210512      -0.02065547      -0.93609039
C        1.31755462       1.05101267       0.01698465
O        0.04263808       1.50806679       0.16392649
H       -2.60821703      -0.55649463      -0.09095560
H       -1.32586023      -0.39313424      -1.31271311
H       -2.33433766       0.99753140      -0.87596273
H       -1.42725342       0.97518791       1.41576919
H       -0.42741876      -1.64458783       0.89383364
H       -0.03890589      -0.67913622       2.26798434
H        1.26951041      -2.05536157      -1.47431246
H        2.34059460       0.23116995      -1.70690028
H        1.15545242       0.01919175       1.07555923
H        1.99156681       1.90693402       0.00128605
17
Frame=5 idx=009038 GeodesicLength=0.5009265776229838 rxn_smarts="[C:1]([C@@:2]1([H:11])[C:3]([H:12])([H:13])[C:4]([H:14])=[C:5]([H:15])[C:6]([H:16])([H:17])[O:7]1)([H:8])([H:9])[H:10]>>[C:1]([C:2]([C:3]([H:12])([H:13])[H:16])([O:7]/[C:6](=[C:5](\[C:4][H:14])[H:15])[H:17])[H:11])([H:8])([H:9])[H:10]"
C       -1.85890355       0.11316166      -0.47721816
C       -0.86589734       0.47859030       0.60659225
C       -0.04706684      -0.68257999       1.15609425
C        1.17986656      -1.25383205      -0.73368737
C        1.62519920      -0.01852152      -0.93896911
C        1.32285984       1.05831686       0.00478281
O        0.04171820       1.50004056       0.13875166
H       -2.62838628      -0.54089725      -0.06177496
H       -1.36495430      -0.39209547      -1.30696713
H       -2.35467642       1.00857451      -0.85374096
H       -1.40000198       0.97760673       1.42117890
H       -0.43292752      -1.65323911       0.85981789
H       -0.07341924      -0.71727385       2.24943307
H        1.32060541      -2.06199941      -1.45095267
H        2.38779414       0.21641819      -1.68193555
H        1.16572365       0.04296620       1.10213898
H        1.98246646       1.92476364      -0.03354389
17
Frame=6 idx=009038 GeodesicLength=0.6007514424240885 rxn_smarts="[C:1]([C@@:2]1([H:11])[C:3]([H:12])([H:13])[C:4]([H:14])=[C:5]([H:15])[C:6]([H:16])([H:17])[O:7]1)([H:8])([H:9])[H:10]>>[C:1]([C:2]([C:3]([H:12])([H:13])[H:16])([O:7]/[C:6](=[C:5](\[C:4][H:14])[H:15])[H:17])[H:11])([H:8])([H:9])[H:10]"
C       -1.88018710       0.12047756      -0.46324509
C       -0.86190358       0.47402419       0.59963745
C       -0.04964819      -0.69667708       1.13746364
C        1.17495942      -1.24739461      -0.73430820
C        1.63858894      -0.01626234      -0.94229944
C        1.32806976       1.06542317      -0.00771637
O        0.04080599       1.49136838       0.11302666
H       -2.64824989      -0.52473882      -0.03158481
H       -1.40528780      -0.39049661      -1.30070848
H       -2.37497127       1.02034535      -0.83040988
H       -1.37177736       0.97934090       1.42605978
H       -0.43859177      -1.66174241       0.82428396
H       -0.10732229      -0.75592709       2.22846269
H        1.37363531      -2.06862796      -1.42296234
H        2.43427365       0.20191690      -1.65531438
H        1.17461401       0.06731487       1.12833043
H        1.97299217       1.94165560      -0.06871561
17
Frame=7 idx=009038 GeodesicLength=0.7004186153875845 rxn_smarts="[C:1]([C@@:2]1([H:11])[C:3]([H:12])([H:13])[C:4]([H:14])=[C:5]([H:15])[C:6]([H:16])([H:17])[O:7]1)([H:8])([H:9])[H:10]>>[C:1]([C:2]([C:3]([H:12])([H:13])[H:16])([O:7]/[C:6](=[C:5](\[C:4][H:14])[H:15])[H:17])[H:11])([H:8])([H:9])[H:10]"
C       -1.90159353       0.12822827      -0.44868795
C       -0.85786338       0.46909410       0.59216332
C       -0.05224821      -0.71121015       1.11782024
C        1.17029262      -1.24080575      -0.73654891
C        1.65234542      -0.01390611      -0.94602692
C        1.33320577       1.07234018      -0.02052465
O        0.03993878       1.48201333       0.08679883
H       -2.66762234      -0.50810490      -0.00047407
H       -1.44672244      -0.38828783      -1.29395345
H       -2.39505423       1.03281068      -0.80597147
H       -1.34257401       0.98022575       1.43032126
H       -0.44435745      -1.67010451       0.78712386
H       -0.14064392      -0.79508011       2.20502719
H        1.42790813      -2.07484845      -1.38978679
H        2.47960457       0.18777493      -1.62723120
H        1.18220190       0.09225674       1.15418024
H        1.96318233       1.95760384      -0.10422953
17
Frame=8 idx=009038 GeodesicLength=0.799921210811962 rxn_smarts="[C:1]([C@@:2]1([H:11])[C:3]([H:12])([H:13])[C:4]([H:14])=[C:5]([H:15])[C:6]([H:16])([H:17])[O:7]1)([H:8])([H:9])[H:10]>>[C:1]([C:2]([C:3]([H:12])([H:13])[H:16])([O:7]/[C:6](=[C:5](\[C:4][H:14])[H:15])[H:17])[H:11])([H:8])([H:9])[H:10]"
C       -1.92297686       0.13633496      -0.43358000
C       -0.85373969       0.46373484       0.58413383
C       -0.05482831      -0.72621205       1.09715685
C        1.16605124      -1.23416943      -0.74032289
C        1.66652379      -0.01149954      -0.95007762
C        1.33827887       1.07907772      -0.03364959
O        0.03914103       1.47194306       0.06009657
H       -2.68631591      -0.49112845       0.03147326
H       -1.48910276      -0.38549275      -1.28669656
H       -2.41476011       1.04587975      -0.78046436
H       -1.31242662       0.98013709       1.43386132
H       -0.45015081      -1.67832107       0.74831771
H       -0.17338613      -0.83466455       2.17914995
H        1.48242688      -2.08014229      -1.35127440
H        2.52365517       0.17405620      -1.59778555
H        1.18854510       0.11785332       1.17976332
H        1.95306513       1.97261318      -0.14010183
17
Frame=9 idx=009038 GeodesicLength=0.8990711380995898 rxn_smarts="[C:1]([C@@:2]1([H:11])[C:3]([H:12])([H:13])[C:4]([H:14])=[C:5]([H:15])[C:6]([H:16])([H:17])[O:7]1)([H:8])([H:9])[H:10]>>[C:1]([C:2]([C:3]([H:12])([H:13])[H:16])([O:7]/[C:6](=[C:5](\[C:4][H:14])[H:15])[H:17])[H:11])([H:8])([H:9])[H:10]"
C       -1.94422021       0.14463964      -0.41795813
C       -0.84952758       0.45792555       0.57552218
C       -0.05736543      -0.74162744       1.07563276
C        1.16243703      -1.22764471      -0.74529067
C        1.68115802      -0.00918258      -0.95428773
C        1.34329794       1.08558290      -0.04704379
O        0.03843184       1.46112640       0.03288469
H       -2.70419273      -0.47400464       0.06418899
H       -1.53228117      -0.38226547      -1.27888012
H       -2.43395204       1.05933808      -0.75402934
H       -1.28150027       0.97910082       1.43655092
H       -0.45596185      -1.68633854       0.70813407
H       -0.20551232      -0.87435890       2.15119677
H        1.53615835      -2.08385040      -1.30862817
H        2.56666182       0.16074079      -1.56675705
H        1.19364269       0.14417837       1.20518050
H        1.94272591       1.98664012      -0.17641588
17
Frame=10 idx=009038 GeodesicLength=0.9980236156963161 rxn_smarts="[C:1]([C@@:2]1([H:11])[C:3]([H:12])([H:13])[C:4]([H:14])=[C:5]([H:15])[C:6]([H:16])([H:17])[O:7]1)([H:8])([H:9])[H:10]>>[C:1]([C:2]([C:3]([H:12])([H:13])[H:16])([O:7]/[C:6](=[C:5](\[C:4][H:14])[H:15])[H:17])[H:11])([H:8])([H:9])[H:10]"
C       -1.96507828       0.15304134      -0.40190638
C       -0.84515936       0.45158770       0.56632639
C       -0.05978615      -0.75749633       1.05329654
C        1.15981901      -1.22133673      -0.75111737
C        1.69634178      -0.00692645      -0.95848796
C        1.34828116       1.09195953      -0.06070129
O        0.03784149       1.44955892       0.00526164
H       -2.72099985      -0.45685453       0.09752153
H       -1.57591893      -0.37872185      -1.27050443
H       -2.45237334       1.07307803      -0.72681383
H       -1.24981835       0.97696968       1.43829183
H       -0.46157831      -1.69418519       0.66656165
H       -0.23706423      -0.91423251       2.12110519
H        1.58747045      -2.08566244      -1.26186184
H        2.60839614       0.14790925      -1.53450834
H        1.19749352       0.17155039       1.23061018
H        1.93213323       1.99976119      -0.21307350
17
Frame=11 idx=009038 GeodesicLength=1.0967912500554216 rxn_smarts="[C:1]([C@@:2]1([H:11])[C:3]([H:12])([H:13])[C:4]([H:14])=[C:5]([H:15])[C:6]([H:16])([H:17])[O:7]1)([H:8])([H:9])[H:10]>>[C:1]([C:2]([C:3]([H:12])([H:13])[H:16])([O:7]/[C:6](=[C:5](\[C:4][H:14])[H:15])[H:17])[H:11])([H:8])([H:9])[H:10]"
C       -1.98534219       0.16139251      -0.38548871
C       -0.84061858       0.44471824       0.55658244
C       -0.06208790      -0.77375128       1.03037681
C        1.15849756      -1.21539806      -0.75724293
C        1.71214536      -0.00480840      -0.96241843
C        1.35323994       1.09823034      -0.07454840
O        0.03740512       1.43722746      -0.02273081
H       -2.73655279      -0.43982348       0.13133691
H       -1.61969291      -0.37504490      -1.26149140
H       -2.46978124       1.08689126      -0.69903130
H       -1.21753112       0.97377970       1.43898098
H       -0.46690869      -1.70179725       0.62388394
H       -0.26815265      -0.95409650       2.08914579
H        1.63525319      -2.08535985      -1.21242746
H        2.64877963       0.13556700      -1.50114892
H        1.20003349       0.20028856       1.25625743
H        1.92131378       2.01198466      -0.25003594
17
Frame=12 idx=009038 GeodesicLength=1.195382677409604 rxn_smarts="[C:1]([C@@:2]1([H:11])[C:3]([H:12])([H:13])[C:4]([H:14])=[C:5]([H:15])[C:6]([H:16])([H:17])[O:7]1)([H:8])([H:9])[H:10]>>[C:1]([C:2]([C:3]([H:12])([H:13])[H:16])([O:7]/[C:6](=[C:5](\[C:4][H:14])[H:15])[H:17])[H:11])([H:8])([H:9])[H:10]"
C       -2.00486931       0.16959820      -0.36872871
C       -0.83591005       0.43733434       0.54634576
C       -0.06428957      -0.79032284       1.00706553
C        1.15861935      -1.20992315      -0.76318919
C        1.72855640      -0.00288872      -0.96589555
C        1.35814669       1.10441389      -0.08855842
O        0.03713406       1.42413134      -0.05103301
H       -2.75073538      -0.42299650       0.16556531
H       -1.66337692      -0.37136088      -1.25175408
H       -2.48601262       1.10063629      -0.67083375
H       -1.18480661       0.96959024       1.43857539
H       -0.47189628      -1.70910155       0.58034850
H       -0.29885099      -0.99377897       2.05554438
H        1.67895662      -2.08300794      -1.16180993
H        2.68787810       0.12368555      -1.46655610
H        1.20117776       0.23070403       1.28226486
H        1.91027876       2.02328667      -0.28735099
17
Frame=13 idx=009038 GeodesicLength=1.2938505171506027 rxn_smarts="[C:1]([C@@:2]1([H:11])[C:3]([H:12])([H:13])[C:4]([H:14])=[C:5]([H:15])[C:6]([H:16])([H:17])[O:7]1)([H:8])([H:9])[H:10]>>[C:1]([C:2]([C:3]([H:12])([H:13])[H:16])([O:7]/[C:6](=[C:5](\[C:4][H:14])[H:15])[H:17])[H:11])([H:8])([H:9])[H:10]"
C       -2.02359630       0.17768769      -0.35161828
C       -0.83105846       0.42944731       0.53569481
C       -0.06648202      -0.80721842       0.98343513
C        1.16013951      -1.20500225      -0.76874746
C        1.74547113      -0.00121463      -0.96888296
C        1.36298232       1.11046669      -0.10273463
O        0.03706246       1.41027495      -0.07950907
H       -2.76352163      -0.40633109       0.20012269
H       -1.70688716      -0.36763494      -1.24122443
H       -2.50093442       1.11433193      -0.64223996
H       -1.15176335       0.96437816       1.43711033
H       -0.47663922      -1.71605022       0.53603920
H       -0.32926681      -1.03323861       2.02041338
H        1.71906307      -2.07884807      -1.11047569
H        2.72545957       0.11237635      -1.43101261
H        1.20087170       0.26299280       1.30864470
H        1.89909960       2.03358234      -0.32501518
17
Frame=14 idx=009038 GeodesicLength=1.3922049460007462 rxn_smarts="[C:1]([C@@:2]1([H:11])[C:3]([H:12])([H:13])[C:4]([H:14])=[C:5]([H:15])[C:6]([H:16])([H:17])[O:7]1)([H:8])([H:9])[H:10]>>[C:1]([C:2]([C:3]([H:12])([H:13])[H:16])([O:7]/[C:6](=[C:5](\[C:4][H:14])[H:15])[H:17])[H:11])([H:8])([H:9])[H:10]"
C       -2.04141855       0.18560046      -0.33419057
C       -0.82607007       0.42107696       0.52469975
C       -0.06867979      -0.82439499       0.95965006
C        1.16308081      -1.20066830      -0.77354361
C        1.76286133       0.00017511      -0.97123033
C        1.36771667       1.11641583      -0.11706211
O        0.03718582       1.39568007      -0.10807548
H       -2.77483988      -0.38988486       0.23494837
H       -1.75004683      -0.36394017      -1.22986817
H       -2.51445075       1.12789363      -0.61339880
H       -1.11857304       0.95821270       1.43461338
H       -0.48107827      -1.72260956       0.49116220
H       -0.35943702      -1.07235234       1.98394467
H        1.75530753      -2.07310538      -1.05971101
H        2.76160432       0.10159339      -1.39433004
H        1.19907298       0.29746048       1.33549471
H        1.88776475       2.04284697      -0.36310302
17
Frame=15 idx=009038 GeodesicLength=1.4904693504811388 rxn_smarts="[C:1]([C@@:2]1([H:11])[C:3]([H:12])([H:13])[C:4]([H:14])=[C:5]([H:15])[C:6]([H:16])([H:17])[O:7]1)([H:8])([H:9])[H:10]>>[C:1]([C:2]([C:3]([H:12])([H:13])[H:16])([O:7]/[C:6](=[C:5](\[C:4][H:14])[H:15])[H:17])[H:11])([H:8])([H:9])[H:10]"
C       -2.05829138       0.19338281      -0.31645462
C       -0.82096423       0.41223175       0.51344686
C       -0.07095734      -0.84188799       0.93576973
C        1.16730903      -1.19695401      -0.77745020
C        1.78061386       0.00124867      -0.97291263
C        1.37232732       1.12222810      -0.13154628
O        0.03752109       1.38037382      -0.13657852
H       -2.78468830      -0.37361699       0.26996927
H       -1.79278389      -0.36020823      -1.21767176
H       -2.52648288       1.14137023      -0.58434943
H       -1.08536900       0.95108456       1.43117867
H       -0.48527686      -1.72877320       0.44577324
H       -0.38944290      -1.11113192       1.94622627
H        1.78823864      -2.06608095      -1.00980540
H        2.79615638       0.09144270      -1.35676114
H        1.19576129       0.33429596       1.36280654
H        1.87632917       2.05099469      -0.40164060
17
Frame=16 idx=009038 GeodesicLength=1.5886544273242351 rxn_smarts="[C:1]([C@@:2]1([H:11])[C:3]([H:12])([H:13])[C:4]([H:14])=[C:5]([H:15])[C:6]([H:16])([H:17])[O:7]1)([H:8])([H:9])[H:10]>>[C:1]([C:2]([C:3]([H:12])([H:13])[H:16])([O:7]/[C:6](=[C:5](\[C:4][H:14])[H:15])[H:17])[H:11])([H:8])([H:9])[H:10]"
C       -2.07418932       0.20108604      -0.29840878
C       -0.81575437       0.40290896       0.50201502
C       -0.07337771      -0.85975292       0.91180574
C        1.17265451      -1.19386898      -0.78043691
C        1.79860400       0.00199093      -0.97396019
C        1.37679074       1.12787331      -0.14621765
O        0.03807368       1.36439227      -0.16487387
H       -2.79307751      -0.35749287       0.30513301
H       -1.83506441      -0.35634456      -1.20463559
H       -2.53698555       1.15482303      -0.55509119
H       -1.05226008       0.94295647       1.42692489
H       -0.48929774      -1.73454862       0.39986914
H       -0.41932494      -1.14962430       1.90730102
H        1.81837815      -2.05801655      -0.96082899
H        2.82906642       0.08197970      -1.31842578
H        1.19094314       0.37368655       1.39051551
H        1.86482099       2.05795153      -0.44068539
