14
Frame=0 idx=011213 GeodesicLength=0.0 rxn_smarts="[N:1]#[C:2][C:3]1([H:8])[C:4]([H:9])([H:10])[C:5]([H:11])=[C:6]([H:12])[C:7]1([H:13])[H:14]>>[N+:1]1=[C-:2][C@:3]2([H:8])[C:4]([H:9])([H:10])[C@:6]([H:12])([C:5]=1[H:11])[C:7]2([H:13])[H:14]"
N        0.23940125       0.89587527      -1.66097249
C       -0.34214305       1.70437765      -0.83677558
C       -0.26795953       1.00161991       0.54884818
C        0.98927837       0.12710093       0.51984649
C        0.64855382      -0.36066838      -1.11659543
C       -0.28115713      -1.08457409      -0.35549536
C       -1.22145040      -0.19903462       0.42298383
H       -0.40521701       1.63749844       1.41792901
H        1.96618757       0.55625394       0.29252972
H        1.08390602      -0.55753360       1.36593127
H        1.46435432      -0.88394228      -1.60411330
H       -0.26959754      -2.16795910      -0.28122078
H       -2.16169250      -0.02085651      -0.10512995
H       -1.44246417      -0.64815760       1.39223437
14
Frame=1 idx=011213 GeodesicLength=0.10991753954327638 rxn_smarts="[N:1]#[C:2][C:3]1([H:8])[C:4]([H:9])([H:10])[C:5]([H:11])=[C:6]([H:12])[C:7]1([H:13])[H:14]>>[N+:1]1=[C-:2][C@:3]2([H:8])[C:4]([H:9])([H:10])[C@:6]([H:12])([C:5]=1[H:11])[C:7]2([H:13])[H:14]"
N        0.23059673       0.92008468      -1.66885376
C       -0.34617879       1.70773107      -0.82538843
C       -0.26494639       0.99842015       0.55147132
C        0.99295183       0.12348311       0.52078310
C        0.64874168      -0.37002984      -1.12031782
C       -0.27440679      -1.08963093      -0.34649384
C       -1.22260310      -0.20023997       0.41841534
H       -0.40333644       1.62879255       1.42418360
H        1.96635889       0.55836274       0.28855883
H        1.09848829      -0.54299857       1.37954049
H        1.45905660      -0.89817131      -1.61238634
H       -0.27083428      -2.17308136      -0.27576922
H       -2.15590316      -0.02121816      -0.12147821
H       -1.45798509      -0.64150416       1.38773494
14
Frame=2 idx=011213 GeodesicLength=0.21969647100142342 rxn_smarts="[N:1]#[C:2][C:3]1([H:8])[C:4]([H:9])([H:10])[C:5]([H:11])=[C:6]([H:12])[C:7]1([H:13])[H:14]>>[N+:1]1=[C-:2][C@:3]2([H:8])[C:4]([H:9])([H:10])[C@:6]([H:12])([C:5]=1[H:11])[C:7]2([H:13])[H:14]"
N        0.22153069       0.94521144      -1.67658676
C       -0.35017183       1.71109900      -0.81381732
C       -0.26190404       0.99510978       0.55410381
C        0.99669551       0.11980353       0.52178637
C        0.64899636      -0.37982417      -1.12387880
C       -0.26764416      -1.09475941      -0.33735009
C       -1.22370750      -0.20150310       0.41371494
H       -0.40151793       1.61985466       1.43047692
H        1.96645970       0.56048506       0.28445872
H        1.11342218      -0.52788228       1.39298333
H        1.45362992      -0.91290483      -1.62056539
H       -0.27227922      -2.17822022      -0.27018771
H       -2.14986422      -0.02168804      -0.13797641
H       -1.47364545      -0.63478143       1.38283840
14
Frame=3 idx=011213 GeodesicLength=0.329381293869208 rxn_smarts="[N:1]#[C:2][C:3]1([H:8])[C:4]([H:9])([H:10])[C:5]([H:11])=[C:6]([H:12])[C:7]1([H:13])[H:14]>>[N+:1]1=[C-:2][C@:3]2([H:8])[C:4]([H:9])([H:10])[C@:6]([H:12])([C:5]=1[H:11])[C:7]2([H:13])[H:14]"
N        0.21218171       0.97133145      -1.68415200
C       -0.35412964       1.71448429      -0.80204874
C       -0.25883122       0.99168339       0.55674503
C        1.00051211       0.11606052       0.52285521
C        0.64932876      -0.39008021      -1.12726703
C       -0.26087160      -1.09996835      -0.32805563
C       -1.22476188      -0.20282468       0.40887175
H       -0.39976227       1.61066901       1.43681214
H        1.96648317       0.56262084       0.28021368
H        1.12872064      -0.51216856       1.40622913
H        1.44807562      -0.92818130      -1.62863338
H       -0.27393252      -2.18337844      -0.26445057
H       -2.14356300      -0.02226453      -0.15464322
H       -1.48944987      -0.62798343       1.37752363
14
Frame=4 idx=011213 GeodesicLength=0.43901038546078863 rxn_smarts="[N:1]#[C:2][C:3]1([H:8])[C:4]([H:9])([H:10])[C:5]([H:11])=[C:6]([H:12])[C:7]1([H:13])[H:14]>>[N+:1]1=[C-:2][C@:3]2([H:8])[C:4]([H:9])([H:10])[C@:6]([H:12])([C:5]=1[H:11])[C:7]2([H:13])[H:14]"
N        0.20252453       0.99852952      -1.69152472
C       -0.35805913       1.71788949      -0.79006917
C       -0.25572647       0.98813513       0.55939411
C        1.00440469       0.11225204       0.52398770
C        0.64974919      -0.40082782      -1.13047177
C       -0.25409144      -1.10526624      -0.31860106
C       -1.22576364      -0.20420551       0.40387322
H       -0.39807011       1.60121840       1.44319269
H        1.96642182       0.56476849       0.27580533
H        1.14439741      -0.49584017       1.41924340
H        1.44239357      -0.94404389      -1.63656785
H       -0.27579280      -2.18855816      -0.25852828
H       -2.13698383      -0.02294685      -0.17150122
H       -1.50540380      -0.62110443       1.37176764
14
Frame=5 idx=011213 GeodesicLength=0.5485737427535904 rxn_smarts="[N:1]#[C:2][C:3]1([H:8])[C:4]([H:9])([H:10])[C:5]([H:11])=[C:6]([H:12])[C:7]1([H:13])[H:14]>>[N+:1]1=[C-:2][C@:3]2([H:8])[C:4]([H:9])([H:10])[C@:6]([H:12])([C:5]=1[H:11])[C:7]2([H:13])[H:14]"
N        0.19253910       1.02688619      -1.69867780
C       -0.36196599       1.72131468      -0.77786859
C       -0.25258876       0.98446015       0.56205007
C        1.00837541       0.10837636       0.52518343
C        0.65026642      -0.41209391      -1.13348315
C       -0.24730578      -1.11066199      -0.30897716
C       -1.22671154      -0.20564633       0.39870870
H       -0.39644247       1.59148867       1.44962052
H        1.96626910       0.56692509       0.27121747
H        1.16046214      -0.47888205       1.43199440
H        1.43658289      -0.96053017      -1.64435528
H       -0.27785535      -2.19376509      -0.25239050
H       -2.13011330      -0.02373316      -0.18856954
H       -1.52151188      -0.61413844       1.36554743
14
Frame=6 idx=011213 GeodesicLength=0.6581217433329243 rxn_smarts="[N:1]#[C:2][C:3]1([H:8])[C:4]([H:9])([H:10])[C:5]([H:11])=[C:6]([H:12])[C:7]1([H:13])[H:14]>>[N+:1]1=[C-:2][C@:3]2([H:8])[C:4]([H:9])([H:10])[C@:6]([H:12])([C:5]=1[H:11])[C:7]2([H:13])[H:14]"
N        0.18218798       1.05650638      -1.70557437
C       -0.36585697       1.72476336      -0.76542904
C       -0.24941607       0.98065126       0.56471095
C        1.01242864       0.10443085       0.52643916
C        0.65089478      -0.42391683      -1.13628789
C       -0.24051735      -1.11616577      -0.29917295
C       -1.22760234      -0.20714751       0.39336120
H       -0.39488007       1.58145681       1.45609949
H        1.96601484       0.56908946       0.26642522
H        1.17693157      -0.46127385       1.44443656
H        1.43064508      -0.97769522      -1.65196501
H       -0.28011678      -2.19900100      -0.24599746
H       -2.12293099      -0.02462091      -0.20587623
H       -1.53778235      -0.60707703       1.35883038
14
Frame=7 idx=011213 GeodesicLength=0.7677171002829075 rxn_smarts="[N:1]#[C:2][C:3]1([H:8])[C:4]([H:9])([H:10])[C:5]([H:11])=[C:6]([H:12])[C:7]1([H:13])[H:14]>>[N+:1]1=[C-:2][C@:3]2([H:8])[C:4]([H:9])([H:10])[C@:6]([H:12])([C:5]=1[H:11])[C:7]2([H:13])[H:14]"
N        0.17142983       1.08751575      -1.71216660
C       -0.36974063       1.72824176      -0.75273614
C       -0.24620579       0.97670107       0.56737327
C        1.01657016       0.10041364       0.52774951
C        0.65164910      -0.43633923      -1.13887238
C       -0.23372893      -1.12178928      -0.28917620
C       -1.22843305      -0.20870956       0.38781237
H       -0.39338344       1.57110130       1.46263134
H        1.96565056       0.57126003       0.26139982
H        1.19382019      -0.44299847       1.45652653
H        1.42458334      -0.99560313      -1.65936761
H       -0.28257155      -2.20427331      -0.23930353
H       -2.11541656      -0.02560996      -0.22345286
H       -1.55422323      -0.59991062       1.35158247
14
Frame=8 idx=011213 GeodesicLength=0.8773664070649144 rxn_smarts="[N:1]#[C:2][C:3]1([H:8])[C:4]([H:9])([H:10])[C:5]([H:11])=[C:6]([H:12])[C:7]1([H:13])[H:14]>>[N+:1]1=[C-:2][C@:3]2([H:8])[C:4]([H:9])([H:10])[C@:6]([H:12])([C:5]=1[H:11])[C:7]2([H:13])[H:14]"
N        0.16022612       1.12003632      -1.71839792
C       -0.37362241       1.73175009      -0.73977531
C       -0.24295682       0.97260246       0.57003337
C        1.02080412       0.09632269       0.52910998
C        0.65254144      -0.44940305      -1.14122474
C       -0.22694305      -1.12754309      -0.27897343
C       -1.22919996      -0.21033334       0.38204277
H       -0.39195415       1.56039845       1.46921764
H        1.96516438       0.57343437       0.25611166
H        1.21114298      -0.42403626       1.46821125
H        1.41839565      -1.01431429      -1.66653015
H       -0.28521208      -2.20958675      -0.23225944
H       -2.10754262      -0.02669836      -0.24133198
H       -1.57084359      -0.59262923       1.34376630
14
Frame=9 idx=011213 GeodesicLength=0.9875645229205247 rxn_smarts="[N:1]#[C:2][C:3]1([H:8])[C:4]([H:9])([H:10])[C:5]([H:11])=[C:6]([H:12])[C:7]1([H:13])[H:14]>>[N+:1]1=[C-:2][C@:3]2([H:8])[C:4]([H:9])([H:10])[C@:6]([H:12])([C:5]=1[H:11])[C:7]2([H:13])[H:14]"
N        0.14844634       1.15436363      -1.72417928
C       -0.37756581       1.73536671      -0.72647181
C       -0.23965451       0.96833819       0.57268393
C        1.02515824       0.09217303       0.53046924
C        0.65363054      -0.46323819      -1.14329446
C       -0.22015982      -1.13344683      -0.26854213
C       -1.22989539      -0.21201444       0.37599182
H       -0.39057269       1.54926822       1.47588941
H        1.96454034       0.57563632       0.25044437
H        1.22891999      -0.40437639       1.47939798
H        1.41212787      -1.03402486      -1.67332597
H       -0.28804517      -2.21495254      -0.22474658
H       -2.09926196      -0.02788449      -0.25960937
H       -1.58766798      -0.58520837       1.33529286
14
Frame=10 idx=011213 GeodesicLength=1.0978321517004574 rxn_smarts="[N:1]#[C:2][C:3]1([H:8])[C:4]([H:9])([H:10])[C:5]([H:11])=[C:6]([H:12])[C:7]1([H:13])[H:14]>>[N+:1]1=[C-:2][C@:3]2([H:8])[C:4]([H:9])([H:10])[C@:6]([H:12])([C:5]=1[H:11])[C:7]2([H:13])[H:14]"
N        0.13610243       1.19050369      -1.72944597
C       -0.38152671       1.73902952      -0.71285846
C       -0.23630695       0.96390980       0.57532108
C        1.02961962       0.08795027       0.53185697
C        0.65489248      -0.47782065      -1.14509779
C       -0.21338308      -1.13950513      -0.25787069
C       -1.23051755      -0.21375588       0.36966556
H       -0.38925663       1.53772814       1.48262068
H        1.96376803       0.57783440       0.24442725
H        1.24716255      -0.38398942       1.49006210
H        1.40574103      -1.05469982      -1.67979631
H       -0.29104528      -2.22037406      -0.21675438
H       -2.09055453      -0.02916419      -0.27828183
H       -1.60469542      -0.57764668       1.32615180
14
Frame=11 idx=011213 GeodesicLength=1.208100069256427 rxn_smarts="[N:1]#[C:2][C:3]1([H:8])[C:4]([H:9])([H:10])[C:5]([H:11])=[C:6]([H:12])[C:7]1([H:13])[H:14]>>[N+:1]1=[C-:2][C@:3]2([H:8])[C:4]([H:9])([H:10])[C@:6]([H:12])([C:5]=1[H:11])[C:7]2([H:13])[H:14]"
N        0.12313841       1.22859154      -1.73412823
C       -0.38551194       1.74274767      -0.69891583
C       -0.23291170       0.95931039       0.57794076
C        1.03419410       0.08365583       0.53326254
C        0.65634096      -0.49319632      -1.14661847
C       -0.20661544      -1.14572629      -0.24694605
C       -1.23106157      -0.21555675       0.36303847
H       -0.38800638       1.52574934       1.48941497
H        1.96283675       0.58002308       0.23801968
H        1.26588347      -0.36285991       1.50014589
H        1.39923818      -1.07641425      -1.68589465
H       -0.29420060      -2.22585686      -0.20822116
H       -2.08139023      -0.03053318      -0.29739119
H       -1.62193400      -0.56993430       1.31629329
14
Frame=12 idx=011213 GeodesicLength=1.318387098978749 rxn_smarts="[N:1]#[C:2][C:3]1([H:8])[C:4]([H:9])([H:10])[C:5]([H:11])=[C:6]([H:12])[C:7]1([H:13])[H:14]>>[N+:1]1=[C-:2][C@:3]2([H:8])[C:4]([H:9])([H:10])[C@:6]([H:12])([C:5]=1[H:11])[C:7]2([H:13])[H:14]"
N        0.10947649       1.26881516      -1.73812551
C       -0.38953383       1.74653279      -0.68461949
C       -0.22946494       0.95453128       0.58053624
C        1.03889229       0.07929247       0.53467047
C        0.65799646      -0.50943193      -1.14783348
C       -0.19985879      -1.15212246      -0.23574327
C       -1.23151976      -0.21741623       0.35607443
H       -0.38682180       1.51329241       1.49627615
H        1.96172937       0.58219747       0.23116434
H        1.28509992      -0.34096875       1.50957755
H        1.39262090      -1.09926874      -1.69156665
H       -0.29750245      -2.23140848      -0.19906128
H       -2.07171629      -0.03198975      -0.31699993
H       -1.63939758      -0.56205523       1.30565042
14
Frame=13 idx=011213 GeodesicLength=1.4286212687587376 rxn_smarts="[N:1]#[C:2][C:3]1([H:8])[C:4]([H:9])([H:10])[C:5]([H:11])=[C:6]([H:12])[C:7]1([H:13])[H:14]>>[N+:1]1=[C-:2][C@:3]2([H:8])[C:4]([H:9])([H:10])[C@:6]([H:12])([C:5]=1[H:11])[C:7]2([H:13])[H:14]"
N        0.09504114       1.31134349      -1.74133256
C       -0.39359620       1.75039456      -0.66995194
C       -0.22596349       0.94956568       0.58309968
C        1.04372352       0.07486274       0.53606698
C        0.65987525      -0.52658897      -1.14872126
C       -0.19311487      -1.15870390      -0.22424345
C       -1.23188536      -0.21933278       0.34873980
H       -0.38570406       1.50032507       1.50320429
H        1.96043167       0.58435046       0.22380956
H        1.30482375      -0.31830139       1.51828794
H        1.38589164      -1.12335219      -1.69676054
H       -0.30093514      -2.23703933      -0.18919554
H       -2.06149164      -0.03352975      -0.33716247
H       -1.65709620      -0.55399369       1.29415951
14
Frame=14 idx=011213 GeodesicLength=1.538795093344678 rxn_smarts="[N:1]#[C:2][C:3]1([H:8])[C:4]([H:9])([H:10])[C:5]([H:11])=[C:6]([H:12])[C:7]1([H:13])[H:14]>>[N+:1]1=[C-:2][C@:3]2([H:8])[C:4]([H:9])([H:10])[C@:6]([H:12])([C:5]=1[H:11])[C:7]2([H:13])[H:14]"
N        0.07973207       1.35639635      -1.74360505
C       -0.39771312       1.75434617      -0.65488532
C       -0.22240251       0.94440440       0.58561980
C        1.04870001       0.07037152       0.53742807
C        0.66200146      -0.54474874      -1.14925484
C       -0.18638538      -1.16548240      -0.21241791
C       -1.23214757      -0.22130487       0.34098779
H       -0.38465148       1.48679928       1.51020035
H        1.95892389       0.58647677       0.21588207
H        1.32507460      -0.29483370       1.52618766
H        1.37905461      -1.14878878      -1.70140090
H       -0.30449053      -2.24275669      -0.17852210
H       -2.05064891      -0.03514871      -0.35795461
H       -1.67504713      -0.54573061       1.28173498
14
Frame=15 idx=011213 GeodesicLength=1.6488570878519522 rxn_smarts="[N:1]#[C:2][C:3]1([H:8])[C:4]([H:9])([H:10])[C:5]([H:11])=[C:6]([H:12])[C:7]1([H:13])[H:14]>>[N+:1]1=[C-:2][C@:3]2([H:8])[C:4]([H:9])([H:10])[C@:6]([H:12])([C:5]=1[H:11])[C:7]2([H:13])[H:14]"
N        0.06343712       1.40419752      -1.74477366
C       -0.40189148       1.75839880      -0.63939994
C       -0.21877680       0.93903947       0.58808149
C        1.05383612       0.06582484       0.53873032
C        0.66439871      -0.56399547      -1.14940475
C       -0.17967183      -1.17246956      -0.20023961
C       -1.23229426      -0.22332961       0.33276875
H       -0.38366431       1.47267081       1.51725832
H        1.95718528       0.58856898       0.20730753
H        1.34586787      -0.27054687       1.53318571
H        1.37211548      -1.17570335      -1.70541239
H       -0.30815717      -2.24857108      -0.16693533
H       -2.03912190      -0.03684143      -0.37945290
H       -1.69326284      -0.53724307       1.26828648
14
Frame=16 idx=011213 GeodesicLength=1.7587624423703954 rxn_smarts="[N:1]#[C:2][C:3]1([H:8])[C:4]([H:9])([H:10])[C:5]([H:11])=[C:6]([H:12])[C:7]1([H:13])[H:14]>>[N+:1]1=[C-:2][C@:3]2([H:8])[C:4]([H:9])([H:10])[C@:6]([H:12])([C:5]=1[H:11])[C:7]2([H:13])[H:14]"
N        0.04601775       1.45499675      -1.74462987
C       -0.40613613       1.76256007      -0.62347633
C       -0.21507927       0.93346280       0.59046649
C        1.05914698       0.06123002       0.53994836
C        0.66709680      -0.58442489      -1.14913978
C       -0.17297477      -1.17967837      -0.18767713
C       -1.23231179      -0.22540194       0.32402670
H       -0.38274087       1.45789222       1.52436756
H        1.95519138       0.59061711       0.19800183
H        1.36722013      -0.24541575       1.53917708
H        1.36508553      -1.20423996      -1.70871046
H       -0.31192505      -2.25449662      -0.15431764
H       -2.02683124      -0.03859770      -0.40174682
H       -1.71175944      -0.52850375       1.25371002
