16
Frame=0 idx=006487 GeodesicLength=0.0 rxn_smarts="[C:1]([C@@:2]([C:3]([O:4][H:14])([H:12])[H:13])([N:5]([C:6](=[O:7])[H:16])[H:15])[H:11])([H:8])([H:9])[H:10]>>[C:1]([C@@:2]([C:3](=[O:4])[H:12])(/[N:5]=[C:6](\[O:7][H:14])[H:16])[H:11])([H:8])([H:9])[H:10].[H:13][H:15]"
C       -1.12837791       1.54422880      -0.13633841
C       -0.20514787       0.43630403       0.33239719
C       -0.84356699      -0.92213431       0.21043502
O       -0.26311165      -1.94333855       0.72571199
N        1.01125700       0.42817173      -0.46887507
C        2.02356846      -0.27720864       0.01152366
O        2.02534278      -1.00237519       1.03729559
H       -0.61353008       2.50038687      -0.05919443
H       -2.04152447       1.58703019       0.46068510
H       -1.39810777       1.39782745      -1.18482917
H        0.03706276       0.55634838       1.39538633
H       -1.92374509      -1.02691970       0.08296632
H       -0.53412965      -0.94628825      -1.39716299
H        0.71478586      -1.65784563       0.99003832
H        0.20064197      -0.45484788      -1.40947326
H        2.93858263      -0.21933929      -0.59056617
16
Frame=1 idx=006487 GeodesicLength=0.08671682748680962 rxn_smarts="[C:1]([C@@:2]([C:3]([O:4][H:14])([H:12])[H:13])([N:5]([C:6](=[O:7])[H:16])[H:15])[H:11])([H:8])([H:9])[H:10]>>[C:1]([C@@:2]([C:3](=[O:4])[H:12])(/[N:5]=[C:6](\[O:7][H:14])[H:16])[H:11])([H:8])([H:9])[H:10].[H:13][H:15]"
C       -1.12907928       1.54431877      -0.13497237
C       -0.20734369       0.43565630       0.33513303
C       -0.84665726      -0.92435887       0.20869096
O       -0.27288919      -1.94159407       0.74190752
N        1.01013418       0.42701224      -0.46751086
C        2.02529857      -0.27289592       0.01305251
O        2.02629934      -1.01319476       1.02969218
H       -0.61247043       2.50002116      -0.06257560
H       -2.04062136       1.58891308       0.46422788
H       -1.40308890       1.39616819      -1.18210801
H        0.03271863       0.55641178       1.39838642
H       -1.92833420      -1.02004278       0.08513277
H       -0.52968751      -0.95640183      -1.40496720
H        0.72300786      -1.66007778       0.99502017
H        0.21324200      -0.44582519      -1.42911130
H        2.93947124      -0.21411032      -0.58999808
16
Frame=2 idx=006487 GeodesicLength=0.17342152172840974 rxn_smarts="[C:1]([C@@:2]([C:3]([O:4][H:14])([H:12])[H:13])([N:5]([C:6](=[O:7])[H:16])[H:15])[H:11])([H:8])([H:9])[H:10]>>[C:1]([C@@:2]([C:3](=[O:4])[H:12])(/[N:5]=[C:6](\[O:7][H:14])[H:16])[H:11])([H:8])([H:9])[H:10].[H:13][H:15]"
C       -1.12979331       1.54436539      -0.13359859
C       -0.20957197       0.43496874       0.33792455
C       -0.84981577      -0.92664050       0.20708050
O       -0.28290114      -1.93956108       0.75843890
N        1.00892532       0.42570185      -0.46619534
C        2.02693973      -0.26869329       0.01455378
O        2.02724007      -1.02417811       1.02172650
H       -0.61140457       2.49958045      -0.06601742
H       -2.03971182       1.59079931       0.46778706
H       -1.40810605       1.39441988      -1.17934631
H        0.02841362       0.55652349       1.40140972
H       -1.93289009      -1.01315976       0.08722480
H       -0.52497522      -0.96675024      -1.41264668
H        0.73120794      -1.66246705       1.00010016
H        0.22612157      -0.43619781      -1.44907546
H        2.94032169      -0.20871127      -0.58936617
16
Frame=3 idx=006487 GeodesicLength=0.2601010021851613 rxn_smarts="[C:1]([C@@:2]([C:3]([O:4][H:14])([H:12])[H:13])([N:5]([C:6](=[O:7])[H:16])[H:15])[H:11])([H:8])([H:9])[H:10]>>[C:1]([C@@:2]([C:3](=[O:4])[H:12])(/[N:5]=[C:6](\[O:7][H:14])[H:16])[H:11])([H:8])([H:9])[H:10].[H:13][H:15]"
C       -1.13052138       1.54436605      -0.13221949
C       -0.21183282       0.43424146       0.34077226
C       -0.85304393      -0.92898159       0.20561803
O       -0.29314224      -1.93723257       0.77529420
N        1.00762678       0.42423268      -0.46493407
C        2.02848834      -0.26460392       0.01602764
O        2.02815563      -1.03533848       1.01337981
H       -0.61033491       2.49906102      -0.06952524
H       -2.03879748       1.59268661       0.47135897
H       -1.41315953       1.39257787      -1.17654512
H        0.02415165       0.55669032       1.40445538
H       -1.93741320      -1.00627791       0.08924693
H       -0.51999330      -0.97733015      -1.42018949
H        0.73938535      -1.66500971       1.00529304
H        0.23929984      -0.42593425      -1.46936647
H        2.94113121      -0.20314743      -0.58866638
16
Frame=4 idx=006487 GeodesicLength=0.3467658242143787 rxn_smarts="[C:1]([C@@:2]([C:3]([O:4][H:14])([H:12])[H:13])([N:5]([C:6](=[O:7])[H:16])[H:15])[H:11])([H:8])([H:9])[H:10]>>[C:1]([C@@:2]([C:3](=[O:4])[H:12])(/[N:5]=[C:6](\[O:7][H:14])[H:16])[H:11])([H:8])([H:9])[H:10].[H:13][H:15]"
C       -1.13126400       1.54431754      -0.13083866
C       -0.21412600       0.43347347       0.34367537
C       -0.85634371      -0.93138523       0.20431809
O       -0.30360605      -1.93460511       0.79245827
N        1.00623522       0.42259491      -0.46373374
C        2.02994045      -0.26063451       0.01747220
O        2.02903624      -1.04669085       1.00462913
H       -0.60926192       2.49845855      -0.07310606
H       -2.03787825       1.59457361       0.47493919
H       -1.41824964       1.39063648      -1.17370641
H        0.01993735       0.55691811       1.40752109
H       -1.94190549      -0.99940395       0.09121029
H       -0.51475459      -0.98814114      -1.42758352
H        0.74753920      -1.66770022       1.01061741
H        0.25280245      -0.41499635      -1.48998678
H        2.94189873      -0.19741529      -0.58788585
16
Frame=5 idx=006487 GeodesicLength=0.4334104922499858 rxn_smarts="[C:1]([C@@:2]([C:3]([O:4][H:14])([H:12])[H:13])([N:5]([C:6](=[O:7])[H:16])[H:15])[H:11])([H:8])([H:9])[H:10]>>[C:1]([C@@:2]([C:3](=[O:4])[H:12])(/[N:5]=[C:6](\[O:7][H:14])[H:16])[H:11])([H:8])([H:9])[H:10].[H:13][H:15]"
C       -1.13202141       1.54421657      -0.12945991
C       -0.21645131       0.43266352       0.34663298
C       -0.85971757      -0.93385445       0.20319514
O       -0.31428546      -1.93167843       0.80991195
N        1.00474717       0.42077838      -0.46260110
C        2.03129177      -0.25679085       0.01888611
O        2.02987216      -1.05824873       0.99545655
H       -0.60818567       2.49776801      -0.07676769
H       -2.03695403       1.59645938       0.47852380
H       -1.42337664       1.38858936      -1.17083266
H        0.01577494       0.55721194       1.41060463
H       -1.94636991      -0.99254390       0.09312847
H       -0.50927532      -0.99918100      -1.43481882
H        0.75566880      -1.67053124       1.01609291
H        0.26665644      -0.40334662      -1.51093708
H        2.94262604      -0.19151196      -0.58701529
16
Frame=6 idx=006487 GeodesicLength=0.5200599560036335 rxn_smarts="[C:1]([C@@:2]([C:3]([O:4][H:14])([H:12])[H:13])([N:5]([C:6](=[O:7])[H:16])[H:15])[H:11])([H:8])([H:9])[H:10]>>[C:1]([C@@:2]([C:3](=[O:4])[H:12])(/[N:5]=[C:6](\[O:7][H:14])[H:16])[H:11])([H:8])([H:9])[H:10].[H:13][H:15]"
C       -1.13279372       1.54405911      -0.12808791
C       -0.21880842       0.43180962       0.34964327
C       -0.86316771      -0.93639288       0.20226399
O       -0.32517449      -1.92845469       0.82763393
N        1.00315992       0.41877335      -0.46154259
C        2.03253861      -0.25308052       0.02026885
O        2.03065228      -1.07003100       0.98583209
H       -0.60710597       2.49698361      -0.08051988
H       -2.03602382       1.59834292       0.48210773
H       -1.42854107       1.38642921      -1.16792699
H        0.01166861       0.55757609       1.41370285
H       -1.95080950      -0.98570272       0.09501808
H       -0.50358354      -1.01045299      -1.44188537
H        0.76377771      -1.67348997       1.02174782
H        0.28089561      -0.39093795      -1.53221853
H        2.94331549      -0.18543120      -0.58603735
16
Frame=7 idx=006487 GeodesicLength=0.6067233100670151 rxn_smarts="[C:1]([C@@:2]([C:3]([O:4][H:14])([H:12])[H:13])([N:5]([C:6](=[O:7])[H:16])[H:15])[H:11])([H:8])([H:9])[H:10]>>[C:1]([C@@:2]([C:3](=[O:4])[H:12])(/[N:5]=[C:6](\[O:7][H:14])[H:16])[H:11])([H:8])([H:9])[H:10].[H:13][H:15]"
C       -1.13358041       1.54384107      -0.12672806
C       -0.22119698       0.43090937       0.35270423
C       -0.86669769      -0.93900361       0.20153836
O       -0.33626648      -1.92494103       0.84560221
N        1.00147091       0.41657004      -0.46056339
C        2.03367639      -0.24951294       0.02161878
O        2.03136577      -1.08205424       0.97573004
H       -0.60602164       2.49609979      -0.08437213
H       -2.03508648       1.60022411       0.48568609
H       -1.43374250       1.38414834      -1.16499307
H        0.00762135       0.55801367       1.41681280
H       -1.95522841      -0.97888536       0.09689913
H       -0.49771081      -1.02196220      -1.44877419
H        0.77186884      -1.67656150       1.02761185
H        0.29555727      -0.37772023      -1.55383461
H        2.94397088      -0.17916530      -0.58493805
16
Frame=8 idx=006487 GeodesicLength=0.6934128053070377 rxn_smarts="[C:1]([C@@:2]([C:3]([O:4][H:14])([H:12])[H:13])([N:5]([C:6](=[O:7])[H:16])[H:15])[H:11])([H:8])([H:9])[H:10]>>[C:1]([C@@:2]([C:3](=[O:4])[H:12])(/[N:5]=[C:6](\[O:7][H:14])[H:16])[H:11])([H:8])([H:9])[H:10].[H:13][H:15]"
C       -1.13438051       1.54355762      -0.12538642
C       -0.22361654       0.42995934       0.35581278
C       -0.87031267      -0.94169013       0.20103443
O       -0.34755372      -1.92114630       0.86379584
N        0.99967616       0.41415365      -0.45967394
C        2.03469956      -0.24610035       0.02293129
O        2.03199879      -1.09434208       0.96511196
H       -0.60492966       2.49510818      -0.08833883
H       -2.03413842       1.60210446       0.48925413
H       -1.43898264       1.38173726      -1.16203451
H        0.00363954       0.55852781       1.41992916
H       -1.95963277      -0.97209595       0.09879430
H       -0.49169478      -1.03371824      -1.45547577
H        0.77994802      -1.67972833       1.03372031
H        0.31068353      -0.36362976      -1.57578688
H        2.94459611      -0.17269720      -0.58368785
16
Frame=9 idx=006487 GeodesicLength=0.7800595103124941 rxn_smarts="[C:1]([C@@:2]([C:3]([O:4][H:14])([H:12])[H:13])([N:5]([C:6](=[O:7])[H:16])[H:15])[H:11])([H:8])([H:9])[H:10]>>[C:1]([C@@:2]([C:3](=[O:4])[H:12])(/[N:5]=[C:6](\[O:7][H:14])[H:16])[H:11])([H:8])([H:9])[H:10].[H:13][H:15]"
C       -1.13519530       1.54320447      -0.12406821
C       -0.22606781       0.42895852       0.35896896
C       -0.87401567      -0.94445458       0.20076607
O       -0.35902994      -1.91707683       0.88219644
N        0.99777185       0.41151639      -0.45887838
C        2.03560302      -0.24284908       0.02421056
O        2.03253560      -1.10691682       0.95393853
H       -0.60383105       2.49400386      -0.09242901
H       -2.03318096       1.60398300       0.49280689
H       -1.44426217       1.37918765      -1.15905516
H       -0.00027576       0.55912217       1.42305110
H       -1.96402435      -0.96534085       0.10071792
H       -0.48555120      -1.04572177      -1.46198238
H        0.78802155      -1.68296741       1.04011220
H        0.32631033      -0.34861664      -1.59807282
H        2.94519188      -0.16603209      -0.58228272
16
Frame=10 idx=006487 GeodesicLength=0.8667589743659803 rxn_smarts="[C:1]([C@@:2]([C:3]([O:4][H:14])([H:12])[H:13])([N:5]([C:6](=[O:7])[H:16])[H:15])[H:11])([H:8])([H:9])[H:10]>>[C:1]([C@@:2]([C:3](=[O:4])[H:12])(/[N:5]=[C:6](\[O:7][H:14])[H:16])[H:11])([H:8])([H:9])[H:10].[H:13][H:15]"
C       -1.13602254       1.54277496      -0.12278245
C       -0.22854941       0.42790074       0.36216568
C       -0.87781289      -0.94730170       0.20074952
O       -0.37069276      -1.91274753       0.90079163
N        0.99575654       0.40864298      -0.45818482
C        2.03638136      -0.23977788       0.02544736
O        2.03296030      -1.11980732       0.94216647
H       -0.60272124       2.49277597      -0.09666256
H       -2.03220743       1.60586192       0.49633775
H       -1.44958324       1.37648662      -1.15606052
H       -0.00411753       0.55979773       1.42616964
H       -1.96841248      -0.95862066       0.10270145
H       -0.47935193      -1.05801110      -1.46828206
H        0.79610565      -1.68625836       1.04682225
H        0.34250083      -0.33257303      -1.62070080
H        2.94576679      -0.15914334      -0.58067854
16
Frame=11 idx=006487 GeodesicLength=0.953507186171439 rxn_smarts="[C:1]([C@@:2]([C:3]([O:4][H:14])([H:12])[H:13])([N:5]([C:6](=[O:7])[H:16])[H:15])[H:11])([H:8])([H:9])[H:10]>>[C:1]([C@@:2]([C:3](=[O:4])[H:12])(/[N:5]=[C:6](\[O:7][H:14])[H:16])[H:11])([H:8])([H:9])[H:10].[H:13][H:15]"
C       -1.13686245       1.54226279      -0.12153734
C       -0.23106146       0.42678190       0.36539868
C       -0.88171094      -0.95023474       0.20100119
O       -0.38254003      -1.90816803       0.91957397
N        0.99362660       0.40552018      -0.45760121
C        2.03702776      -0.23690187       0.02663990
O        2.03325147      -1.13304503       0.92974920
H       -0.60159906       2.49141552      -0.10105677
H       -2.03121499       1.60774259       0.49984158
H       -1.45494971       1.37362086      -1.15305544
H       -0.00788110       0.56055701       1.42927847
H       -1.97280351      -0.95193909       0.10476740
H       -0.47313992      -1.07061654      -1.47436205
H        0.80421530      -1.68957741       1.05388813
H        0.35931370      -0.31539683      -1.64367200
H        2.94632833      -0.15202132      -0.57885372
16
Frame=12 idx=006487 GeodesicLength=1.0403117637985198 rxn_smarts="[C:1]([C@@:2]([C:3]([O:4][H:14])([H:12])[H:13])([N:5]([C:6](=[O:7])[H:16])[H:15])[H:11])([H:8])([H:9])[H:10]>>[C:1]([C@@:2]([C:3](=[O:4])[H:12])(/[N:5]=[C:6](\[O:7][H:14])[H:16])[H:11])([H:8])([H:9])[H:10].[H:13][H:15]"
C       -1.13771559       1.54166020      -0.12034276
C       -0.23360387       0.42559743       0.36866283
C       -0.88571577      -0.95325801       0.20154071
O       -0.39457101      -1.90334323       0.93854481
N        0.99137800       0.40213269      -0.45713602
C        2.03753462      -0.23423898       0.02778374
O        2.03338354      -1.14667148       0.91662280
H       -0.60046320       2.48991153      -0.10563395
H       -2.03020011       1.60962593       0.50331168
H       -1.46036649       1.37057366      -1.15004643
H       -0.01155977       0.56140396       1.43237001
H       -1.97720371      -0.94530034       0.10694152
H       -0.46696491      -1.08358132      -1.48020480
H        0.81236890      -1.69290028       1.06134752
H        0.37681849      -0.29695834      -1.66698883
H        2.94688089      -0.14465341      -0.57677282
16
Frame=13 idx=006487 GeodesicLength=1.1271370650586154 rxn_smarts="[C:1]([C@@:2]([C:3]([O:4][H:14])([H:12])[H:13])([N:5]([C:6](=[O:7])[H:16])[H:15])[H:11])([H:8])([H:9])[H:10]>>[C:1]([C@@:2]([C:3](=[O:4])[H:12])(/[N:5]=[C:6](\[O:7][H:14])[H:16])[H:11])([H:8])([H:9])[H:10].[H:13][H:15]"
C       -1.13858313       1.54095945      -0.11920902
C       -0.23617712       0.42434300       0.37195311
C       -0.88983515      -0.95637480       0.20238696
O       -0.40678520      -1.89828169       0.95771019
N        0.98900609       0.39846448      -0.45679905
C        2.03789299      -0.23180827       0.02887740
O        2.03332764      -1.16072654       0.90272713
H       -0.59931273       2.48825331      -0.11041702
H       -2.02915980       1.61151390       0.50674195
H       -1.46583956       1.36732782      -1.14703951
H       -0.01514733       0.56234293       1.43543628
H       -1.98162037      -0.93870852       0.10924602
H       -0.46086698      -1.09694949      -1.48579284
H        0.82058840      -1.69620124       1.06923769
H        0.39508384      -0.27712137      -1.69064758
H        2.94742839      -0.13703297      -0.57441171
16
Frame=14 idx=006487 GeodesicLength=1.2139848628146157 rxn_smarts="[C:1]([C@@:2]([C:3]([O:4][H:14])([H:12])[H:13])([N:5]([C:6](=[O:7])[H:16])[H:15])[H:11])([H:8])([H:9])[H:10]>>[C:1]([C@@:2]([C:3](=[O:4])[H:12])(/[N:5]=[C:6](\[O:7][H:14])[H:16])[H:11])([H:8])([H:9])[H:10].[H:13][H:15]"
C       -1.13946750       1.54015046      -0.11814992
C       -0.23878146       0.42301365       0.37526191
C       -0.89407640      -0.95958991       0.20356440
O       -0.41918154      -1.89298243       0.97708740
N        0.98650634       0.39449759      -0.45660087
C        2.03809261      -0.22963332       0.02991798
O        2.03304246      -1.17526984       0.88797033
H       -0.59814848       2.48642687      -0.11543817
H       -2.02808997       1.61340789       0.51012387
H       -1.47137846       1.36386009      -1.14404251
H       -0.01863515       0.56338108       1.43846603
H       -1.98606040      -0.93216924       0.11170994
H       -0.45489616      -1.11078724      -1.49109857
H        0.82890217      -1.69945170       1.07759651
H        0.41419729      -0.25570197      -1.71464331
H        2.94797466      -0.12915197      -0.57172500
16
Frame=15 idx=006487 GeodesicLength=1.3008145545789838 rxn_smarts="[C:1]([C@@:2]([C:3]([O:4][H:14])([H:12])[H:13])([N:5]([C:6](=[O:7])[H:16])[H:15])[H:11])([H:8])([H:9])[H:10]>>[C:1]([C@@:2]([C:3](=[O:4])[H:12])(/[N:5]=[C:6](\[O:7][H:14])[H:16])[H:11])([H:8])([H:9])[H:10].[H:13][H:15]"
C       -1.14037232       1.53922293      -0.11717989
C       -0.24141780       0.42160530       0.37858261
C       -0.89844726      -0.96290740       0.20509798
O       -0.43175729      -1.88744549       0.99669830
N        0.98387375       0.39021540      -0.45655060
C        2.03812130      -0.22773975       0.03090364
O        2.03248075      -1.19035464       0.87227063
H       -0.59697322       2.48441874      -0.12072983
H       -2.02698878       1.61530915       0.51344766
H       -1.47699268       1.36014579      -1.14106403
H       -0.02201671       0.56452685       1.44144888
H       -1.99053108      -0.92568858       0.11436043
H       -0.44909352      -1.12516144      -1.49609317
H        0.83734481      -1.70262408       1.08645516
H        0.43424877      -0.23250473      -1.73896477
H        2.94852125      -0.12101805      -0.56868299
16
Frame=16 idx=006487 GeodesicLength=1.3875929727556195 rxn_smarts="[C:1]([C@@:2]([C:3]([O:4][H:14])([H:12])[H:13])([N:5]([C:6](=[O:7])[H:16])[H:15])[H:11])([H:8])([H:9])[H:10]>>[C:1]([C@@:2]([C:3](=[O:4])[H:12])(/[N:5]=[C:6](\[O:7][H:14])[H:16])[H:11])([H:8])([H:9])[H:10].[H:13][H:15]"
C       -1.14130252       1.53816396      -0.11631751
C       -0.24408728       0.42011295       0.38190574
C       -0.90295692      -0.96633267       0.20701915
O       -0.44450760      -1.88166391       1.01657478
N        0.98110149       0.38559463      -0.45666317
C        2.03796413      -0.22615904       0.03183226
O        2.03158328      -1.20604790       0.85552374
H       -0.59578970       2.48221188      -0.12633569
H       -2.02585322       1.61721946       0.51670246
H       -1.48269655       1.35615281      -1.13811511
H       -0.02528149       0.56579229       1.44437004
H       -1.99504078      -0.91927426       0.11723298
H       -0.44350470      -1.14015572      -1.50073896
H        0.84595480      -1.70569163       1.09584165
H        0.45534787      -0.20728492      -1.76359062
H        2.94906917      -0.11263794      -0.56524173
