16
Frame=0 idx=007189 GeodesicLength=0.0 rxn_smarts="[C:1]([c:2]1[c:3]([H:11])[c:4]([H:12])[c:5]([C:6]([H:13])([H:14])[H:15])[n:7]1[H:16])([H:8])([H:9])[H:10]>>[C:1](=[C:2]1[C:3]([H:11])=[C:4]([H:12])[C@@:5]([C:6]([H:13])([H:14])[H:15])([H:8])[N:7]1[H:16])([H:9])[H:10]"
C       -2.03693000      -0.36957923       0.29212920
C       -1.28619176       0.22204548      -0.73175493
C       -0.78309782       1.54022265      -0.48309598
C        0.47302146       1.32996095      -0.00637386
C        0.71880209      -0.08718028      -0.03077964
C        2.06123178      -0.71886514       0.15507931
N       -0.17477014      -0.57910079      -1.01963397
H       -0.54431807      -0.38818915       0.97292237
H       -2.78827385       0.21128714       0.81757512
H       -2.23550890      -1.43845962       0.26652950
H       -1.38701058       2.42953063      -0.38569836
H        1.13085297       2.05209267       0.45536299
H        2.71026396      -0.53338451      -0.70388847
H        2.54052733      -0.30587245       1.04285414
H        1.97175040      -1.79793413       0.29082678
H       -0.37034882      -1.56657422      -0.93205423
16
Frame=1 idx=007189 GeodesicLength=0.05395962840223574 rxn_smarts="[C:1]([c:2]1[c:3]([H:11])[c:4]([H:12])[c:5]([C:6]([H:13])([H:14])[H:15])[n:7]1[H:16])([H:8])([H:9])[H:10]>>[C:1](=[C:2]1[C:3]([H:11])=[C:4]([H:12])[C@@:5]([C:6]([H:13])([H:14])[H:15])([H:8])[N:7]1[H:16])([H:9])[H:10]"
C       -2.04924721      -0.37053559       0.29319604
C       -1.28648601       0.21978994      -0.72548285
C       -0.77912916       1.53740263      -0.48216622
C        0.47856191       1.32945801      -0.00427085
C        0.72122194      -0.08900265      -0.01682605
C        2.06889430      -0.71544784       0.15251032
N       -0.17174810      -0.57906062      -1.00827259
H       -0.55095727      -0.40384216       0.99323499
H       -2.80412091       0.21843576       0.80419333
H       -2.26730964      -1.43492361       0.24751765
H       -1.38462033       2.42533913      -0.38114764
H        1.13572153       2.05449533       0.45372347
H        2.70308165      -0.53995067      -0.71957572
H        2.56404745      -0.29074705       1.02598483
H        1.98450472      -1.79310838       0.30243780
H       -0.36241487      -1.56830224      -0.93505651
16
Frame=2 idx=007189 GeodesicLength=0.10786152123397709 rxn_smarts="[C:1]([c:2]1[c:3]([H:11])[c:4]([H:12])[c:5]([C:6]([H:13])([H:14])[H:15])[n:7]1[H:16])([H:8])([H:9])[H:10]>>[C:1](=[C:2]1[C:3]([H:11])=[C:4]([H:12])[C@@:5]([C:6]([H:13])([H:14])[H:15])([H:8])[N:7]1[H:16])([H:9])[H:10]"
C       -2.06155508      -0.37158050       0.29433423
C       -1.28681642       0.21741654      -0.71905653
C       -0.77522313       1.53447836      -0.48125658
C        0.48416107       1.32896488      -0.00245736
C        0.72372504      -0.09073617      -0.00292896
C        2.07641627      -0.71196810       0.14998972
N       -0.16877835      -0.57911291      -0.99677414
H       -0.55756906      -0.42003326       1.01360560
H       -2.81932253       0.22561956       0.79115531
H       -2.29909965      -1.43070597       0.22812212
H       -1.38227715       2.42103502      -0.37660847
H        1.14048898       2.05690511       0.45198416
H        2.69571129      -0.54661691      -0.73472201
H        2.58696260      -0.27566710       1.00880421
H        1.99743708      -1.78804563       0.31400533
H       -0.35426096      -1.56995291      -0.93819664
16
Frame=3 idx=007189 GeodesicLength=0.16170803820135618 rxn_smarts="[C:1]([c:2]1[c:3]([H:11])[c:4]([H:12])[c:5]([C:6]([H:13])([H:14])[H:15])[n:7]1[H:16])([H:8])([H:9])[H:10]>>[C:1](=[C:2]1[C:3]([H:11])=[C:4]([H:12])[C@@:5]([C:6]([H:13])([H:14])[H:15])([H:8])[N:7]1[H:16])([H:9])[H:10]"
C       -2.07385931      -0.37272064       0.29553024
C       -1.28718469       0.21492534      -0.71248198
C       -0.77138533       1.53145053      -0.48037752
C        0.48981442       1.32848416      -0.00094657
C        0.72631162      -0.09237174       0.01090170
C        2.08379560      -0.70842855       0.14752667
N       -0.16586089      -0.57925565      -0.98514631
H       -0.56415126      -0.43679228       1.03401886
H       -2.83386443       0.23283280       0.77850638
H       -2.33086260      -1.42578296       0.20835985
H       -1.37998737       2.41661752      -0.37208395
H        1.14514687       2.05932781       0.45013633
H        2.68817184      -0.55339440      -0.74931852
H        2.60926641      -0.26063592       0.99133557
H        2.01052924      -1.78274515       0.32553991
H       -0.34588011      -1.57151087      -0.94150066
16
Frame=4 idx=007189 GeodesicLength=0.21550170738453822 rxn_smarts="[C:1]([c:2]1[c:3]([H:11])[c:4]([H:12])[c:5]([C:6]([H:13])([H:14])[H:15])[n:7]1[H:16])([H:8])([H:9])[H:10]>>[C:1](=[C:2]1[C:3]([H:11])=[C:4]([H:12])[C@@:5]([C:6]([H:13])([H:14])[H:15])([H:8])[N:7]1[H:16])([H:9])[H:10]"
C       -2.08616626      -0.37396259       0.29677015
C       -1.28759237       0.21231657      -0.70576445
C       -0.76762123       1.52831979      -0.47953818
C        0.49551689       1.32801801       0.00025050
C        0.72898115      -0.09390054       0.02465841
C        2.09103076      -0.70483155       0.14513079
N       -0.16299545      -0.57948676      -0.97339526
H       -0.57070287      -0.45415138       1.05445943
H       -2.84773630       0.24006922       0.76629042
H       -2.36258334      -1.42013163       0.18824769
H       -1.37775694       2.41208594      -0.36757657
H        1.14969075       2.06177032       0.44816373
H        2.68048167      -0.56029257      -0.76335650
H        2.63095451      -0.24565788       0.97360260
H        2.02376392      -1.77720590       0.33705231
H       -0.33726489      -1.57295904      -0.94499508
16
Frame=5 idx=007189 GeodesicLength=0.26924470490945585 rxn_smarts="[C:1]([c:2]1[c:3]([H:11])[c:4]([H:12])[c:5]([C:6]([H:13])([H:14])[H:15])[n:7]1[H:16])([H:8])([H:9])[H:10]>>[C:1](=[C:2]1[C:3]([H:11])=[C:4]([H:12])[C@@:5]([C:6]([H:13])([H:14])[H:15])([H:8])[N:7]1[H:16])([H:9])[H:10]"
C       -2.09848232      -0.37531230       0.29804026
C       -1.28804108       0.20959045      -0.69890887
C       -0.76393608       1.52508670      -0.47874812
C        0.50126331       1.32756832       0.00112263
C        0.73173256      -0.09531389       0.03833431
C        2.09812064      -0.70117948       0.14281202
N       -0.16018194      -0.57980444      -0.96152652
H       -0.57722301      -0.47214429       1.07491130
H       -2.86093011       0.24732277       0.75455127
H       -2.39424640      -1.41372960       0.16780510
H       -1.37559110       2.40743993      -0.36309052
H        1.15411661       2.06423923       0.44604856
H        2.67265955      -0.56731886      -0.77682666
H        2.65202268      -0.23073868       0.95563032
H        2.03712441      -1.77142709       0.34855195
H       -0.32840771      -1.57427877      -0.94870705
16
Frame=6 idx=007189 GeodesicLength=0.32293979529419475 rxn_smarts="[C:1]([c:2]1[c:3]([H:11])[c:4]([H:12])[c:5]([C:6]([H:13])([H:14])[H:15])[n:7]1[H:16])([H:8])([H:9])[H:10]>>[C:1](=[C:2]1[C:3]([H:11])=[C:4]([H:12])[C@@:5]([C:6]([H:13])([H:14])[H:15])([H:8])[N:7]1[H:16])([H:9])[H:10]"
C       -2.11081448      -0.37677528       0.29932653
C       -1.28853203       0.20674719      -0.69191948
C       -0.76033453       1.52175165      -0.47801603
C        0.50704825       1.32713636       0.00166095
C        0.73456418      -0.09660354       0.05192546
C        2.10506496      -0.69747422       0.14058007
N       -0.15741990      -0.58020738      -0.94954350
H       -0.58371210      -0.49080728       1.09535841
H       -2.87344192       0.25458738       0.74332946
H       -2.42583841      -1.40655455       0.14705072
H       -1.37349423       2.40267912      -0.35862987
H        1.15842187       2.06674104       0.44377125
H        2.66472174      -0.57448209      -0.78972234
H        2.67247172      -0.21588191       0.93743992
H        2.05059530      -1.76540675       0.36005179
H       -0.31930042      -1.57544974      -0.95266334
16
Frame=7 idx=007189 GeodesicLength=0.3765894007633838 rxn_smarts="[C:1]([c:2]1[c:3]([H:11])[c:4]([H:12])[c:5]([C:6]([H:13])([H:14])[H:15])[n:7]1[H:16])([H:8])([H:9])[H:10]>>[C:1](=[C:2]1[C:3]([H:11])=[C:4]([H:12])[C@@:5]([C:6]([H:13])([H:14])[H:15])([H:8])[N:7]1[H:16])([H:9])[H:10]"
C       -2.12316970      -0.37835639       0.30061581
C       -1.28906653       0.20378685      -0.68479967
C       -0.75682101       1.51831478      -0.47735073
C        0.51286602       1.32672299       0.00185703
C        0.73747385      -0.09776138       0.06542896
C        2.11186375      -0.69371752       0.13844491
N       -0.15470910      -0.58069472      -0.93744837
H       -0.59017062      -0.51017828       1.11578427
H       -2.88527014       0.26185685       0.73266446
H       -2.45734604      -1.39858446       0.12600528
H       -1.37147011       2.39780330      -0.35420062
H        1.16260548       2.06928224       0.44130869
H        2.65668491      -0.58178782      -0.80203586
H        2.69230208      -0.20109348       0.91905450
H        2.06416196      -1.75914323       0.37156235
H       -0.30993480      -1.57644975      -0.95689101
16
Frame=8 idx=007189 GeodesicLength=0.43019566193211817 rxn_smarts="[C:1]([c:2]1[c:3]([H:11])[c:4]([H:12])[c:5]([C:6]([H:13])([H:14])[H:15])[n:7]1[H:16])([H:8])([H:9])[H:10]>>[C:1](=[C:2]1[C:3]([H:11])=[C:4]([H:12])[C@@:5]([C:6]([H:13])([H:14])[H:15])([H:8])[N:7]1[H:16])([H:9])[H:10]"
C       -2.13555466      -0.38005971       0.30189614
C       -1.28964603       0.20070932      -0.67755212
C       -0.75339972       1.51477598      -0.47676165
C        0.51871097       1.32632885       0.00170182
C        0.74045910      -0.09877926       0.07884230
C        2.11851725      -0.68991109       0.13641679
N       -0.15204963      -0.58126610      -0.92524249
H       -0.59659862      -0.53029667       1.13617163
H       -2.89641516       0.26912471       0.72259467
H       -2.48875580      -1.38979746       0.10469209
H       -1.36952194       2.39281244      -0.34981049
H        1.16666658       2.07186888       0.43863639
H        2.64856612      -0.58923955      -0.81375888
H        2.71151402      -0.18638056       0.90049878
H        2.07780998      -1.75263527       0.38309266
H       -0.30030247      -1.57725449      -0.96141764
16
Frame=9 idx=007189 GeodesicLength=0.4837602676711938 rxn_smarts="[C:1]([c:2]1[c:3]([H:11])[c:4]([H:12])[c:5]([C:6]([H:13])([H:14])[H:15])[n:7]1[H:16])([H:8])([H:9])[H:10]>>[C:1](=[C:2]1[C:3]([H:11])=[C:4]([H:12])[C@@:5]([C:6]([H:13])([H:14])[H:15])([H:8])[N:7]1[H:16])([H:9])[H:10]"
C       -2.14797610      -0.38188837       0.30315550
C       -1.29027173       0.19751418      -0.67017918
C       -0.75007439       1.51113464      -0.47625874
C        0.52457686       1.32595372       0.00118775
C        0.74351695      -0.09964939       0.09216477
C        2.12502612      -0.68605610       0.13450581
N       -0.14944146      -0.58192198      -0.91292547
H       -0.60299655      -0.55120445       1.15650216
H       -2.90687850       0.27638482       0.71315690
H       -2.52005580      -1.38017122       0.08313624
H       -1.36765225       2.38770625      -0.34546930
H        1.17060415       2.07450634       0.43572987
H        2.64038113      -0.59684021      -0.82488412
H        2.73011042      -0.17174997       0.88179593
H        2.09152582      -1.74588092       0.39465301
H       -0.29039467      -1.57783734      -0.96627114
16
Frame=10 idx=007189 GeodesicLength=0.537285149048319 rxn_smarts="[C:1]([c:2]1[c:3]([H:11])[c:4]([H:12])[c:5]([C:6]([H:13])([H:14])[H:15])[n:7]1[H:16])([H:8])([H:9])[H:10]>>[C:1](=[C:2]1[C:3]([H:11])=[C:4]([H:12])[C@@:5]([C:6]([H:13])([H:14])[H:15])([H:8])[N:7]1[H:16])([H:9])[H:10]"
C       -2.16044044      -0.38384629       0.30438323
C       -1.29094563       0.19420100      -0.66268228
C       -0.74684975       1.50739021      -0.47585164
C        0.53045714       1.32559771       0.00030537
C        0.74664373      -0.10036327       0.10539490
C        2.13139019      -0.68215391       0.13272498
N       -0.14688518      -0.58266241      -0.90049745
H       -0.60936406      -0.57294762       1.17675524
H       -2.91665828       0.28362864       0.70439585
H       -2.55123602      -1.36968264       0.06135883
H       -1.36586472       2.38248418      -0.34118456
H        1.17442258       2.07720210       0.43255004
H        2.63214807      -0.60459011      -0.83539932
H        2.74809008      -0.15721026       0.86297598
H        2.10529439      -1.73887921       0.40625349
H       -0.28020211      -1.57816812      -0.97148269
16
Frame=11 idx=007189 GeodesicLength=0.5907719122765781 rxn_smarts="[C:1]([c:2]1[c:3]([H:11])[c:4]([H:12])[c:5]([C:6]([H:13])([H:14])[H:15])[n:7]1[H:16])([H:8])([H:9])[H:10]>>[C:1](=[C:2]1[C:3]([H:11])=[C:4]([H:12])[C@@:5]([C:6]([H:13])([H:14])[H:15])([H:8])[N:7]1[H:16])([H:9])[H:10]"
C       -2.17295394      -0.38593653       0.30556913
C       -1.29166955       0.19076891      -0.65506238
C       -0.74373018       1.50354149      -0.47555071
C        0.53634468       1.32526005      -0.00095376
C        0.74983530      -0.10091267       0.11853278
C        2.13760964      -0.67820536       0.13108737
N       -0.14438134      -0.58348841      -0.88795686
H       -0.61570071      -0.59557547       1.19690862
H       -2.92575326       0.29084742       0.69635519
H       -2.58228827      -1.35830705       0.03938288
H       -1.36416251       2.37714545      -0.33696648
H        1.17812570       2.07996282       0.42905794
H        2.62388397      -0.61248929      -0.84529315
H        2.76545438      -0.14276926       0.84406778
H        2.11910111      -1.73162853       0.41790592
H       -0.26971502      -1.57821355      -0.97708427
16
Frame=12 idx=007189 GeodesicLength=0.6442224901941922 rxn_smarts="[C:1]([c:2]1[c:3]([H:11])[c:4]([H:12])[c:5]([C:6]([H:13])([H:14])[H:15])[n:7]1[H:16])([H:8])([H:9])[H:10]>>[C:1](=[C:2]1[C:3]([H:11])=[C:4]([H:12])[C@@:5]([C:6]([H:13])([H:14])[H:15])([H:8])[N:7]1[H:16])([H:9])[H:10]"
C       -2.18552275      -0.38816174       0.30670456
C       -1.29244529       0.18721654      -0.64731922
C       -0.74071978       1.49958660      -0.47536660
C        0.54223211       1.32493923      -0.00259759
C        0.75308713      -0.10128953       0.13157993
C        2.14368501      -0.67421097       0.12960632
N       -0.14193072      -0.58440214      -0.87530025
H       -0.62200586      -0.61913978       1.21693903
H       -2.93416378       0.29803121       0.68907674
H       -2.61320598      -1.34601766       0.01723179
H       -1.36254818       2.37168905      -0.33282716
H        1.18171808       2.08279468       0.42521238
H        2.61560509      -0.62053678      -0.85455462
H        2.78220608      -0.12843448       0.82510006
H        2.13293215      -1.72412712       0.42962245
H       -0.25892331      -1.57793712      -0.98310783
16
Frame=13 idx=007189 GeodesicLength=0.6976397003370997 rxn_smarts="[C:1]([c:2]1[c:3]([H:11])[c:4]([H:12])[c:5]([C:6]([H:13])([H:14])[H:15])[n:7]1[H:16])([H:8])([H:9])[H:10]>>[C:1](=[C:2]1[C:3]([H:11])=[C:4]([H:12])[C@@:5]([C:6]([H:13])([H:14])[H:15])([H:8])[N:7]1[H:16])([H:9])[H:10]"
C       -2.19815315      -0.39052470       0.30778168
C       -1.29327457       0.18354225      -0.63945157
C       -0.73782258       1.49552336      -0.47530957
C        0.54811192       1.32463328      -0.00463353
C        0.75639435      -0.10148573       0.14453937
C        2.14961689      -0.67017098       0.12829598
N       -0.13953419      -0.58540656      -0.86252249
H       -0.62827892      -0.64369540       1.23682167
H       -2.94189124       0.30516780       0.68260078
H       -2.64398429      -1.33278551      -0.00507183
H       -1.36102413       2.36611375      -0.32877767
H        1.18520620       2.08570411       0.42096773
H        2.60732589      -0.62873361      -0.86317312
H        2.79835027      -0.11421144       0.80609954
H        2.14677378      -1.71637234       0.44141932
H       -0.24781622      -1.57729826      -0.98958629
16
Frame=14 idx=007189 GeodesicLength=0.7510328461757728 rxn_smarts="[C:1]([c:2]1[c:3]([H:11])[c:4]([H:12])[c:5]([C:6]([H:13])([H:14])[H:15])[n:7]1[H:16])([H:8])([H:9])[H:10]>>[C:1](=[C:2]1[C:3]([H:11])=[C:4]([H:12])[C@@:5]([C:6]([H:13])([H:14])[H:15])([H:8])[N:7]1[H:16])([H:9])[H:10]"
C       -2.21085118      -0.39302681       0.30879355
C       -1.29416045       0.17974476      -0.63145968
C       -0.73504521       1.49135251      -0.47539275
C        0.55397416       1.32434211      -0.00706871
C        0.75975187      -0.10149398       0.15741617
C        2.15540740      -0.66608817       0.12717148
N       -0.13719292      -0.58650759      -0.84961868
H       -0.63451738      -0.66930056       1.25653273
H       -2.94893714       0.31224712       0.67696879
H       -2.67461663      -1.31858260      -0.02750178
H       -1.35959642       2.36042427      -0.32483381
H        1.18859346       2.08870088       0.41627938
H        2.59906105      -0.63708116      -0.87113921
H        2.81389501      -0.10010866       0.78709565
H        2.16061612      -1.70836637       0.45331369
H       -0.23638177      -1.57625576      -0.99655682
16
Frame=15 idx=007189 GeodesicLength=0.8043924195204623 rxn_smarts="[C:1]([c:2]1[c:3]([H:11])[c:4]([H:12])[c:5]([C:6]([H:13])([H:14])[H:15])[n:7]1[H:16])([H:8])([H:9])[H:10]>>[C:1](=[C:2]1[C:3]([H:11])=[C:4]([H:12])[C@@:5]([C:6]([H:13])([H:14])[H:15])([H:8])[N:7]1[H:16])([H:9])[H:10]"
C       -2.22362426      -0.39566919       0.30973303
C       -1.29510611       0.17581994      -0.62333843
C       -0.73238758       1.48706333      -0.47562672
C        0.55981649       1.32405713      -0.00991567
C        0.76315449      -0.10130398       0.17020863
C        2.16105565      -0.66195748       0.12624756
N       -0.13491174      -0.58770644      -0.83657942
H       -0.64071784      -0.69601387       1.27603338
H       -2.95530504       0.31925006       0.67221163
H       -2.70509959      -1.30337590      -0.05001636
H       -1.35825990       2.35460708      -0.32100795
H        1.19189272       2.09178121       0.41109775
H        2.59082887      -0.64557189      -0.87843313
H        2.82884181      -0.08613026       0.76811981
H        2.17443739      -1.70009947       0.46531848
H       -0.22461536      -1.57475025      -1.00405260
16
Frame=16 idx=007189 GeodesicLength=0.8576814770544295 rxn_smarts="[C:1]([c:2]1[c:3]([H:11])[c:4]([H:12])[c:5]([C:6]([H:13])([H:14])[H:15])[n:7]1[H:16])([H:8])([H:9])[H:10]>>[C:1](=[C:2]1[C:3]([H:11])=[C:4]([H:12])[C@@:5]([C:6]([H:13])([H:14])[H:15])([H:8])[N:7]1[H:16])([H:9])[H:10]"
C       -2.23646318      -0.39843275       0.31061140
C       -1.29610654       0.17176676      -0.61508998
C       -0.72984854       1.48264811      -0.47604852
C        0.56562811       1.32377344      -0.01320812
C        0.76659384      -0.10090342       0.18290044
C        2.16655132      -0.65778577       0.12553166
N       -0.13268850      -0.58900756      -0.82340893
H       -0.64687347      -0.72386104       1.29529320
H       -2.96099392       0.32616702       0.66836242
H       -2.73536953      -1.28714985      -0.07251408
H       -1.35700978       2.34865864      -0.31736217
H        1.19506300       2.09492838       0.40543235
H        2.58266471      -0.65415934      -0.88504116
H        2.84315322      -0.07232977       0.74925373
H        2.18819653      -1.69159052       0.47738539
H       -0.21249727      -1.57272232      -1.01209762
