14
Frame=0 idx=009741 GeodesicLength=0.0 rxn_smarts="[C:1]([C@@:2]([C:3]([C:4]#[N:5])([H:12])[H:13])([C:6]#[C:7][H:14])[H:11])([H:8])([H:9])[H:10]>>[C:1]([C:6]1=[C:2]([H:11])[C:4](=[C:3]([H:12])[H:13])[N:5]=[C:7]1[H:14])([H:8])([H:9])[H:10]"
C        0.26627226       1.69689866       0.17246637
C       -0.66007393       0.09685383       0.48484603
C       -1.19450639      -0.79921997      -0.61822834
C       -0.31543878      -2.01563732      -0.64911542
N        0.78812008      -2.20096469      -0.16425916
C        0.69989223       0.01337991       0.72621228
C        1.52761545      -0.93056120       0.35848687
H        1.32688517       1.90424723       0.04474236
H       -0.22354390       1.90760651      -0.77847660
H       -0.11969961       2.31915209       0.97222007
H       -1.32928887       0.37144487       1.29368135
H       -2.24713253      -1.02377301      -0.44664995
H       -1.11352025      -0.36699245      -1.61939601
H        2.59441907      -0.97243443       0.22347013
14
Frame=1 idx=009741 GeodesicLength=0.15751139900505534 rxn_smarts="[C:1]([C@@:2]([C:3]([C:4]#[N:5])([H:12])[H:13])([C:6]#[C:7][H:14])[H:11])([H:8])([H:9])[H:10]>>[C:1]([C:6]1=[C:2]([H:11])[C:4](=[C:3]([H:12])[H:13])[N:5]=[C:7]1[H:14])([H:8])([H:9])[H:10]"
C        0.28239499       1.69618474       0.16534861
C       -0.65081479       0.09185137       0.46741080
C       -1.22629790      -0.81420966      -0.62915072
C       -0.27731956      -1.95399691      -0.73883064
N        0.79996364      -2.19912266      -0.21649284
C        0.70204137       0.01576608       0.74107992
C        1.54369839      -0.92769105       0.40257336
H        1.33936250       1.89337504      -0.00470491
H       -0.23402105       1.93123614      -0.76563905
H       -0.06589172       2.32437944       0.97828514
H       -1.33210425       0.38162745       1.26173585
H       -2.25374358      -1.08780828      -0.38974859
H       -1.24489794      -0.36920608      -1.62776682
H        2.61762989      -0.98238563       0.35589989
14
Frame=2 idx=009741 GeodesicLength=0.31705686148251755 rxn_smarts="[C:1]([C@@:2]([C:3]([C:4]#[N:5])([H:12])[H:13])([C:6]#[C:7][H:14])[H:11])([H:8])([H:9])[H:10]>>[C:1]([C:6]1=[C:2]([H:11])[C:4](=[C:3]([H:12])[H:13])[N:5]=[C:7]1[H:14])([H:8])([H:9])[H:10]"
C        0.30267729       1.69319254       0.15631311
C       -0.64365076       0.08890642       0.44982114
C       -1.25883133      -0.83162624      -0.63726311
C       -0.23241685      -1.87024478      -0.84088963
N        0.81659257      -2.18637903      -0.28737947
C        0.69988948       0.01741366       0.76349700
C        1.55327884      -0.92839865       0.45906491
H        1.35591008       1.87465878      -0.05262214
H       -0.23521648       1.95087517      -0.75644325
H       -0.00809923       2.33120131       0.97744556
H       -1.33953538       0.39847791       1.22493290
H       -2.24690417      -1.16963443      -0.32549014
H       -1.39130010      -0.37656945      -1.62252815
H        2.62760605      -0.99187321       0.49154127
14
Frame=3 idx=009741 GeodesicLength=0.47914931811804184 rxn_smarts="[C:1]([C@@:2]([C:3]([C:4]#[N:5])([H:12])[H:13])([C:6]#[C:7][H:14])[H:11])([H:8])([H:9])[H:10]>>[C:1]([C:6]1=[C:2]([H:11])[C:4](=[C:3]([H:12])[H:13])[N:5]=[C:7]1[H:14])([H:8])([H:9])[H:10]"
C        0.32696124       1.68810826       0.14612019
C       -0.63962910       0.08927963       0.43307447
C       -1.29102165      -0.85295094      -0.64130921
C       -0.18694300      -1.76400023      -0.94522480
N        0.84060097      -2.15488778      -0.38452535
C        0.69223719       0.01855231       0.79365135
C        1.55295443      -0.93337134       0.52381947
H        1.37700892       1.84762828      -0.09666973
H       -0.22592937       1.96604020      -0.75195262
H        0.05270189       2.34018747       0.97016699
H       -1.35245851       0.42314481       1.18372581
H       -2.22340683      -1.26607931      -0.25719522
H       -1.54584285      -0.39781351      -1.60198048
H        2.62276667      -1.00383785       0.62829913
14
Frame=4 idx=009741 GeodesicLength=0.6396908245061885 rxn_smarts="[C:1]([C@@:2]([C:3]([C:4]#[N:5])([H:12])[H:13])([C:6]#[C:7][H:14])[H:11])([H:8])([H:9])[H:10]>>[C:1]([C:6]1=[C:2]([H:11])[C:4](=[C:3]([H:12])[H:13])[N:5]=[C:7]1[H:14])([H:8])([H:9])[H:10]"
C        0.35346671       1.68240385       0.13600880
C       -0.63806848       0.09304219       0.41710615
C       -1.31997062      -0.87898276      -0.64077896
C       -0.15013409      -1.64413524      -1.03779839
N        0.87087293      -2.09769993      -0.50437048
C        0.67956351       0.02021581       0.82714288
C        1.54169234      -0.94042940       0.58606462
H        1.40013082       1.81618172      -0.13610379
H       -0.20891295       1.97926877      -0.75002171
H        0.11512990       2.34985186       0.95932312
H       -1.36865537       0.45265592       1.13879056
H       -2.18261071      -1.36733710      -0.18930951
H       -1.69372725      -0.43991809      -1.56915274
H        2.60122327      -1.02511761       0.76309945
14
Frame=5 idx=009741 GeodesicLength=0.8011963399759231 rxn_smarts="[C:1]([C@@:2]([C:3]([C:4]#[N:5])([H:12])[H:13])([C:6]#[C:7][H:14])[H:11])([H:8])([H:9])[H:10]>>[C:1]([C:6]1=[C:2]([H:11])[C:4](=[C:3]([H:12])[H:13])[N:5]=[C:7]1[H:14])([H:8])([H:9])[H:10]"
C        0.38103762       1.67734204       0.12796406
C       -0.63875141       0.10023907       0.40147961
C       -1.34456595      -0.90948320      -0.63752095
C       -0.12689514      -1.52288866      -1.11264300
N        0.90448464      -2.01797126      -0.63200175
C        0.66303358       0.02282186       0.86149551
C        1.52197816      -0.94856218       0.64121912
H        1.42376837       1.78245877      -0.17135995
H       -0.18780626       1.99401754      -0.74698504
H        0.17973138       2.35939495       0.94955356
H       -1.38773568       0.48547475       1.09059091
H       -2.12958822      -1.46454025      -0.12657606
H       -1.82514295      -0.50429374      -1.53101020
H        2.56645187      -1.05400969       0.88579418
14
Frame=6 idx=009741 GeodesicLength=0.9633044735553512 rxn_smarts="[C:1]([C@@:2]([C:3]([C:4]#[N:5])([H:12])[H:13])([C:6]#[C:7][H:14])[H:11])([H:8])([H:9])[H:10]>>[C:1]([C:6]1=[C:2]([H:11])[C:4](=[C:3]([H:12])[H:13])[N:5]=[C:7]1[H:14])([H:8])([H:9])[H:10]"
C        0.40864309       1.67425295       0.12264057
C       -0.64063841       0.11060410       0.38531297
C       -1.36435547      -0.94383460      -0.63277050
C       -0.11701076      -1.40816344      -1.17099727
N        0.93637427      -1.92103604      -0.75679170
C        0.64435123       0.02694248       0.89428641
C        1.49741548      -0.95607349       0.68667240
H        1.44636248       1.74937752      -0.20326477
H       -0.16528587       2.01284943      -0.74089925
H        0.24602758       2.36850450       0.94323316
H       -1.40829629       0.52020956       1.03909176
H       -2.06801893      -1.55369897      -0.06924534
H       -1.93737643      -0.58840018      -1.49184055
H        2.52180804      -1.09153382       0.99457210
14
Frame=7 idx=009741 GeodesicLength=1.123896151388596 rxn_smarts="[C:1]([C@@:2]([C:3]([C:4]#[N:5])([H:12])[H:13])([C:6]#[C:7][H:14])[H:11])([H:8])([H:9])[H:10]>>[C:1]([C:6]1=[C:2]([H:11])[C:4](=[C:3]([H:12])[H:13])[N:5]=[C:7]1[H:14])([H:8])([H:9])[H:10]"
C        0.43539411       1.67377825       0.12119199
C       -0.64248695       0.12304270       0.36746229
C       -1.37988824      -0.97986986      -0.62867489
C       -0.11882862      -1.30710532      -1.21383774
N        0.95928305      -1.82312770      -0.86666667
C        0.62478903       0.03211743       0.92338555
C        1.47199355      -0.96122107       0.72258396
H        1.46639608       1.71962084      -0.23176107
H       -0.14311365       2.03790201      -0.72907053
H        0.31315738       2.37553410       0.94309143
H       -1.42849429       0.55383702       0.98492734
H       -2.00493862      -1.62958996      -0.01924642
H       -2.02745296      -0.68628686      -1.45701993
H        2.47419015      -1.12863158       1.08363471
14
Frame=8 idx=009741 GeodesicLength=1.2822597328816496 rxn_smarts="[C:1]([C@@:2]([C:3]([C:4]#[N:5])([H:12])[H:13])([C:6]#[C:7][H:14])[H:11])([H:8])([H:9])[H:10]>>[C:1]([C:6]1=[C:2]([H:11])[C:4](=[C:3]([H:12])[H:13])[N:5]=[C:7]1[H:14])([H:8])([H:9])[H:10]"
C        0.46121995       1.67598774       0.12308336
C       -0.64362097       0.13695882       0.34748606
C       -1.39206374      -1.01681832      -0.62518781
C       -0.12995656      -1.21893962      -1.24580600
N        0.97231946      -1.72993486      -0.96348854
C        0.60478972       0.03811898       0.94822786
C        1.44711621      -0.96373078       0.75106643
H        1.48353525       1.69421014      -0.25753357
H       -0.12131720       2.06903730      -0.71148319
H        0.38081989       2.38026786       0.94842402
H       -1.44729395       0.58589169       0.92782203
H       -1.94229086      -1.69346485       0.02544698
H       -2.09859116      -0.79382800      -1.42590408
H        2.42533396      -1.16375611       1.15784645
14
Frame=9 idx=009741 GeodesicLength=1.438921235756775 rxn_smarts="[C:1]([C@@:2]([C:3]([C:4]#[N:5])([H:12])[H:13])([C:6]#[C:7][H:14])[H:11])([H:8])([H:9])[H:10]>>[C:1]([C:6]1=[C:2]([H:11])[C:4](=[C:3]([H:12])[H:13])[N:5]=[C:7]1[H:14])([H:8])([H:9])[H:10]"
C        0.48615434       1.68071070       0.12767954
C       -0.64373342       0.15208394       0.32543828
C       -1.40178368      -1.05432753      -0.62204599
C       -0.14840168      -1.14247702      -1.27050050
N        0.97619479      -1.64306302      -1.05161325
C        0.58485269       0.04493296       0.96908272
C        1.42382330      -0.96369639       0.77413973
H        1.49791435       1.67337642      -0.28138343
H       -0.09997179       2.10539900      -0.68874363
H        0.44868101       2.38286604       0.95831672
H       -1.46436585       0.61662124       0.86800368
H       -1.88124213      -1.74696191       0.06655514
H       -2.15397590      -0.90822813      -1.39741826
H        2.37585399      -1.19723632       1.22248925
14
Frame=10 idx=009741 GeodesicLength=1.594274758731551 rxn_smarts="[C:1]([C@@:2]([C:3]([C:4]#[N:5])([H:12])[H:13])([C:6]#[C:7][H:14])[H:11])([H:8])([H:9])[H:10]>>[C:1]([C:6]1=[C:2]([H:11])[C:4](=[C:3]([H:12])[H:13])[N:5]=[C:7]1[H:14])([H:8])([H:9])[H:10]"
C        0.51029876       1.68765526       0.13458361
C       -0.64267359       0.16816417       0.30138939
C       -1.40974111      -1.09212881      -0.61904014
C       -0.17305301      -1.07647964      -1.29044310
N        0.97187125      -1.56356937      -1.13424497
C        0.56521093       0.05243708       0.98636304
C        1.40256978      -0.96146920       0.79339594
H        1.51001243       1.65731291      -0.30313337
H       -0.07865269       2.14578596      -0.66162427
H        0.51593431       2.38348599       0.97190015
H       -1.47952346       0.64617550       0.80561533
H       -1.82246022      -1.79139129       0.10513897
H       -2.19594180      -1.02715228      -1.37042334
H        2.32614843      -1.22882629       1.28052278
14
Frame=11 idx=009741 GeodesicLength=1.748260201697228 rxn_smarts="[C:1]([C@@:2]([C:3]([C:4]#[N:5])([H:12])[H:13])([C:6]#[C:7][H:14])[H:11])([H:8])([H:9])[H:10]>>[C:1]([C:6]1=[C:2]([H:11])[C:4](=[C:3]([H:12])[H:13])[N:5]=[C:7]1[H:14])([H:8])([H:9])[H:10]"
C        0.53370244       1.69650973       0.14329558
C       -0.64019625       0.18496599       0.27540700
C       -1.41607876      -1.13005538      -0.61581846
C       -0.20275751      -1.01950853      -1.30706716
N        0.95998834      -1.49054555      -1.21413188
C        0.54593407       0.06057298       1.00032472
C        1.38331097      -0.95720361       0.80986321
H        1.51981941       1.64589785      -0.32350699
H       -0.05745356       2.18942412      -0.63033031
H        0.58266762       2.38200484       0.98824222
H       -1.49239982       0.67447749       0.74070460
H       -1.76573087      -1.82814954       0.14195396
H       -2.22573470      -1.14905706      -1.34360321
H        2.27492861      -1.25933332       1.33466671
14
Frame=12 idx=009741 GeodesicLength=1.9012639402293088 rxn_smarts="[C:1]([C@@:2]([C:3]([C:4]#[N:5])([H:12])[H:13])([C:6]#[C:7][H:14])[H:11])([H:8])([H:9])[H:10]>>[C:1]([C:6]1=[C:2]([H:11])[C:4](=[C:3]([H:12])[H:13])[N:5]=[C:7]1[H:14])([H:8])([H:9])[H:10]"
C        0.55646389       1.70700809       0.15349775
C       -0.63616643       0.20235467       0.24761137
C       -1.42099533      -1.16799608      -0.61220456
C       -0.23673124      -0.97037916      -1.32136680
N        0.94104314      -1.42313160      -1.29320798
C        0.52704897       0.06932761       1.01134830
C        1.36598632      -0.95109177       0.82447487
H        1.52739325       1.63891167      -0.34301441
H       -0.03644033       2.23561974      -0.59493132
H        0.64912617       2.37837926       1.00661927
H       -1.50280211       0.70161010       0.67338611
H       -1.71084296      -1.85837223       0.17733049
H       -2.24427574      -1.27302714      -1.31608822
H        2.22119240      -1.28921317       1.38654514
14
Frame=13 idx=009741 GeodesicLength=2.0537405851181796 rxn_smarts="[C:1]([C@@:2]([C:3]([C:4]#[N:5])([H:12])[H:13])([C:6]#[C:7][H:14])[H:11])([H:8])([H:9])[H:10]>>[C:1]([C:6]1=[C:2]([H:11])[C:4](=[C:3]([H:12])[H:13])[N:5]=[C:7]1[H:14])([H:8])([H:9])[H:10]"
C        0.57869612       1.71887670       0.16495324
C       -0.63047456       0.22020791       0.21814718
C       -1.42465859      -1.20587753      -0.60809164
C       -0.27435333      -0.92810821      -1.33395165
N        0.91520303      -1.36052424      -1.37290987
C        0.50856041       0.07870516       1.01984744
C        1.35048068      -0.94332558       0.83810910
H        1.53288054       1.63615069      -0.36189156
H       -0.01560895       2.28359570      -0.55556413
H        0.71542266       2.37258261       1.02636807
H       -1.51056440       0.72764064       0.60385120
H       -1.65760681      -1.88299240       0.21138799
H       -2.25213798      -1.39828030      -1.28729080
H        2.16416117      -1.31865113       1.43703543
14
Frame=14 idx=009741 GeodesicLength=2.2061085170599704 rxn_smarts="[C:1]([C@@:2]([C:3]([C:4]#[N:5])([H:12])[H:13])([C:6]#[C:7][H:14])[H:11])([H:8])([H:9])[H:10]>>[C:1]([C:6]1=[C:2]([H:11])[C:4](=[C:3]([H:12])[H:13])[N:5]=[C:7]1[H:14])([H:8])([H:9])[H:10]"
C        0.60051806       1.73175266       0.17753180
C       -0.62305513       0.23837388       0.18711573
C       -1.42718932      -1.24362124      -0.60343081
C       -0.31520299      -0.89181459      -1.34511000
N        0.88233566      -1.30219569      -1.45424714
C        0.49029619       0.08860906       1.02626353
C        1.33641078      -0.93425051       0.85169441
H        1.53659546       1.63732119      -0.37993147
H        0.00524349       2.33245807      -0.51250602
H        0.78139060       2.36453118       1.04693378
H       -1.51552742       0.75263201       0.53219333
H       -1.60593255      -1.90266088       0.24414828
H       -2.24959976      -1.52400186      -1.25683551
H        2.10371693      -1.34713329       1.48618010
14
Frame=15 idx=009741 GeodesicLength=2.358661906074036 rxn_smarts="[C:1]([C@@:2]([C:3]([C:4]#[N:5])([H:12])[H:13])([C:6]#[C:7][H:14])[H:11])([H:8])([H:9])[H:10]>>[C:1]([C:6]1=[C:2]([H:11])[C:4](=[C:3]([H:12])[H:13])[N:5]=[C:7]1[H:14])([H:8])([H:9])[H:10]"
C        0.62206200       1.74528267       0.19110055
C       -0.61384127       0.25669730       0.15461615
C       -1.42875502      -1.28117899      -0.59826960
C       -0.35889672      -0.86080328      -1.35496901
N        0.84206788      -1.24757637      -1.53795257
C        0.47205948       0.09899630       1.03101652
C        1.32330762      -0.92416730       0.86616844
H        1.53880948       1.64205533      -0.39705849
H        0.02622139       2.38139220      -0.46596891
H        0.84703260       2.35411767       1.06781845
H       -1.51750680       0.77660222       0.45866325
H       -1.55579141      -1.91805481       0.27545263
H       -2.23681647      -1.64937915      -1.22463808
H        2.04004723      -1.37398378       1.53402067
14
Frame=16 idx=009741 GeodesicLength=2.5116747795602143 rxn_smarts="[C:1]([C@@:2]([C:3]([C:4]#[N:5])([H:12])[H:13])([C:6]#[C:7][H:14])[H:11])([H:8])([H:9])[H:10]>>[C:1]([C:6]1=[C:2]([H:11])[C:4](=[C:3]([H:12])[H:13])[N:5]=[C:7]1[H:14])([H:8])([H:9])[H:10]"
C        0.64342532       1.75910690       0.20557817
C       -0.60268772       0.27498556       0.12060508
C       -1.42939274      -1.31856359      -0.59268105
C       -0.40518398      -0.83443062      -1.36357364
N        0.79370407      -1.19633435      -1.62473199
C        0.45362621       0.10976264       1.03440121
C        1.31065605      -0.91340974       0.88231356
H        1.53998340       1.65006392      -0.41280882
H        0.04751213       2.42954222      -0.41636239
H        0.91192254       2.34128348       1.08866123
H       -1.51621677       0.79953883       0.38342465
H       -1.50717196      -1.92965010       0.30519580
H       -2.21389319      -1.77347760      -1.19061153
H        1.97371664      -1.39841754       1.58058974
