16
Frame=0 idx=004370 GeodesicLength=0.0 rxn_smarts="[C:1]([C:2]([O:3][C:4]([C:5]([O:6][H:16])([H:14])[H:15])([H:12])[H:13])([H:10])[H:11])([H:7])([H:8])[H:9]>>[C:1]([C:2]([O:3][O:6][H:16])([H:10])[H:11])([H:7])([H:8])[H:9].[C:4](=[C:5]([H:14])[H:15])([H:12])[H:13]"
C       -2.18428054      -0.23988001       0.15736182
C       -1.06426157      -0.64882083      -0.78018188
O        0.21905137      -0.32386640      -0.30475849
C        1.06332216       1.35389264      -0.09844474
C        2.09857507       0.84323369       0.65234988
O        1.38885826      -1.48501623       0.77575919
H       -2.01842123      -0.67021557       1.14560876
H       -3.14991774      -0.58801950      -0.21636953
H       -2.23407183       0.84592808       0.25869744
H       -1.19864292      -0.23847983      -1.79002249
H       -1.04391435      -1.74029254      -0.90165494
H        0.25344990       1.87845417       0.39247622
H        1.21824083       1.57994723      -1.14615019
H        2.04912800       0.81994177       1.73048794
H        3.02198925       0.52583872       0.19063544
H        1.58089541      -1.91264541      -0.06579450
16
Frame=1 idx=004370 GeodesicLength=0.0996461305128913 rxn_smarts="[C:1]([C:2]([O:3][C:4]([C:5]([O:6][H:16])([H:14])[H:15])([H:12])[H:13])([H:10])[H:11])([H:7])([H:8])[H:9]>>[C:1]([C:2]([O:3][O:6][H:16])([H:10])[H:11])([H:7])([H:8])[H:9].[C:4](=[C:5]([H:14])[H:15])([H:12])[H:13]"
C       -2.22798478      -0.27452600       0.16209372
C       -1.07998093      -0.62819013      -0.76350968
O        0.18435196      -0.31491414      -0.23371012
C        1.10020287       1.34176971      -0.12719789
C        2.12318995       0.82823427       0.64238888
O        1.40384505      -1.46081392       0.79923387
H       -2.08832390      -0.75632504       1.13048478
H       -3.18046313      -0.60601799      -0.25757991
H       -2.28346942       0.80440349       0.31924778
H       -1.19050369      -0.16556962      -1.75323184
H       -1.04142467      -1.71182880      -0.93815547
H        0.31280090       1.91940326       0.34115822
H        1.26308617       1.52317836      -1.18287594
H        2.06460343       0.84313952       1.72087571
H        3.05954708       0.52710730       0.19575763
H        1.58052312      -1.86905026      -0.05497972
16
Frame=2 idx=004370 GeodesicLength=0.1925889409840888 rxn_smarts="[C:1]([C:2]([O:3][C:4]([C:5]([O:6][H:16])([H:14])[H:15])([H:12])[H:13])([H:10])[H:11])([H:7])([H:8])[H:9]>>[C:1]([C:2]([O:3][O:6][H:16])([H:10])[H:11])([H:7])([H:8])[H:9].[C:4](=[C:5]([H:14])[H:15])([H:12])[H:13]"
C       -2.26675465      -0.31154856       0.16823661
C       -1.09398065      -0.60300682      -0.74746870
O        0.15124973      -0.30092853      -0.16859116
C        1.13721928       1.32739658      -0.15919708
C        2.14533819       0.81298989       0.63324210
O        1.40875970      -1.43426735       0.82507771
H       -2.14607301      -0.84576668       1.11143418
H       -3.20549619      -0.62678590      -0.29288471
H       -2.33368986       0.75673908       0.38348849
H       -1.18772806      -0.08639127      -1.71172144
H       -1.03446915      -1.67479332      -0.97930618
H        0.37268054       1.95616835       0.28138868
H        1.31054400       1.46300471      -1.22059660
H        2.07468362       0.86816318       1.71039778
H        3.09486611       0.52558253       0.20532860
H        1.57285040      -1.82655588      -0.03882829
16
Frame=3 idx=004370 GeodesicLength=0.27968087103524164 rxn_smarts="[C:1]([C:2]([O:3][C:4]([C:5]([O:6][H:16])([H:14])[H:15])([H:12])[H:13])([H:10])[H:11])([H:7])([H:8])[H:9]>>[C:1]([C:2]([O:3][O:6][H:16])([H:10])[H:11])([H:7])([H:8])[H:9].[C:4](=[C:5]([H:14])[H:15])([H:12])[H:13]"
C       -2.29989038      -0.35084852       0.17576657
C       -1.10724407      -0.57353385      -0.73309856
O        0.12018622      -0.28179896      -0.11244822
C        1.17468279       1.31099368      -0.19400644
C        2.16473404       0.79745589       0.62542406
O        1.40317801      -1.40502757       0.85372374
H       -2.18950189      -0.93760381       1.08857008
H       -3.22553388      -0.65028721      -0.32097843
H       -2.38299855       0.70257735       0.45067584
H       -1.19307833      -0.00255655      -1.66680003
H       -1.02433686      -1.62892450      -1.02471551
H        0.43303242       1.98821171       0.21381120
H        1.36195349       1.40097869      -1.25839066
H        2.07890397       0.89497147       1.69920907
H        3.12757779       0.52102829       0.22005546
H        1.55833524      -1.78563611      -0.01679816
16
Frame=4 idx=004370 GeodesicLength=0.36234239561994247 rxn_smarts="[C:1]([C:2]([O:3][C:4]([C:5]([O:6][H:16])([H:14])[H:15])([H:12])[H:13])([H:10])[H:11])([H:7])([H:8])[H:9]>>[C:1]([C:2]([O:3][O:6][H:16])([H:10])[H:11])([H:7])([H:8])[H:9].[C:4](=[C:5]([H:14])[H:15])([H:12])[H:13]"
C       -2.32822843      -0.39188771       0.18357987
C       -1.12040663      -0.54043280      -0.71990614
O        0.09068323      -0.25787262      -0.06382897
C        1.21235710       1.29257692      -0.23024729
C        2.18212920       0.78166893       0.61860068
O        1.38943363      -1.37314611       0.88490126
H       -2.22045845      -1.03020879       1.06140545
H       -3.24169092      -0.67594620      -0.34369986
H       -2.43107782       0.64221944       0.51866567
H       -1.20628714       0.08385423      -1.61865191
H       -1.01215027      -1.57471975      -1.07213530
H        0.49418160       2.01520431       0.14124497
H        1.41581025       1.33763021      -1.29501468
H        2.07975720       0.92330814       1.68677689
H        3.15778213       0.51391640       0.23809167
H        1.53816533      -1.74616459       0.01021769
16
Frame=5 idx=004370 GeodesicLength=0.4415876502628933 rxn_smarts="[C:1]([C:2]([O:3][C:4]([C:5]([O:6][H:16])([H:14])[H:15])([H:12])[H:13])([H:10])[H:11])([H:7])([H:8])[H:9]>>[C:1]([C:2]([O:3][O:6][H:16])([H:10])[H:11])([H:7])([H:8])[H:9].[C:4](=[C:5]([H:14])[H:15])([H:12])[H:13]"
C       -2.35230438      -0.43431007       0.19094707
C       -1.13389470      -0.50409079      -0.70733108
O        0.06226536      -0.22938598      -0.02110589
C        1.25007127       1.27203864      -0.26709056
C        2.19792342       0.76564458       0.61262455
O        1.36935947      -1.33865813       0.91809548
H       -2.24026803      -1.12237193       1.02975253
H       -3.25461070      -0.70355276      -0.36247484
H       -2.47761885       0.57587481       0.58596706
H       -1.22695248       0.17161178      -1.56715878
H       -0.99886662      -1.51246212      -1.11998970
H        0.55638284       2.03708300       0.06523325
H        1.47111521       1.27274993      -1.32980878
H        2.07870706       0.95297000       1.67278147
H        3.18555032       0.50464523       0.25838363
H        1.51314079      -1.70778618       0.04117459
16
Frame=6 idx=004370 GeodesicLength=0.5182434536814798 rxn_smarts="[C:1]([C:2]([O:3][C:4]([C:5]([O:6][H:16])([H:14])[H:15])([H:12])[H:13])([H:10])[H:11])([H:7])([H:8])[H:9]>>[C:1]([C:2]([O:3][O:6][H:16])([H:10])[H:11])([H:7])([H:8])[H:9].[C:4](=[C:5]([H:14])[H:15])([H:12])[H:13]"
C       -2.37249741      -0.47781291       0.19722996
C       -1.14793932      -0.46478828      -0.69479271
O        0.03455474      -0.19657415       0.01742211
C        1.28750796       1.24921061      -0.30393968
C        2.21243680       0.74941700       0.60729994
O        1.34450377      -1.30151975       0.95298531
H       -2.25017982      -1.21336390       0.99318765
H       -3.26474032      -0.73266900      -0.37875576
H       -2.52221516       0.50368107       0.65161868
H       -1.25437140       0.25993047      -1.51195313
H       -0.98523560      -1.44240662      -1.16698778
H        0.61963762       2.05373058      -0.01313779
H        1.52665471       1.20585758      -1.36236350
H        2.07709416       0.98390177       1.65691033
H        3.21095498       0.49353132       0.27991728
H        1.48383427      -1.67012582       0.07535909
16
Frame=7 idx=004370 GeodesicLength=0.5929305991217361 rxn_smarts="[C:1]([C:2]([O:3][C:4]([C:5]([O:6][H:16])([H:14])[H:15])([H:12])[H:13])([H:10])[H:11])([H:7])([H:8])[H:9]>>[C:1]([C:2]([O:3][O:6][H:16])([H:10])[H:11])([H:7])([H:8])[H:9].[C:4](=[C:5]([H:14])[H:15])([H:12])[H:13]"
C       -2.38875667      -0.52195229       0.20205063
C       -1.16264921      -0.42278459      -0.68192374
O        0.00737396      -0.15978907       0.05278218
C        1.32422871       1.22382391      -0.34039067
C        2.22559222       0.73300858       0.60262381
O        1.31601192      -1.26177539       0.98907355
H       -2.25076522      -1.30218531       0.95153372
H       -3.27212370      -0.76273229      -0.39328302
H       -2.56398293       0.42589636       0.71488929
H       -1.28792061       0.34804478      -1.45281613
H       -0.97203105      -1.36486200      -1.21222000
H        0.68344237       2.06470791      -0.09329236
H        1.58157331       1.13645738      -1.39233352
H        2.07529817       1.01592745       1.63902437
H        3.23391047       0.48102163       0.30228655
H        1.45079826      -1.63280707       0.11199535
16
Frame=8 idx=004370 GeodesicLength=0.6662480387644674 rxn_smarts="[C:1]([C:2]([O:3][C:4]([C:5]([O:6][H:16])([H:14])[H:15])([H:12])[H:13])([H:10])[H:11])([H:7])([H:8])[H:9]>>[C:1]([C:2]([O:3][O:6][H:16])([H:10])[H:11])([H:7])([H:8])[H:9].[C:4](=[C:5]([H:14])[H:15])([H:12])[H:13]"
C       -2.40101599      -0.56621866       0.20509224
C       -1.17808267      -0.37840098      -0.66845480
O       -0.01932223      -0.11955047       0.08580671
C        1.35973890       1.19565017      -0.37608267
C        2.23732023       0.71650142       0.59862727
O        1.28499696      -1.21958664       1.02595523
H       -2.24259985      -1.38789233       0.90468485
H       -3.27687896      -0.79306214      -0.40668124
H       -2.60193158       0.34297745       0.77513727
H       -1.32690812       0.43521367      -1.38966755
H       -0.96003966      -1.28031203      -1.25496465
H        0.74704305       2.06950349      -0.17473020
H        1.63499403       1.06419432      -1.41941392
H        2.07361624       1.04886563       1.61907066
H        3.25440017       0.46767840       0.32517768
H        1.41466946      -1.59556129       0.15044312
16
Frame=9 idx=004370 GeodesicLength=0.7386163047714496 rxn_smarts="[C:1]([C:2]([O:3][C:4]([C:5]([O:6][H:16])([H:14])[H:15])([H:12])[H:13])([H:10])[H:11])([H:7])([H:8])[H:9]>>[C:1]([C:2]([O:3][O:6][H:16])([H:10])[H:11])([H:7])([H:8])[H:9].[C:4](=[C:5]([H:14])[H:15])([H:12])[H:13]"
C       -2.40885154      -0.60947870       0.20604580
C       -1.19385135      -0.33234370      -0.65408019
O       -0.04549428      -0.07685691       0.11706987
C        1.39288637       1.16441860      -0.41039914
C        2.24711669       0.69985021       0.59521862
O        1.25276622      -1.17545347       1.06280975
H       -2.22635527      -1.46833939       0.85273624
H       -3.27825538      -0.82242569      -0.41937739
H       -2.63485554       0.25626078       0.83130157
H       -1.36957872       0.51987370      -1.32232972
H       -0.94974672      -1.19000131      -1.29420907
H        0.80836130       2.06715043      -0.25623251
H        1.68556967       0.98923351      -1.44304799
H        2.07165617       1.08206446       1.59695905
H        3.27206824       0.45427932       0.34785862
H        1.37656412      -1.55823186       0.18967648
16
Frame=10 idx=004370 GeodesicLength=0.8103263156278881 rxn_smarts="[C:1]([C:2]([O:3][C:4]([C:5]([O:6][H:16])([H:14])[H:15])([H:12])[H:13])([H:10])[H:11])([H:7])([H:8])[H:9]>>[C:1]([C:2]([O:3][O:6][H:16])([H:10])[H:11])([H:7])([H:8])[H:9].[C:4](=[C:5]([H:14])[H:15])([H:12])[H:13]"
C       -2.41269241      -0.65121757       0.20467046
C       -1.20996423      -0.28523637      -0.63875776
O       -0.07092484      -0.03264365       0.14731516
C        1.42329983       1.13035843      -0.44291389
C        2.25531703       0.68328067       0.59243266
O        1.22063621      -1.12990695       1.09947670
H       -2.20328266      -1.54293487       0.79614171
H       -3.27709545      -0.85023603      -0.43200509
H       -2.66223599       0.16692538       0.88259254
H       -1.41510236       0.60117217      -1.25158853
H       -0.94181672      -1.09518367      -1.32941432
H        0.86660060       2.05770777      -0.33691951
H        1.73234486       0.91198966      -1.46307343
H        2.07020559       1.11529123       1.57290527
H        3.28729233       0.44154851       0.36985418
H        1.33741823      -1.52091471       0.22928387
16
Frame=11 idx=004370 GeodesicLength=0.8818110862215761 rxn_smarts="[C:1]([C:2]([O:3][C:4]([C:5]([O:6][H:16])([H:14])[H:15])([H:12])[H:13])([H:10])[H:11])([H:7])([H:8])[H:9]>>[C:1]([C:2]([O:3][O:6][H:16])([H:10])[H:11])([H:7])([H:8])[H:9].[C:4](=[C:5]([H:14])[H:15])([H:12])[H:13]"
C       -2.41252829      -0.69088344       0.20090400
C       -1.22616853      -0.23749984      -0.62245740
O       -0.09547376       0.01232869       0.17685812
C        1.45051795       1.09348322      -0.47335111
C        2.26177176       0.66684833       0.59023769
O        1.18932950      -1.08329111       1.13570601
H       -2.17410882      -1.61088084       0.73519971
H       -3.27338333      -0.87585241      -0.44472043
H       -2.68345133       0.07588512       0.92863093
H       -1.46251621       0.67843756      -1.17782018
H       -0.93641441      -0.99674467      -1.36037930
H        0.92065402       2.04101582      -0.41619486
H        1.77474769       0.83258502      -1.47931038
H        2.06904443       1.14825328       1.54691814
H        3.30002979       0.42993018       0.39083670
H        1.29794954      -1.48361489       0.26894237
16
Frame=12 idx=004370 GeodesicLength=0.9533616189044212 rxn_smarts="[C:1]([C:2]([O:3][C:4]([C:5]([O:6][H:16])([H:14])[H:15])([H:12])[H:13])([H:10])[H:11])([H:7])([H:8])[H:9]>>[C:1]([C:2]([O:3][O:6][H:16])([H:10])[H:11])([H:7])([H:8])[H:9].[C:4](=[C:5]([H:14])[H:15])([H:12])[H:13]"
C       -2.40861712      -0.72813152       0.19469163
C       -1.24232297      -0.18951200      -0.60517221
O       -0.11906960       0.05744412       0.20602252
C        1.47430846       1.05395431      -0.50155525
C        2.26661775       0.65064370       0.58858097
O        1.15946429      -1.03591994       1.17152767
H       -2.13976069      -1.67170668       0.67021024
H       -3.26734263      -0.89889096      -0.45774504
H       -2.69835884      -0.01615252       0.96914603
H       -1.51102056       0.75115142      -1.10143653
H       -0.93363745      -0.89546538      -1.38704653
H        0.96973008       2.01720181      -0.49358131
H        1.81241374       0.75129524      -1.49177520
H        2.06825437       1.18070754       1.51906129
H        3.31056381       0.41977938       0.41044751
H        1.25877738      -1.44639852       0.30862419
16
Frame=13 idx=004370 GeodesicLength=1.0249951302598423 rxn_smarts="[C:1]([C:2]([O:3][C:4]([C:5]([O:6][H:16])([H:14])[H:15])([H:12])[H:13])([H:10])[H:11])([H:7])([H:8])[H:9]>>[C:1]([C:2]([O:3][O:6][H:16])([H:10])[H:11])([H:7])([H:8])[H:9].[C:4](=[C:5]([H:14])[H:15])([H:12])[H:13]"
C       -2.40109187      -0.76244166       0.18596430
C       -1.25806484      -0.14186241      -0.58685439
O       -0.14167371       0.10198835       0.23509551
C        1.49418566       1.01204446      -0.52725538
C        2.26985794       0.63465833       0.58728092
O        1.13164466      -0.98822294       1.20683488
H       -2.10124531      -1.72467108       0.60155854
H       -3.25872484      -0.91895416      -0.47135719
H       -2.70698874      -0.10787484       1.00349856
H       -1.55928871       0.81853002      -1.02267291
H       -0.93332195      -0.79271639      -1.40903294
H        1.01263592       1.98656472      -0.56814243
H        1.84478909       0.66883661      -1.50040405
H        2.06776945       1.21230978       1.48926936
H        3.31898915       0.41132572       0.42793796
H        1.22052809      -1.40951451       0.34827927
16
Frame=14 idx=004370 GeodesicLength=1.0968309223550015 rxn_smarts="[C:1]([C:2]([O:3][C:4]([C:5]([O:6][H:16])([H:14])[H:15])([H:12])[H:13])([H:10])[H:11])([H:7])([H:8])[H:9]>>[C:1]([C:2]([O:3][O:6][H:16])([H:10])[H:11])([H:7])([H:8])[H:9].[C:4](=[C:5]([H:14])[H:15])([H:12])[H:13]"
C       -2.39048947      -0.79372747       0.17482172
C       -1.27326197      -0.09489665      -0.56757972
O       -0.16320777       0.14558100       0.26442658
C        1.51023726       0.96814320      -0.55031127
C        2.27178380       0.61897562       0.58630860
O        1.10628130      -0.94042520       1.24159253
H       -2.05954179      -1.76974228       0.53022857
H       -3.24809558      -0.93616880      -0.48573252
H       -2.70981924      -0.19862444       1.03157320
H       -1.60693263       0.88023738      -0.94274907
H       -0.93506766      -0.68916264      -1.42640844
H        1.04935323       1.94974559      -0.63940875
H        1.87161550       0.58556034      -1.50535805
H        2.06781387       1.24268754       1.45783103
H        3.32563782       0.40471399       0.44302746
H        1.18369332      -1.37289720       0.38773814
16
Frame=15 idx=004370 GeodesicLength=1.1689059775671429 rxn_smarts="[C:1]([C:2]([O:3][C:4]([C:5]([O:6][H:16])([H:14])[H:15])([H:12])[H:13])([H:10])[H:11])([H:7])([H:8])[H:9]>>[C:1]([C:2]([O:3][O:6][H:16])([H:10])[H:11])([H:7])([H:8])[H:9].[C:4](=[C:5]([H:14])[H:15])([H:12])[H:13]"
C       -2.37699513      -0.82200450       0.16131950
C       -1.28780540      -0.04875194      -0.54740100
O       -0.18378127       0.18817138       0.29418706
C        1.52247499       0.92253041      -0.57075280
C        2.27257801       0.60353176       0.58553142
O        1.08336239      -0.89256738       1.27604673
H       -2.01507744      -1.80698739       0.45661398
H       -3.23534483      -0.95085883      -0.50107493
H       -2.70731864      -0.28787064       1.05320382
H       -1.65355365       0.93623999      -0.86191926
H       -0.93856850      -0.58532549      -1.43918700
H        1.07968260       1.90735986      -0.70710015
H        1.89283550       0.50182071      -1.50684576
H        2.06849493       1.27169951       1.42468159
H        3.33074184       0.39965556       0.45532293
H        1.14827463      -1.33664301       0.42737387
16
Frame=16 idx=004370 GeodesicLength=1.2417582133904919 rxn_smarts="[C:1]([C:2]([O:3][C:4]([C:5]([O:6][H:16])([H:14])[H:15])([H:12])[H:13])([H:10])[H:11])([H:7])([H:8])[H:9]>>[C:1]([C:2]([O:3][O:6][H:16])([H:10])[H:11])([H:7])([H:8])[H:9].[C:4](=[C:5]([H:14])[H:15])([H:12])[H:13]"
C       -2.36037568      -0.84757271       0.14545981
C       -1.30177951      -0.00300724      -0.52632762
O       -0.20359451       0.23034627       0.32444461
C        1.53110180       0.87508898      -0.58874637
C        2.27220747       0.58823725       0.58490502
O        1.06228898      -0.84409124       1.31059277
H       -1.96729969      -1.83680548       0.38041105
H       -3.22024438      -0.96343528      -0.51735759
H       -2.69923474      -0.37627553       1.06884924
H       -1.69962760       0.98700913      -0.78014013
H       -0.94361963      -0.48045070      -1.44775382
H        1.10405391       1.85961231      -0.77170886
H        1.90850608       0.41682813      -1.50491423
H        2.06970647       1.29947341       1.38961553
H        3.33422462       0.39551871       0.46487694
H        1.11368641      -1.30047602       0.46779364
