14
Frame=0 idx=002954 GeodesicLength=0.0 rxn_smarts="[O:1]([C@@:2]1([H:8])[C:3]([H:9])([H:10])[C@:4]([O:5][H:12])([H:11])[C:6]1([H:13])[H:14])[H:7]>>[C:4]([O:5][H:12])(=[C:6]([H:13])[H:14])[H:11].[O:1]([C:2](=[C:3]([H:9])[H:10])[H:8])[H:7]"
O        2.02293160       0.48845342       0.01870588
C        0.77987064       0.38019560       0.57115774
C       -0.26479597       1.32156484       0.30128090
C       -0.95898917      -0.85084186      -0.12829948
O       -1.55775390      -0.57501705      -1.27466260
C        0.30479742      -1.41895207      -0.12059372
H        1.96444059       1.18961700      -0.63874072
H        0.84391126       0.03310990       1.59802296
H       -0.26292939       1.76406900      -0.69471252
H       -0.47652066       2.01183669       1.11128993
H       -1.55532597      -0.81569690       0.77357523
H       -2.21653069       0.11280321      -1.11427883
H        0.81409559      -1.52667622      -1.06778755
H        0.56279867      -2.11446559       0.66504273
14
Frame=1 idx=002954 GeodesicLength=0.07579653712746481 rxn_smarts="[O:1]([C@@:2]1([H:8])[C:3]([H:9])([H:10])[C@:4]([O:5][H:12])([H:11])[C:6]1([H:13])[H:14])[H:7]>>[C:4]([O:5][H:12])(=[C:6]([H:13])[H:14])[H:11].[O:1]([C:2](=[C:3]([H:9])[H:10])[H:8])[H:7]"
O        2.02549935       0.50741562       0.01184740
C        0.79120151       0.39456045       0.58390954
C       -0.26677649       1.32265262       0.31973286
C       -0.95786900      -0.84960795      -0.13228700
O       -1.53586033      -0.55950978      -1.29005973
C        0.30398167      -1.42674857      -0.11178654
H        1.93906279       1.16128319      -0.69003174
H        0.87393404       0.05928297       1.61346142
H       -0.27186678       1.77372751      -0.67239460
H       -0.48797785       2.01055340       1.12940193
H       -1.57214361      -0.83450722       0.75838351
H       -2.20265984       0.12065108      -1.13234530
H        0.81563276      -1.54597294      -1.05690549
H        0.54584179      -2.13378038       0.66907375
14
Frame=2 idx=002954 GeodesicLength=0.15156407594278298 rxn_smarts="[O:1]([C@@:2]1([H:8])[C:3]([H:9])([H:10])[C@:4]([O:5][H:12])([H:11])[C:6]1([H:13])[H:14])[H:7]>>[C:4]([O:5][H:12])(=[C:6]([H:13])[H:14])[H:11].[O:1]([C:2](=[C:3]([H:9])[H:10])[H:8])[H:7]"
O        2.02736578       0.52705919       0.00280955
C        0.80300439       0.40943262       0.59612270
C       -0.26868903       1.32351742       0.33814700
C       -0.95674396      -0.84835994      -0.13611527
O       -1.51341756      -0.54406410      -1.30495920
C        0.30288052      -1.43478259      -0.10269363
H        1.91285284       1.13223127      -0.73792614
H        0.90582594       0.08716824       1.62813622
H       -0.28100598       1.78324998      -0.64994158
H       -0.49951060       2.00857008       1.14771288
H       -1.58921387      -0.85340944       0.74220408
H       -2.18801495       0.12863762      -1.15067804
H        0.81651093      -1.56585588      -1.04574933
H        0.52815554      -2.15339446       0.67293077
14
Frame=3 idx=002954 GeodesicLength=0.2272935891735397 rxn_smarts="[O:1]([C@@:2]1([H:8])[C:3]([H:9])([H:10])[C@:4]([O:5][H:12])([H:11])[C:6]1([H:13])[H:14])[H:7]>>[C:4]([O:5][H:12])(=[C:6]([H:13])[H:14])[H:11].[O:1]([C:2](=[C:3]([H:9])[H:10])[H:8])[H:7]"
O        2.02853351       0.54725982      -0.00815715
C        0.81528029       0.42482030       0.60781535
C       -0.27050187       1.32411473       0.35651704
C       -0.95564565      -0.84712307      -0.13977007
O       -1.49047511      -0.52871547      -1.31931742
C        0.30147068      -1.44305423      -0.09333407
H        1.88596485       1.10264104      -0.78252310
H        0.93948107       0.11690216       1.64196915
H       -0.29033085       1.79253734      -0.62737569
H       -0.51107075       2.00585747       1.16618661
H       -1.60653575      -0.87244654       0.72501283
H       -2.17260853       0.13676298      -1.16920272
H        0.81671210      -1.58620649      -1.03434568
H        0.50972602      -2.17335003       0.67652491
14
Frame=4 idx=002954 GeodesicLength=0.30299589406991156 rxn_smarts="[O:1]([C@@:2]1([H:8])[C:3]([H:9])([H:10])[C@:4]([O:5][H:12])([H:11])[C:6]1([H:13])[H:14])[H:7]>>[C:4]([O:5][H:12])(=[C:6]([H:13])[H:14])[H:11].[O:1]([C:2](=[C:3]([H:9])[H:10])[H:8])[H:7]"
O        2.02901057       0.56787990      -0.02082441
C        0.82802551       0.44072157       0.61901235
C       -0.27218529       1.32441470       0.37481241
C       -0.95461818      -0.84593788      -0.14322274
O       -1.46712951      -0.51351393      -1.33308158
C        0.29972730      -1.45157245      -0.08374596
H        1.85862706       1.07272230      -0.82381228
H        0.97478448       0.14861960       1.65490930
H       -0.29981513       1.80148586      -0.60476311
H       -0.52260775       2.00244276       1.18474698
H       -1.62409036      -0.89167162       0.70681248
H       -2.15649962       0.14501382      -1.18782187
H        0.81620546      -1.60690791      -1.02276188
H        0.49056546      -2.19369671       0.67974030
14
Frame=5 idx=002954 GeodesicLength=0.37875134619019635 rxn_smarts="[O:1]([C@@:2]1([H:8])[C:3]([H:9])([H:10])[C@:4]([O:5][H:12])([H:11])[C:6]1([H:13])[H:14])[H:7]>>[C:4]([O:5][H:12])(=[C:6]([H:13])[H:14])[H:11].[O:1]([C:2](=[C:3]([H:9])[H:10])[H:8])[H:7]"
O        2.02883537       0.58878139      -0.03497819
C        0.84125041       0.45712919       0.62978037
C       -0.27372867       1.32441449       0.39305775
C       -0.95366159      -0.84484326      -0.14645117
O       -1.44340854      -0.49848969      -1.34623434
C        0.29764666      -1.46037322      -0.07393173
H        1.83090418       1.04265386      -0.86204285
H        1.01161779       0.18246101       1.66694491
H       -0.30942892       1.81002322      -0.58208887
H       -0.53409354       1.99839893       1.20340557
H       -1.64186718      -0.91113566       0.68755206
H       -2.13968788       0.15339494      -1.20648069
H        0.81501911      -1.62789367      -1.01099360
H        0.47060282      -2.21452153       0.68246077
14
Frame=6 idx=002954 GeodesicLength=0.45446918964929117 rxn_smarts="[O:1]([C@@:2]1([H:8])[C:3]([H:9])([H:10])[C@:4]([O:5][H:12])([H:11])[C:6]1([H:13])[H:14])[H:7]>>[C:4]([O:5][H:12])(=[C:6]([H:13])[H:14])[H:11].[O:1]([C:2](=[C:3]([H:9])[H:10])[H:8])[H:7]"
O        2.02803732       0.60990998      -0.05025699
C        0.85492582       0.47407040       0.64014041
C       -0.27506240       1.32406571       0.41115978
C       -0.95284597      -0.84386313      -0.14941173
O       -1.41950924      -0.48371028      -1.35865172
C        0.29520032      -1.46941047      -0.06399097
H        1.80318318       1.01240620      -0.89706494
H        1.04975093       0.21860997       1.67799988
H       -0.31910325       1.81801279      -0.55950079
H       -0.54548319       1.99369546       1.22197706
H       -1.65979374      -0.93089842       0.66729639
H       -2.12232889       0.16185741      -1.22496244
H        0.81308628      -1.64892102      -0.99920576
H        0.44994283      -2.23582460       0.68447181
14
Frame=7 idx=002954 GeodesicLength=0.5301703951232036 rxn_smarts="[O:1]([C@@:2]1([H:8])[C:3]([H:9])([H:10])[C@:4]([O:5][H:12])([H:11])[C:6]1([H:13])[H:14])[H:7]>>[C:4]([O:5][H:12])(=[C:6]([H:13])[H:14])[H:11].[O:1]([C:2](=[C:3]([H:9])[H:10])[H:8])[H:7]"
O        2.02666593       0.63118561      -0.06643207
C        0.86904714       0.49155102       0.65012946
C       -0.27615249       1.32336566       0.42910274
C       -0.95220599      -0.84302500      -0.15207417
O       -1.39552123      -0.46920786      -1.37029258
C        0.29237110      -1.47869563      -0.05396014
H        1.77567674       0.98200983      -0.92896937
H        1.08902053       0.25724664       1.68804260
H       -0.32880968       1.82539465      -0.53703766
H       -0.55676144       1.98833596       1.24043631
H       -1.67782683      -0.95100290       0.64604079
H       -2.10449286       0.17038386      -1.24315893
H        0.81039445      -1.66989319      -0.98746518
H        0.42859463      -2.25764865       0.68563818
14
Frame=8 idx=002954 GeodesicLength=0.6058498537628136 rxn_smarts="[O:1]([C@@:2]1([H:8])[C:3]([H:9])([H:10])[C@:4]([O:5][H:12])([H:11])[C:6]1([H:13])[H:14])[H:7]>>[C:4]([O:5][H:12])(=[C:6]([H:13])[H:14])[H:11].[O:1]([C:2](=[C:3]([H:9])[H:10])[H:8])[H:7]"
O        2.02476256       0.65252364      -0.08328300
C        0.88360662       0.50957088       0.65979033
C       -0.27696101       1.32230364       0.44685784
C       -0.95178491      -0.84236395      -0.15439868
O       -1.37156686      -0.45502602      -1.38110119
C        0.28913557      -1.48824427      -0.04388980
H        1.74864830       0.95152214      -0.95777637
H        1.12925976       0.29854142       1.69704779
H       -0.33850312       1.83210127      -0.51475557
H       -0.56789959       1.98235589       1.25871344
H       -1.69591670      -0.97149283       0.62379937
H       -2.08628518       0.17894535      -1.26094730
H        0.80692553      -1.69070781      -0.97585913
H        0.40657902      -2.28002933       0.68580226
14
Frame=9 idx=002954 GeodesicLength=0.6815224285758611 rxn_smarts="[O:1]([C@@:2]1([H:8])[C:3]([H:9])([H:10])[C@:4]([O:5][H:12])([H:11])[C:6]1([H:13])[H:14])[H:7]>>[C:4]([O:5][H:12])(=[C:6]([H:13])[H:14])[H:11].[O:1]([C:2](=[C:3]([H:9])[H:10])[H:8])[H:7]"
O        2.02242699       0.67380842      -0.10051111
C        0.89860399       0.52813090       0.66923867
C       -0.27744020       1.32085994       0.46438855
C       -0.95160649      -0.84191164      -0.15634147
O       -1.34779713      -0.44120786      -1.39100984
C        0.28548505      -1.49807670      -0.03384485
H        1.72229369       0.92098419      -0.98353102
H        1.17028601       0.34271690       1.70493555
H       -0.34806353       1.83804382      -0.49272921
H       -0.57890404       1.97581388       1.27669075
H       -1.71402006      -0.99240726       0.60061705
H       -2.06784457       0.18750149      -1.27815946
H        0.80269555      -1.71121428      -0.96448125
H        0.38388474      -2.30304180       0.68473763
14
Frame=10 idx=002954 GeodesicLength=0.7571520954318156 rxn_smarts="[O:1]([C@@:2]1([H:8])[C:3]([H:9])([H:10])[C@:4]([O:5][H:12])([H:11])[C:6]1([H:13])[H:14])[H:7]>>[C:4]([O:5][H:12])(=[C:6]([H:13])[H:14])[H:11].[O:1]([C:2](=[C:3]([H:9])[H:10])[H:8])[H:7]"
O        2.01966988       0.69504755      -0.11801200
C        0.91402568       0.54725008       0.67845278
C       -0.27754942       1.31902350       0.48171356
C       -0.95172846      -0.84167559      -0.15788305
O       -1.32426262      -0.42775196      -1.40000439
C        0.28138460      -1.50821452      -0.02384162
H        1.69686021       0.89029237      -1.00626671
H        1.21192511       0.38996500       1.71161947
H       -0.35751454       1.84322663      -0.47093683
H       -0.58974009       1.96861062       1.29441412
H       -1.73208351      -1.01375418       0.57647784
H       -2.04921843       0.19605890      -1.29474093
H        0.79767370      -1.73140451      -0.95338934
H        0.36055791      -2.32667389       0.68239709
14
Frame=11 idx=002954 GeodesicLength=0.8327249006186721 rxn_smarts="[O:1]([C@@:2]1([H:8])[C:3]([H:9])([H:10])[C@:4]([O:5][H:12])([H:11])[C:6]1([H:13])[H:14])[H:7]>>[C:4]([O:5][H:12])(=[C:6]([H:13])[H:14])[H:11].[O:1]([C:2](=[C:3]([H:9])[H:10])[H:8])[H:7]"
O        2.01654005       0.71617508      -0.13564352
C        0.92987884       0.56692663       0.68748163
C       -0.27725108       1.31678181       0.49884091
C       -0.95218439      -0.84168067      -0.15899755
O       -1.30103085      -0.41467267      -1.40806368
C        0.27680354      -1.51868993      -0.01390941
H        1.67251348       0.85942383      -1.02606901
H        1.25402365       0.44047196       1.71704730
H       -0.36681839       1.84763029      -0.44937262
H       -0.60039483       1.96072816       1.31188561
H       -1.75005758      -1.03554065       0.55137739
H       -2.03047209       0.20460092      -1.31061834
H        0.79185527      -1.75123170      -0.94262848
H        0.33659439      -2.35092306       0.67866976
14
Frame=12 idx=002954 GeodesicLength=0.9082283445359634 rxn_smarts="[O:1]([C@@:2]1([H:8])[C:3]([H:9])([H:10])[C@:4]([O:5][H:12])([H:11])[C:6]1([H:13])[H:14])[H:7]>>[C:4]([O:5][H:12])(=[C:6]([H:13])[H:14])[H:11].[O:1]([C:2](=[C:3]([H:9])[H:10])[H:8])[H:7]"
O        2.01306369       0.73714539      -0.15332543
C        0.94617352       0.58717011       0.69635866
C       -0.27650756       1.31411258       0.51580828
C       -0.95300856      -0.84194273      -0.15967054
O       -1.27812663      -0.40196670      -1.41518202
C        0.27170538      -1.52954662      -0.00406081
H        1.64940180       0.82833063      -1.04300293
H        1.29644019       0.49444201       1.72108029
H       -0.37596014       1.85125445      -0.42798386
H       -0.61084940       1.95209733       1.32915878
H       -1.76791797      -1.05775343       0.52528271
H       -2.01164001       0.21312447      -1.32574862
H        0.78524435      -1.77069043      -0.93222247
H        0.31198134      -2.37577708       0.67350797
14
Frame=13 idx=002954 GeodesicLength=0.9836934771117227 rxn_smarts="[O:1]([C@@:2]1([H:8])[C:3]([H:9])([H:10])[C@:4]([O:5][H:12])([H:11])[C:6]1([H:13])[H:14])[H:7]>>[C:4]([O:5][H:12])(=[C:6]([H:13])[H:14])[H:11].[O:1]([C:2](=[C:3]([H:9])[H:10])[H:8])[H:7]"
O        2.00929861       0.75786916      -0.17091235
C        0.96293011       0.60799782       0.70517668
C       -0.27526637       1.31097242       0.53265648
C       -0.95422447      -0.84247468      -0.15989001
O       -1.25558774      -0.38963142      -1.42135249
C        0.26606248      -1.54085131       0.00568753
H        1.62760267       0.79698269      -1.05708688
H        1.33903334       0.55218833       1.72343538
H       -0.38486750       1.85408083      -0.40671665
H       -0.62111266       1.94262379       1.34626671
H       -1.78565092      -1.08034851       0.49819180
H       -1.99276126       0.22163672      -1.34007670
H        0.77787117      -1.78976884      -0.92219869
H        0.28667254      -2.40127702       0.66681917
14
Frame=14 idx=002954 GeodesicLength=1.0590593153724328 rxn_smarts="[O:1]([C@@:2]1([H:8])[C:3]([H:9])([H:10])[C@:4]([O:5][H:12])([H:11])[C:6]1([H:13])[H:14])[H:7]>>[C:4]([O:5][H:12])(=[C:6]([H:13])[H:14])[H:11].[O:1]([C:2](=[C:3]([H:9])[H:10])[H:8])[H:7]"
O        2.00521012       0.77833626      -0.18843336
C        0.98016068       0.62942013       0.71391191
C       -0.27349451       1.30733877       0.54945011
C       -0.95587436      -0.84329034      -0.15965957
O       -1.23337617      -0.37763960      -1.42659205
C        0.25981693      -1.55264180       0.01533797
H        1.60725372       0.76528580      -1.06840787
H        1.38161061       0.61382868       1.72399470
H       -0.39358906       1.85613996      -0.38546568
H       -0.63112185       1.93219809       1.36333805
H       -1.80319770      -1.10328494       0.47004509
H       -1.97380334       0.23016038      -1.35362023
H        0.76971359      -1.80852046      -0.91254955
H        0.26069135      -2.42733093       0.65865048
14
Frame=15 idx=002954 GeodesicLength=1.1343364711125679 rxn_smarts="[O:1]([C@@:2]1([H:8])[C:3]([H:9])([H:10])[C@:4]([O:5][H:12])([H:11])[C:6]1([H:13])[H:14])[H:7]>>[C:4]([O:5][H:12])(=[C:6]([H:13])[H:14])[H:11].[O:1]([C:2](=[C:3]([H:9])[H:10])[H:8])[H:7]"
O        2.00080393       0.79852978      -0.20589595
C        0.99790429       0.65147052       0.72258136
C       -0.27115366       1.30316514       0.56627708
C       -0.95797979      -0.84439679      -0.15898895
O       -1.21141818      -0.36596496      -1.43092112
C        0.25291845      -1.56497527       0.02491566
H        1.58837653       0.73317021      -1.07705093
H        1.42401161       0.67954815       1.72247271
H       -0.40214156       1.85744791      -0.36408423
H       -0.64083913       1.92066049       1.38052647
H       -1.82055433      -1.12649106       0.44075624
H       -1.95469719       0.23872265      -1.36640979
H        0.76078805      -1.82699880      -0.90322995
H        0.23398098      -2.45388796       0.64905140
14
Frame=16 idx=002954 GeodesicLength=1.2095205855462638 rxn_smarts="[O:1]([C@@:2]1([H:8])[C:3]([H:9])([H:10])[C@:4]([O:5][H:12])([H:11])[C:6]1([H:13])[H:14])[H:7]>>[C:4]([O:5][H:12])(=[C:6]([H:13])[H:14])[H:11].[O:1]([C:2](=[C:3]([H:9])[H:10])[H:8])[H:7]"
O        1.99606372       0.81841083      -0.22329362
C        1.01619289       0.67419598       0.73121009
C       -0.26819552       1.29839777       0.58321686
C       -0.96056779      -0.84580062      -0.15789552
O       -1.18965759      -0.35457537      -1.43435549
C        0.24531651      -1.57791261       0.03442292
H        1.57103708       0.70056683      -1.08302305
H        1.46600402       0.74951049       1.71850770
H       -0.41052998       1.85801051      -0.34243581
H       -0.65021879       1.90784410       1.39797067
H       -1.83768782      -1.14986790       0.41027688
H       -1.93538565       0.24736417      -1.37846246
H        0.75110733      -1.84525971      -0.89422186
H        0.20652159      -2.48088448       0.63808267
