17
Frame=0 idx=011932 GeodesicLength=0.0 rxn_smarts="[C:1]([C@@:2]1([H:11])[C@@:3]2([H:12])[C:4]([H:13])([H:14])[C:5]([H:15])=[C:6]([H:16])[C@@:7]12[H:17])([H:8])([H:9])[H:10]>>[C:1](/[C:2](=[C:3](\[C:4]([C:5](=[C:6]=[C:7]([H:16])[H:17])[H:15])([H:13])[H:14])[H:12])[H:11])([H:8])([H:9])[H:10]"
C       -1.94902179       0.50416455      -0.36891999
C       -1.15676416      -0.63309998      -0.93108154
C        0.14685947      -0.63703873      -1.19060728
C        1.08654743       0.51024192      -0.95022556
C        1.53252711       0.64275108       0.49044576
C        1.02222125      -0.10472837       1.45267950
C        0.14919415      -0.93012921       2.08734750
H       -2.84408991       0.68712252      -0.96794389
H       -2.27573934       0.26605666       0.64668020
H       -1.37223496       1.42748519      -0.31812767
H       -1.71408848      -1.54421439      -1.13279354
H        0.58891769      -1.55072103      -1.57638484
H        0.61857444       1.45260413      -1.25595752
H        1.97009809       0.39780355      -1.58429434
H        2.28787567       1.38101488       0.72583083
H        1.29588565       0.03777504       2.57851341
H        0.61323774      -1.90708774       2.29483894
17
Frame=1 idx=011932 GeodesicLength=0.10847223933216613 rxn_smarts="[C:1]([C@@:2]1([H:11])[C@@:3]2([H:12])[C:4]([H:13])([H:14])[C:5]([H:15])=[C:6]([H:16])[C@@:7]12[H:17])([H:8])([H:9])[H:10]>>[C:1](/[C:2](=[C:3](\[C:4]([C:5](=[C:6]=[C:7]([H:16])[H:17])[H:15])([H:13])[H:14])[H:12])[H:11])([H:8])([H:9])[H:10]"
C       -1.95290302       0.51048240      -0.36590950
C       -1.15355648      -0.64174869      -0.88666127
C        0.15231334      -0.64581111      -1.15753961
C        1.08751515       0.51261617      -0.95019677
C        1.54317996       0.66158818       0.48603107
C        1.06970992      -0.11637079       1.44170761
C        0.16264509      -0.94833712       2.02106673
H       -2.82339567       0.69781531      -0.99894283
H       -2.32112096       0.28522151       0.63836260
H       -1.36982840       1.42885177      -0.30040607
H       -1.71470501      -1.54761463      -1.10063383
H        0.59262805      -1.55939807      -1.54501184
H        0.61108893       1.44847954      -1.26197665
H        1.96521390       0.39700622      -1.59179211
H        2.29256555       1.40718809       0.71696594
H        1.24764189       0.03502387       2.59789627
H        0.61100775      -1.92499262       2.25704025
17
Frame=2 idx=011932 GeodesicLength=0.21579493575391018 rxn_smarts="[C:1]([C@@:2]1([H:11])[C@@:3]2([H:12])[C:4]([H:13])([H:14])[C:5]([H:15])=[C:6]([H:16])[C@@:7]12[H:17])([H:8])([H:9])[H:10]>>[C:1](/[C:2](=[C:3](\[C:4]([C:5](=[C:6]=[C:7]([H:16])[H:17])[H:15])([H:13])[H:14])[H:12])[H:11])([H:8])([H:9])[H:10]"
C       -1.95668539       0.51722601      -0.36395035
C       -1.15097710      -0.64919662      -0.84260476
C        0.15726874      -0.65426103      -1.12436206
C        1.08819410       0.51389623      -0.94904769
C        1.55244648       0.67887813       0.48282972
C        1.11021468      -0.12147384       1.43413277
C        0.17948735      -0.96659182       1.95850710
H       -2.80173626       0.70724698      -1.02989238
H       -2.36518796       0.30564126       0.62763430
H       -1.36827677       1.43104271      -0.28460286
H       -1.71535554      -1.55062094      -1.06646894
H        0.59477275      -1.56721038      -1.51601590
H        0.60442585       1.44351933      -1.26737949
H        1.96056054       0.39422468      -1.59716622
H        2.29636688       1.43149090       0.70856318
H        1.19945618       0.02863292       2.61367895
H        0.61502547      -1.94244452       2.21614460
17
Frame=3 idx=011932 GeodesicLength=0.3221657263956356 rxn_smarts="[C:1]([C@@:2]1([H:11])[C@@:3]2([H:12])[C:4]([H:13])([H:14])[C:5]([H:15])=[C:6]([H:16])[C@@:7]12[H:17])([H:8])([H:9])[H:10]>>[C:1](/[C:2](=[C:3](\[C:4]([C:5](=[C:6]=[C:7]([H:16])[H:17])[H:15])([H:13])[H:14])[H:12])[H:11])([H:8])([H:9])[H:10]"
C       -1.96008817       0.52403161      -0.36255807
C       -1.14868981      -0.65548483      -0.79904916
C        0.16193399      -0.66215331      -1.09176404
C        1.08871730       0.51449500      -0.94734300
C        1.56072199       0.69488423       0.48024241
C        1.14429536      -0.12154668       1.42885633
C        0.19810544      -0.98385491       1.89966211
H       -2.77917388       0.71512880      -1.05996657
H       -2.40729430       0.32648107       0.61510902
H       -1.36737266       1.43379462      -0.27018890
H       -1.71572465      -1.55333200      -1.03048819
H        0.59577935      -1.57423994      -1.48902335
H        0.59843869       1.43810874      -1.27245680
H        1.95618322       0.39019204      -1.60116963
H        2.29948118       1.45419942       0.70049395
H        1.15203853       0.01835273       2.62637241
H        0.62264841      -1.95905658       2.17327148
17
Frame=4 idx=011932 GeodesicLength=0.4278273100013529 rxn_smarts="[C:1]([C@@:2]1([H:11])[C@@:3]2([H:12])[C:4]([H:13])([H:14])[C:5]([H:15])=[C:6]([H:16])[C@@:7]12[H:17])([H:8])([H:9])[H:10]>>[C:1](/[C:2](=[C:3](\[C:4]([C:5](=[C:6]=[C:7]([H:16])[H:17])[H:15])([H:13])[H:14])[H:12])[H:11])([H:8])([H:9])[H:10]"
C       -1.96308889       0.53067988      -0.36154611
C       -1.14651514      -0.66067806      -0.75604484
C        0.16640960      -0.66936657      -1.06010442
C        1.08911948       0.51472344      -0.94537707
C        1.56829857       0.70982339       0.47796803
C        1.17305013      -0.11804379       1.42515462
C        0.21759495      -0.99945595       1.84439509
H       -2.75583366       0.72134364      -1.08893926
H       -2.44738749       0.34720613       0.60105281
H       -1.36710356       1.43694678      -0.25686536
H       -1.71567725      -1.55581821      -0.99290910
H        0.59593362      -1.58055509      -1.46371969
H        0.59293342       1.43255377      -1.27726277
H        1.95201724       0.38548757      -1.60430529
H        2.30219746       1.47547350       0.69268002
H        1.10604656       0.00421393       2.63647009
H        0.63200495      -1.97453436       2.12935323
17
Frame=5 idx=011932 GeodesicLength=0.5331800073815152 rxn_smarts="[C:1]([C@@:2]1([H:11])[C@@:3]2([H:12])[C:4]([H:13])([H:14])[C:5]([H:15])=[C:6]([H:16])[C@@:7]12[H:17])([H:8])([H:9])[H:10]>>[C:1](/[C:2](=[C:3](\[C:4]([C:5](=[C:6]=[C:7]([H:16])[H:17])[H:15])([H:13])[H:14])[H:12])[H:11])([H:8])([H:9])[H:10]"
C       -1.96554769       0.53706228      -0.36061459
C       -1.14433559      -0.66479333      -0.71375390
C        0.17076726      -0.67583990      -1.02967193
C        1.08950829       0.51470597      -0.94337614
C        1.57532553       0.72368956       0.47573566
C        1.19699421      -0.11185622       1.42257334
C        0.23738022      -1.01368848       1.79209238
H       -2.73201212       0.72583016      -1.11618233
H       -2.48493702       0.36750619       0.58608810
H       -1.36729006       1.44043154      -0.24456109
H       -1.71523990      -1.55795937      -0.95414730
H        0.59536386      -1.58609304      -1.44007836
H        0.58796878       1.42695765      -1.28187923
H        1.94814034       0.38040810      -1.60687805
H        2.30482309       1.49513043       0.68498617
H        1.06040548      -0.01239644       2.64447711
H        0.64268531      -1.98909511       2.08519018
17
Frame=6 idx=011932 GeodesicLength=0.6381461788430702 rxn_smarts="[C:1]([C@@:2]1([H:11])[C@@:3]2([H:12])[C:4]([H:13])([H:14])[C:5]([H:15])=[C:6]([H:16])[C@@:7]12[H:17])([H:8])([H:9])[H:10]>>[C:1](/[C:2](=[C:3](\[C:4]([C:5](=[C:6]=[C:7]([H:16])[H:17])[H:15])([H:13])[H:14])[H:12])[H:11])([H:8])([H:9])[H:10]"
C       -1.96767075       0.54308434      -0.35989221
C       -1.14208085      -0.66791772      -0.67204647
C        0.17503757      -0.68158383      -1.00043787
C        1.08981849       0.51462843      -0.94136127
C        1.58199583       0.73671568       0.47355532
C        1.21717532      -0.10381303       1.42079242
C        0.25709696      -1.02584081       1.74288817
H       -2.70773054       0.72863953      -1.14216574
H       -2.52058310       0.38712614       0.56998208
H       -1.36811514       1.44415295      -0.23311729
H       -1.71432691      -1.55984908      -0.91424765
H        0.59428525      -1.59102698      -1.41768978
H        0.58327790       1.42151877      -1.28620945
H        1.94438955       0.37525788      -1.60909292
H        2.30747101       1.51347725       0.67745645
H        1.01671076      -0.03228666       2.65057064
H        0.65324866      -2.00228285       2.04101557
17
Frame=7 idx=011932 GeodesicLength=0.7428693535538856 rxn_smarts="[C:1]([C@@:2]1([H:11])[C@@:3]2([H:12])[C:4]([H:13])([H:14])[C:5]([H:15])=[C:6]([H:16])[C@@:7]12[H:17])([H:8])([H:9])[H:10]>>[C:1](/[C:2](=[C:3](\[C:4]([C:5](=[C:6]=[C:7]([H:16])[H:17])[H:15])([H:13])[H:14])[H:12])[H:11])([H:8])([H:9])[H:10]"
C       -1.96944753       0.54870749      -0.35927580
C       -1.13969619      -0.67008498      -0.63095446
C        0.17924936      -0.68662119      -0.97244294
C        1.09008706       0.51454697      -0.93940686
C        1.58840458       0.74892906       0.47133634
C        1.23403006      -0.09435501       1.41959649
C        0.27646392      -1.03609584       1.69644768
H       -2.68312054       0.72985327      -1.16674970
H       -2.55429023       0.40588456       0.55296837
H       -1.36950759       1.44806152      -0.22244452
H       -1.71296705      -1.56140792      -0.87347280
H        0.59278008      -1.59538930      -1.39644301
H        0.57885626       1.41628858      -1.29027408
H        1.94076481       0.37016281      -1.61109092
H        2.31026060       1.53052476       0.67003482
H        0.97470151      -0.05479487       2.65501887
H        0.66343091      -2.01420990       1.99715253
17
Frame=8 idx=011932 GeodesicLength=0.8474018214484867 rxn_smarts="[C:1]([C@@:2]1([H:11])[C@@:3]2([H:12])[C:4]([H:13])([H:14])[C:5]([H:15])=[C:6]([H:16])[C@@:7]12[H:17])([H:8])([H:9])[H:10]>>[C:1](/[C:2](=[C:3](\[C:4]([C:5](=[C:6]=[C:7]([H:16])[H:17])[H:15])([H:13])[H:14])[H:12])[H:11])([H:8])([H:9])[H:10]"
C       -1.97090564       0.55392863      -0.35872470
C       -1.13715024      -0.67132850      -0.59046114
C        0.18341106      -0.69100156      -0.94567384
C        1.09033271       0.51449177      -0.93754867
C        1.59464217       0.76037976       0.46905077
C        1.24793966      -0.08379001       1.41885794
C        0.29535637      -1.04461542       1.65253440
H       -2.65828522       0.72957842      -1.18993079
H       -2.58613713       0.42369040       0.53518474
H       -1.37143334       1.45214094      -0.21249627
H       -1.71119371      -1.56257671      -0.83200819
H        0.59089467      -1.59925315      -1.37624232
H        0.57468224       1.41130334      -1.29409046
H        1.93725083       0.36517734      -1.61296584
H        2.31325609       1.54635766       0.66271536
H        0.93424102      -0.07954985       2.65800731
H        0.67309849      -2.02493305       1.95379170
17
Frame=9 idx=011932 GeodesicLength=0.95197288651031 rxn_smarts="[C:1]([C@@:2]1([H:11])[C@@:3]2([H:12])[C:4]([H:13])([H:14])[C:5]([H:15])=[C:6]([H:16])[C@@:7]12[H:17])([H:8])([H:9])[H:10]>>[C:1](/[C:2](=[C:3](\[C:4]([C:5](=[C:6]=[C:7]([H:16])[H:17])[H:15])([H:13])[H:14])[H:12])[H:11])([H:8])([H:9])[H:10]"
C       -1.97194476       0.55874062      -0.35802463
C       -1.13437832      -0.67169275      -0.55066892
C        0.18756899      -0.69478481      -0.92020015
C        1.09064899       0.51442612      -0.93586420
C        1.60076657       0.77102823       0.46659928
C        1.25894089      -0.07222553       1.41848352
C        0.31369710      -1.05177803       1.61069229
H       -2.63346837       0.72791415      -1.21131198
H       -2.61578782       0.44046490       0.51715252
H       -1.37369772       1.45636505      -0.20323787
H       -1.70904249      -1.56325922      -0.79017510
H        0.58867221      -1.60264092      -1.35714747
H        0.57086087       1.40650559      -1.29774128
H        1.93395369       0.36027423      -1.61477622
H        2.31649532       1.56094962       0.65546448
H        0.89422558      -0.10566777       2.65966614
H        0.68248929      -2.03461949       1.91108960
17
Frame=10 idx=011932 GeodesicLength=1.056461037230502 rxn_smarts="[C:1]([C@@:2]1([H:11])[C@@:3]2([H:12])[C:4]([H:13])([H:14])[C:5]([H:15])=[C:6]([H:16])[C@@:7]12[H:17])([H:8])([H:9])[H:10]>>[C:1](/[C:2](=[C:3](\[C:4]([C:5](=[C:6]=[C:7]([H:16])[H:17])[H:15])([H:13])[H:14])[H:12])[H:11])([H:8])([H:9])[H:10]"
C       -1.97266854       0.56314249      -0.35725066
C       -1.13136895      -0.67121986      -0.51149062
C        0.19171978      -0.69802179      -0.89592234
C        1.09100623       0.51440296      -0.93434077
C        1.60687776       0.78096892       0.46402497
C        1.26743600      -0.05986750       1.41839282
C        0.33140840      -1.05746904       1.57093330
H       -2.60865610       0.72498253      -1.23117884
H       -2.64361294       0.45613995       0.49875553
H       -1.37636239       1.46070527      -0.19459324
H       -1.70650005      -1.56346924      -0.74800301
H        0.58618264      -1.60566025      -1.33895791
H        0.56729227       1.40196697      -1.30119912
H        1.93079091       0.35551976      -1.61659775
H        2.32002912       1.57445545       0.64830423
H        0.85522140      -0.13341935       2.66001289
H        0.69120445      -2.04315726       1.86911053
17
Frame=11 idx=011932 GeodesicLength=1.16095894760431 rxn_smarts="[C:1]([C@@:2]1([H:11])[C@@:3]2([H:12])[C:4]([H:13])([H:14])[C:5]([H:15])=[C:6]([H:16])[C@@:7]12[H:17])([H:8])([H:9])[H:10]>>[C:1](/[C:2](=[C:3](\[C:4]([C:5](=[C:6]=[C:7]([H:16])[H:17])[H:15])([H:13])[H:14])[H:12])[H:11])([H:8])([H:9])[H:10]"
C       -1.97304830       0.56713443      -0.35629998
C       -1.12808067      -0.66995886      -0.47295335
C        0.19589001      -0.70076759      -0.87283415
C        1.09144685       0.51440998      -0.93301360
C        1.61303074       0.79019570       0.46128835
C        1.27348721      -0.04675060       1.41852795
C        0.34845040      -1.06186883       1.53301516
H       -2.58395552       0.72090780      -1.24941915
H       -2.66956851       0.47065374       0.48024739
H       -1.37932480       1.46512720      -0.18647997
H       -1.70357031      -1.56317257      -0.70566623
H        0.58347517      -1.60835398      -1.32164409
H        0.56400850       1.39766772      -1.30450274
H        1.92779724       0.35090559      -1.61847806
H        2.32389272       1.58689300       0.64121754
H        0.81676660      -0.16240611       2.65907522
H        0.69930269      -2.05061661       1.82791971
17
Frame=12 idx=011932 GeodesicLength=1.265535683106254 rxn_smarts="[C:1]([C@@:2]1([H:11])[C@@:3]2([H:12])[C:4]([H:13])([H:14])[C:5]([H:15])=[C:6]([H:16])[C@@:7]12[H:17])([H:8])([H:9])[H:10]>>[C:1](/[C:2](=[C:3](\[C:4]([C:5](=[C:6]=[C:7]([H:16])[H:17])[H:15])([H:13])[H:14])[H:12])[H:11])([H:8])([H:9])[H:10]"
C       -1.97306655       0.57072695      -0.35509142
C       -1.12447742      -0.66795974      -0.43506484
C        0.20009894      -0.70308010      -0.85092095
C        1.09200377       0.51443328      -0.93191031
C        1.61927632       0.79870922       0.45836979
C        1.27711463      -0.03287157       1.41884397
C        0.36482845      -1.06512501       1.49674702
H       -2.55945340       0.71581804      -1.26597601
H       -2.69365341       0.48397912       0.46184320
H       -1.38249538       1.46960467      -0.17882199
H       -1.70025264      -1.56235247      -0.66329414
H        0.58059184      -1.61077701      -1.30517419
H        0.56102977       1.39359095      -1.30769198
H        1.92499935       0.34641236      -1.62045490
H        2.32811441       1.59828855       0.63420286
H        0.77846178      -0.19235920       2.65683838
H        0.70687952      -2.05703804       1.78755550
17
Frame=13 idx=011932 GeodesicLength=1.3702693400381785 rxn_smarts="[C:1]([C@@:2]1([H:11])[C@@:3]2([H:12])[C:4]([H:13])([H:14])[C:5]([H:15])=[C:6]([H:16])[C@@:7]12[H:17])([H:8])([H:9])[H:10]>>[C:1](/[C:2](=[C:3](\[C:4]([C:5](=[C:6]=[C:7]([H:16])[H:17])[H:15])([H:13])[H:14])[H:12])[H:11])([H:8])([H:9])[H:10]"
C       -1.97269958       0.57393219      -0.35353809
C       -1.12052109      -0.66527831      -0.39783687
C        0.20436763      -0.70501793      -0.83017384
C        1.09271025       0.51445497      -0.93105972
C        1.62565430       0.80650442       0.45525368
C        1.27828279      -0.01819132       1.41929384
C        0.38056271      -1.06736265       1.46195628
H       -2.53523122       0.70984423      -1.28079063
H       -2.71585795       0.49610264       0.44376915
H       -1.38577647       1.47410904      -0.17153387
H       -1.69653970      -1.56100565      -0.62100518
H        0.57758008      -1.61298575      -1.28952047
H        0.55837818       1.38971412      -1.31081238
H        1.92243047       0.34201485      -1.62255897
H        2.33271371       1.60865927       0.62726389
H        0.73989335      -0.22304453       2.65324917
H        0.71405255      -2.06244957       1.74804401
17
Frame=14 idx=011932 GeodesicLength=1.4752346941112875 rxn_smarts="[C:1]([C@@:2]1([H:11])[C@@:3]2([H:12])[C:4]([H:13])([H:14])[C:5]([H:15])=[C:6]([H:16])[C@@:7]12[H:17])([H:8])([H:9])[H:10]>>[C:1](/[C:2](=[C:3](\[C:4]([C:5](=[C:6]=[C:7]([H:16])[H:17])[H:15])([H:13])[H:14])[H:12])[H:11])([H:8])([H:9])[H:10]"
C       -1.97192627       0.57676653      -0.35156420
C       -1.11617613      -0.66197192      -0.36127786
C        0.20871514      -0.70663775      -0.81058185
C        1.09359670       0.51445598      -0.93048564
C        1.63218690       0.81357726       0.45193634
C        1.27692324      -0.00265064       1.41982459
C        0.39567920      -1.06867658       1.42849939
H       -2.51136729       0.70310879      -1.29382497
H       -2.73618036       0.50703536       0.42623953
H       -1.38907511       1.47861617      -0.16454429
H       -1.69242009      -1.55914108      -0.57889357
H        0.57449071      -1.61503737      -1.27464668
H        0.55607504       1.38601111      -1.31391222
H        1.92012829       0.33768431      -1.62480723
H        2.33768865       1.61802539       0.62041688
H        0.70072510      -0.25429711       2.64822608
H        0.72093628      -2.06686846       1.70939570
17
Frame=15 idx=011932 GeodesicLength=1.5805301997058898 rxn_smarts="[C:1]([C@@:2]1([H:11])[C@@:3]2([H:12])[C:4]([H:13])([H:14])[C:5]([H:15])=[C:6]([H:16])[C@@:7]12[H:17])([H:8])([H:9])[H:10]>>[C:1](/[C:2](=[C:3](\[C:4]([C:5](=[C:6]=[C:7]([H:16])[H:17])[H:15])([H:13])[H:14])[H:12])[H:11])([H:8])([H:9])[H:10]"
C       -1.97072293       0.57924568      -0.34909356
C       -1.11140626      -0.65810383      -0.32540551
C        0.21316209      -0.70799490      -0.79213854
C        1.09469308       0.51441734      -0.93021097
C        1.63887971       0.81992269       0.44842128
C        1.27295662       0.01380996       1.42036410
C        0.41020214      -1.06913146       1.39624946
H       -2.48794505       0.69572770      -1.30504028
H       -2.75460900       0.51679983       0.40947837
H       -1.39229526       1.48310038      -0.15778435
H       -1.68787664      -1.55678066      -0.53705188
H        0.57138525      -1.61698967      -1.26051110
H        0.55414224       1.38245291      -1.31704236
H        1.91813646       0.33339449      -1.62720770
H        2.34302204       1.62640386       0.61368744
H        0.66065353      -0.28597256       2.64166527
H        0.72762198      -2.07030176       1.67162033
17
Frame=16 idx=011932 GeodesicLength=1.686260944530981 rxn_smarts="[C:1]([C@@:2]1([H:11])[C@@:3]2([H:12])[C:4]([H:13])([H:14])[C:5]([H:15])=[C:6]([H:16])[C@@:7]12[H:17])([H:8])([H:9])[H:10]>>[C:1](/[C:2](=[C:3](\[C:4]([C:5](=[C:6]=[C:7]([H:16])[H:17])[H:15])([H:13])[H:14])[H:12])[H:11])([H:8])([H:9])[H:10]"
C       -1.96907877       0.58138366      -0.34607310
C       -1.10618281      -0.65373877      -0.29023991
C        0.21772620      -0.70913801      -0.77482854
C        1.09602116       0.51432782      -0.93024825
C        1.64571595       0.82554629       0.44472824
C        1.26635695       0.03121268       1.42081405
C        0.42413988      -1.06874803       1.36511388
H       -2.46504416       0.68780181      -1.31443448
H       -2.77115857       0.52542825       0.39367497
H       -1.39536060       1.48753667      -0.15120146
H       -1.68288896      -1.55395930      -0.49556122
H        0.56833672      -1.61889688      -1.24704892
H        0.55259198       1.37901508      -1.32024484
H        1.91649400       0.32913257      -1.62975537
H        2.34868127       1.63381750       0.60711251
H        0.61953714      -0.31797228       2.63346439
H        0.73411262      -2.07274905       1.63472806
