13
Frame=0 idx=008538 GeodesicLength=0.0 rxn_smarts="[O:1]([C:2]1([C:6](=[O:7])[H:13])[C:3]([H:9])([H:10])[O:4][C:5]1([H:11])[H:12])[H:8]>>[O:1]([O:7][C:6](=[C:2]1[C:3]([H:9])([H:10])[O:4][C:5]1([H:11])[H:12])[H:13])[H:8]"
O        1.51290027      -0.69072679      -1.43480736
C       -0.04790875       0.29338565       0.25518520
C       -0.76496132      -0.65198667      -0.61330016
O       -2.03594395      -0.09201809      -0.24189485
C       -1.38937215       0.84729282       0.62027726
C        1.21517631       0.29976419       0.87218298
O        2.30519494       0.07939416       0.35867936
H        2.41775344      -0.87157465      -1.71249254
H       -0.67135819      -1.71693416      -0.38875744
H       -0.46839050      -0.52404564      -1.67852436
H       -1.56956478       1.88715987       0.32668478
H       -1.67648771       0.71458976       1.66989545
H        1.17296242       0.42569958       1.96687169
13
Frame=1 idx=008538 GeodesicLength=0.07671665786085044 rxn_smarts="[O:1]([C:2]1([C:6](=[O:7])[H:13])[C:3]([H:9])([H:10])[O:4][C:5]1([H:11])[H:12])[H:8]>>[O:1]([O:7][C:6](=[C:2]1[C:3]([H:9])([H:10])[O:4][C:5]1([H:11])[H:12])[H:13])[H:8]"
O        1.50886679      -0.60682493      -1.44384380
C       -0.03675359       0.28933741       0.23279328
C       -0.77312475      -0.66923942      -0.60968921
O       -2.03639700      -0.10871613      -0.21511830
C       -1.37322879       0.85451421       0.60781333
C        1.21082855       0.26816401       0.88053386
O        2.30945975       0.07719269       0.36528603
H        2.41041674      -0.85095261      -1.68253104
H       -0.66747604      -1.73146214      -0.37812563
H       -0.50743540      -0.54875736      -1.68279537
H       -1.55504678       1.88614018       0.28756062
H       -1.65071383       0.75287456       1.66341746
H        1.16060435       0.38772952       1.97469876
13
Frame=2 idx=008538 GeodesicLength=0.15421612753588088 rxn_smarts="[O:1]([C:2]1([C:6](=[O:7])[H:13])[C:3]([H:9])([H:10])[O:4][C:5]1([H:11])[H:12])[H:8]>>[O:1]([O:7][C:6](=[C:2]1[C:3]([H:9])([H:10])[O:4][C:5]1([H:11])[H:12])[H:13])[H:8]"
O        1.50532335      -0.52359297      -1.44899497
C       -0.02555250       0.28447874       0.21237308
C       -0.77909607      -0.68461789      -0.60742729
O       -2.03444972      -0.12333990      -0.19162576
C       -1.35735058       0.85958123       0.59618388
C        1.20680572       0.23918085       0.88729480
O        2.31321581       0.07863608       0.37029489
H        2.39305809      -0.83941747      -1.65038737
H       -0.66328067      -1.74447319      -0.37061461
H       -0.54133525      -0.56977535      -1.68643368
H       -1.54075896       1.88331452       0.25282373
H       -1.62637878       0.78504677       1.65603236
H        1.14979956       0.35497858       1.98048094
13
Frame=3 idx=008538 GeodesicLength=0.23157594947123344 rxn_smarts="[O:1]([C:2]1([C:6](=[O:7])[H:13])[C:3]([H:9])([H:10])[O:4][C:5]1([H:11])[H:12])[H:8]>>[O:1]([O:7][C:6](=[C:2]1[C:3]([H:9])([H:10])[O:4][C:5]1([H:11])[H:12])[H:13])[H:8]"
O        1.50206126      -0.44652728      -1.44951843
C       -0.01444290       0.27832986       0.19365838
C       -0.78438048      -0.69971908      -0.60539604
O       -2.03165595      -0.13573575      -0.17061394
C       -1.34177479       0.86418796       0.58461843
C        1.20319615       0.21107874       0.89351760
O        2.31695256       0.07991753       0.37531947
H        2.37218615      -0.82383554      -1.62223126
H       -0.66083344      -1.75745785      -0.36332503
H       -0.57196271      -0.59067151      -1.68916931
H       -1.52597637       1.88019969       0.21963759
H       -1.60341664       0.81535136       1.64775434
H        1.14004715       0.32488185       1.98574820
13
Frame=4 idx=008538 GeodesicLength=0.3098584833190574 rxn_smarts="[O:1]([C:2]1([C:6](=[O:7])[H:13])[C:3]([H:9])([H:10])[O:4][C:5]1([H:11])[H:12])[H:8]>>[O:1]([O:7][C:6](=[C:2]1[C:3]([H:9])([H:10])[O:4][C:5]1([H:11])[H:12])[H:13])[H:8]"
O        1.49898280      -0.37377235      -1.44623678
C       -0.00335847       0.27174304       0.17591754
C       -0.78881334      -0.71418966      -0.60357062
O       -2.02772482      -0.14670863      -0.15140796
C       -1.32621068       0.86814456       0.57307609
C        1.19981546       0.18491698       0.89852836
O        2.32031104       0.08169099       0.38000612
H        2.34737643      -0.80683358      -1.59534386
H       -0.65927597      -1.76993125      -0.35625391
H       -0.60000722      -0.61072935      -1.69099096
H       -1.51094218       1.87649400       0.18799032
H       -1.58099965       0.84341194       1.63850379
H        1.13084661       0.29576332       1.98978188
13
Frame=5 idx=008538 GeodesicLength=0.3882486980124124 rxn_smarts="[O:1]([C:2]1([C:6](=[O:7])[H:13])[C:3]([H:9])([H:10])[O:4][C:5]1([H:11])[H:12])[H:8]>>[O:1]([O:7][C:6](=[C:2]1[C:3]([H:9])([H:10])[O:4][C:5]1([H:11])[H:12])[H:13])[H:8]"
O        1.49632262      -0.30559632      -1.43986297
C        0.00762111       0.26480480       0.15901434
C       -0.79262689      -0.72811984      -0.60196286
O       -2.02310167      -0.15628315      -0.13379956
C       -1.31089054       0.87166711       0.56170681
C        1.19669052       0.16036958       0.90273300
O        2.32342679       0.08354219       0.38452882
H        2.32030763      -0.78820322      -1.57050074
H       -0.65851649      -1.78193355      -0.34920979
H       -0.62606823      -0.63019068      -1.69233669
H       -1.49602418       1.87239414       0.15773394
H       -1.55925122       0.86970593       1.62881172
H        1.12211055       0.26784302       1.99314399
13
Frame=6 idx=008538 GeodesicLength=0.46685665083286093 rxn_smarts="[O:1]([C:2]1([C:6](=[O:7])[H:13])[C:3]([H:9])([H:10])[O:4][C:5]1([H:11])[H:12])[H:8]>>[O:1]([O:7][C:6](=[C:2]1[C:3]([H:9])([H:10])[O:4][C:5]1([H:11])[H:12])[H:13])[H:8]"
O        1.49387821      -0.24156975      -1.43085818
C        0.01839756       0.25758862       0.14272978
C       -0.79623773      -0.74168569      -0.60032556
O       -2.01812829      -0.16479642      -0.11711615
C       -1.29580310       0.87499298       0.55038654
C        1.19370934       0.13722151       0.90613206
O        2.32637633       0.08511880       0.38892594
H        2.29314734      -0.76715494      -1.54765523
H       -0.65872496      -1.79366189      -0.34189009
H       -0.65109817      -0.64929010      -1.69304667
H       -1.48126471       1.86804938       0.12829119
H       -1.53788728       0.89500128       1.61862095
H        1.11363545       0.24018623       1.99580542
13
Frame=7 idx=008538 GeodesicLength=0.5456739180424152 rxn_smarts="[O:1]([C:2]1([C:6](=[O:7])[H:13])[C:3]([H:9])([H:10])[O:4][C:5]1([H:11])[H:12])[H:8]>>[O:1]([O:7][C:6](=[C:2]1[C:3]([H:9])([H:10])[O:4][C:5]1([H:11])[H:12])[H:13])[H:8]"
O        1.49156928      -0.18108522      -1.41968019
C        0.02894294       0.25011110       0.12694667
C       -0.79976567      -0.75493690      -0.59859083
O       -2.01285279      -0.17248045      -0.10095232
C       -1.28089038       0.87819003       0.53906572
C        1.19077889       0.11526276       0.90881715
O        2.32909474       0.08645968       0.39320621
H        2.26658111      -0.74380614      -1.52652210
H       -0.65977005      -1.80511454      -0.33426764
H       -0.67559659      -0.66807773      -1.69314951
H       -1.46666907       1.86338925       0.09931298
H       -1.51667716       0.91971002       1.60796041
H        1.10525475       0.21237815       1.99785346
13
Frame=8 idx=008538 GeodesicLength=0.6246651090651804 rxn_smarts="[O:1]([C:2]1([C:6](=[O:7])[H:13])[C:3]([H:9])([H:10])[O:4][C:5]1([H:11])[H:12])[H:8]>>[O:1]([O:7][C:6](=[C:2]1[C:3]([H:9])([H:10])[O:4][C:5]1([H:11])[H:12])[H:13])[H:8]"
O        1.48939232      -0.12354081      -1.40669195
C        0.03924229       0.24236176       0.11159601
C       -0.80331346      -0.76792539      -0.59672066
O       -2.00735165      -0.17952082      -0.08496875
C       -1.26614913       0.88131850       0.52770836
C        1.18786882       0.09425927       0.91089202
O        2.33161396       0.08761419       0.39737947
H        2.24110192      -0.71836284      -1.50687979
H       -0.66154443      -1.81634339      -0.32637376
H       -0.69995923      -0.68656303      -1.69267349
H       -1.45229730       1.85837550       0.07050977
H       -1.49548463       0.94417642       1.59684809
H        1.09688051       0.18415065       1.99937468
13
Frame=9 idx=008538 GeodesicLength=0.7040155021469323 rxn_smarts="[O:1]([C:2]1([C:6](=[O:7])[H:13])[C:3]([H:9])([H:10])[O:4][C:5]1([H:11])[H:12])[H:8]>>[O:1]([O:7][C:6](=[C:2]1[C:3]([H:9])([H:10])[O:4][C:5]1([H:11])[H:12])[H:13])[H:8]"
O        1.48732284      -0.06836365      -1.39207057
C        0.04932328       0.23435112       0.09658600
C       -0.80692421      -0.78069231      -0.59470572
O       -2.00159987      -0.18606592      -0.06898921
C       -1.25149997       0.88437795       0.51625754
C        1.18495675       0.07409673       0.91238418
O        2.33391347       0.08856854       0.40151816
H        2.21671289      -0.69100167      -1.48839113
H       -0.66395048      -1.82738063      -0.31826697
H       -0.72446667      -0.70478276      -1.69160251
H       -1.43810899       1.85295476       0.04174950
H       -1.47413590       0.96852763       1.58520388
H        1.08845686       0.15541022       2.00032686
13
Frame=10 idx=008538 GeodesicLength=0.7835518585782704 rxn_smarts="[O:1]([C:2]1([C:6](=[O:7])[H:13])[C:3]([H:9])([H:10])[O:4][C:5]1([H:11])[H:12])[H:8]>>[O:1]([O:7][C:6](=[C:2]1[C:3]([H:9])([H:10])[O:4][C:5]1([H:11])[H:12])[H:13])[H:8]"
O        1.48538253      -0.01524837      -1.37602313
C        0.05917323       0.22601169       0.08188266
C       -0.81067035      -0.79325813      -0.59254210
O       -1.99564814      -0.19212533      -0.05288968
C       -1.23695017       0.88736730       0.50472117
C        1.18200422       0.05450470       0.91339782
O        2.33599322       0.08936488       0.40560428
H        2.19377871      -0.66185873      -1.47102527
H       -0.66699049      -1.83823890      -0.30996613
H       -0.74930573      -0.72274210      -1.68996821
H       -1.42410967       1.84708337       0.01295560
H       -1.45259095       0.99284618       1.57307327
H        1.07993360       0.12629344       2.00077971
13
Frame=11 idx=008538 GeodesicLength=0.8633427762057744 rxn_smarts="[O:1]([C:2]1([C:6](=[O:7])[H:13])[C:3]([H:9])([H:10])[O:4][C:5]1([H:11])[H:12])[H:8]>>[O:1]([O:7][C:6](=[C:2]1[C:3]([H:9])([H:10])[O:4][C:5]1([H:11])[H:12])[H:13])[H:8]"
O        1.48356873       0.03619439      -1.35865782
C        0.06880197       0.21737213       0.06738360
C       -0.81460424      -0.80563810      -0.59026491
O       -1.98950400      -0.19776613      -0.03660523
C       -1.22247524       0.89027356       0.49308556
C        1.17900593       0.03542191       0.91393150
O        2.33792191       0.08999230       0.40969018
H        2.17239848      -0.63120736      -1.45450351
H       -0.67062519      -1.84894516      -0.30154716
H       -0.77470383      -0.74045340      -1.68779586
H       -1.41035465       1.84075503      -0.01584807
H       -1.43075533       1.01710703       1.56043772
H        1.07132547       0.09689381       2.00069402
13
Frame=12 idx=008538 GeodesicLength=0.9433401140120797 rxn_smarts="[O:1]([C:2]1([C:6](=[O:7])[H:13])[C:3]([H:9])([H:10])[O:4][C:5]1([H:11])[H:12])[H:8]>>[O:1]([O:7][C:6](=[C:2]1[C:3]([H:9])([H:10])[O:4][C:5]1([H:11])[H:12])[H:13])[H:8]"
O        1.48189420       0.08612799      -1.34003852
C        0.07823232       0.20838646       0.05302386
C       -0.81875837      -0.81785156      -0.58790426
O       -1.98317082      -0.20296239      -0.02016450
C       -1.20803740       0.89306414       0.48135664
C        1.17595150       0.01669001       0.91401679
O        2.33967861       0.09052415       0.41379575
H        2.15260433      -0.59915116      -1.43871871
H       -0.67487432      -1.85951597      -0.29304585
H       -0.80076007      -0.75794720      -1.68510039
H       -1.39679163       1.83396992      -0.04458807
H       -1.40859613       1.04122177       1.54730468
H        1.06262777       0.06744382       2.00006258
13
Frame=13 idx=008538 GeodesicLength=1.0235954767833417 rxn_smarts="[O:1]([C:2]1([C:6](=[O:7])[H:13])[C:3]([H:9])([H:10])[O:4][C:5]1([H:11])[H:12])[H:8]>>[O:1]([O:7][C:6](=[C:2]1[C:3]([H:9])([H:10])[O:4][C:5]1([H:11])[H:12])[H:13])[H:8]"
O        1.48033034       0.13477096      -1.32020277
C        0.08747680       0.19905605       0.03871818
C       -0.82316696      -0.82990633      -0.58548450
O       -1.97662506      -0.20773038      -0.00357818
C       -1.19358696       0.89570666       0.46952189
C        1.17281741      -0.00175104       0.91364333
O        2.34126473       0.09098932       0.41793360
H        2.13442876      -0.56583219      -1.42347576
H       -0.67974453      -1.86994784      -0.28449554
H       -0.82758762      -0.77523950      -1.68186541
H       -1.38340830       1.82670777      -0.07321194
H       -1.38603123       1.06510413       1.53365423
H        1.05383260       0.03807240       1.99884286
13
Frame=14 idx=008538 GeodesicLength=1.1040679963811533 rxn_smarts="[O:1]([C:2]1([C:6](=[O:7])[H:13])[C:3]([H:9])([H:10])[O:4][C:5]1([H:11])[H:12])[H:8]>>[O:1]([O:7][C:6](=[C:2]1[C:3]([H:9])([H:10])[O:4][C:5]1([H:11])[H:12])[H:13])[H:8]"
O        1.47886822       0.18231980      -1.29917562
C        0.09656293       0.18934404       0.02440214
C       -0.82784271      -0.84182985      -0.58302282
O       -1.96987516      -0.21203469       0.01308248
C       -1.17909718       0.89817874       0.45756953
C        1.16961206      -0.01999612       0.91282539
O        2.34269942       0.09133601       0.42213281
H        2.11781685      -0.53128649      -1.40872370
H       -0.68524108      -1.88026163      -0.27587291
H       -0.85522600      -0.79240482      -1.67809375
H       -1.37016130       1.81900310      -0.10166329
H       -1.36307297       1.08865858       1.51948935
H        1.04495692       0.00897331       1.99705037
13
Frame=15 idx=008538 GeodesicLength=1.1847833847500673 rxn_smarts="[O:1]([C:2]1([C:6](=[O:7])[H:13])[C:3]([H:9])([H:10])[O:4][C:5]1([H:11])[H:12])[H:8]>>[O:1]([O:7][C:6](=[C:2]1[C:3]([H:9])([H:10])[O:4][C:5]1([H:11])[H:12])[H:13])[H:8]"
O        1.47744874       0.22897179      -1.27694806
C        0.10550941       0.17920849       0.01001691
C       -0.83281788      -0.85365482      -0.58051951
O       -1.96291807      -0.21586295       0.02978306
C       -1.16452262       0.90046481       0.44546445
C        1.16633559      -0.03813688       0.91156291
O        2.34399389       0.09158108       0.42639955
H        2.10276460      -0.49548744      -1.39437096
H       -0.69139733      -1.89047862      -0.26714459
H       -0.88372714      -0.80950385      -1.67374870
H       -1.35700151       1.81086021      -0.12995539
H       -1.33967007       1.11184874       1.50477707
H        1.03600238      -0.01981056       1.99468327
13
Frame=16 idx=008538 GeodesicLength=1.2657916907634343 rxn_smarts="[O:1]([C:2]1([C:6](=[O:7])[H:13])[C:3]([H:9])([H:10])[O:4][C:5]1([H:11])[H:12])[H:8]>>[O:1]([O:7][C:6](=[C:2]1[C:3]([H:9])([H:10])[O:4][C:5]1([H:11])[H:12])[H:13])[H:8]"
O        1.47597997       0.27492712      -1.25347486
C        0.11433925       0.16858445      -0.00448740
C       -0.83811847      -0.86542676      -0.57796636
O       -1.95574492      -0.21918565       0.04646247
C       -1.14980296       0.90254923       0.43316024
C        1.16299180      -0.05627633       0.90985249
O        2.34514250       0.09172743       0.43074214
H        2.08921635      -0.45832603      -1.38035541
H       -0.69826021      -1.90062637      -0.25824892
H       -0.91311225      -0.82663083      -1.66878409
H       -1.34383049       1.80229035      -0.15811280
H       -1.31577264       1.13464274       1.48947066
H        1.02697207      -0.04824938       1.99174183
