19
Frame=0 idx=010060 GeodesicLength=0.0 rxn_smarts="[C:1]([C:2]([C@@:3]1([H:13])[C:4]([H:14])([H:15])[C@:5]1([C:6]([O:7][H:19])([H:17])[H:18])[H:16])([H:11])[H:12])([H:8])([H:9])[H:10]>>[C:1]([C:2]([C:3][C:4]([C:5]([C:6]([O:7][H:19])([H:17])[H:18])([H:13])[H:16])([H:14])[H:15])([H:11])[H:12])([H:8])([H:9])[H:10]"
C       -2.30287550       0.04156674       0.79132240
C       -1.22602692       0.93995230       0.20058650
C       -0.65663715       0.45696333      -1.11016512
C        0.78180361       0.75663247      -1.27139751
C        0.79845400      -0.68588318      -0.77969959
C        1.39858734      -0.97605249       0.57617498
O        2.80266392      -0.81952962       0.57927116
H       -3.06022353      -0.19036507       0.04156203
H       -2.79047038       0.51061719       1.64763888
H       -1.87639551      -0.90498987       1.13666391
H       -0.47921291       1.20317958       0.96562447
H       -1.67759215       1.89386776      -0.10248365
H       -0.37005480      -0.93650704      -0.83460798
H        1.16193620       0.90157552      -2.27788257
H        1.22652045       1.46054626      -0.56136595
H        1.11289775      -1.37615343      -1.55961856
H        0.92966576      -0.35150833       1.34447205
H        1.21896950      -2.01816476       0.84418534
H        3.00799026       0.09425264       0.36971921
19
Frame=1 idx=010060 GeodesicLength=0.06555576859748026 rxn_smarts="[C:1]([C:2]([C@@:3]1([H:13])[C:4]([H:14])([H:15])[C@:5]1([C:6]([O:7][H:19])([H:17])[H:18])[H:16])([H:11])[H:12])([H:8])([H:9])[H:10]>>[C:1]([C:2]([C:3][C:4]([C:5]([C:6]([O:7][H:19])([H:17])[H:18])([H:13])[H:16])([H:14])[H:15])([H:11])[H:12])([H:8])([H:9])[H:10]"
C       -2.32230167       0.04937040       0.78886806
C       -1.23624233       0.93906230       0.20191099
C       -0.65507875       0.44956450      -1.09913585
C        0.78179455       0.75656422      -1.25952099
C        0.80218552      -0.68818619      -0.77460418
C        1.41870522      -0.97932028       0.57384310
O        2.82290944      -0.82405017       0.56087088
H       -3.07405575      -0.18446426       0.03404180
H       -2.81594118       0.52653761       1.63722286
H       -1.90270130      -0.89614034       1.14487158
H       -0.49435242       1.20273116       0.97134704
H       -1.68090014       1.89372453      -0.11032305
H       -0.37707872      -0.95101177      -0.83821868
H        1.16506772       0.90335032      -2.26449653
H        1.22104096       1.46189999      -0.54756455
H        1.11893372      -1.37260689      -1.55881713
H        0.95962984      -0.35471935       1.34821730
H        1.24097883      -2.02119186       0.84428243
H        3.02740645       0.08888606       0.34720493
19
Frame=2 idx=010060 GeodesicLength=0.13103328424202781 rxn_smarts="[C:1]([C:2]([C@@:3]1([H:13])[C:4]([H:14])([H:15])[C@:5]1([C:6]([O:7][H:19])([H:17])[H:18])[H:16])([H:11])[H:12])([H:8])([H:9])[H:10]>>[C:1]([C:2]([C:3][C:4]([C:5]([C:6]([O:7][H:19])([H:17])[H:18])([H:13])[H:16])([H:14])[H:15])([H:11])[H:12])([H:8])([H:9])[H:10]"
C       -2.34210059       0.05738613       0.78617283
C       -1.24658975       0.93812682       0.20335294
C       -0.65350920       0.44189939      -1.08763350
C        0.78172647       0.75636005      -1.24726371
C        0.80601881      -0.69060527      -0.76917885
C        1.43931723      -0.98260510       0.57144083
O        2.84343854      -0.82842671       0.54191248
H       -3.08808758      -0.17829216       0.02617130
H       -2.84177121       0.54278008       1.62631273
H       -1.92978085      -0.88705864       1.15289734
H       -0.50975697       1.20214748       0.97729166
H       -1.68402509       1.89350813      -0.11815530
H       -0.38415167      -0.96566473      -0.84177853
H        1.16804223       0.90510065      -2.25073760
H        1.21551267       1.46303323      -0.53335216
H        1.12474497      -1.36911022      -1.55781010
H        0.99042215      -0.35800762       1.35195964
H        1.26370232      -2.02425377       0.84434843
H        3.04684751       0.08368225       0.32404956
19
Frame=3 idx=010060 GeodesicLength=0.19643450231095155 rxn_smarts="[C:1]([C:2]([C@@:3]1([H:13])[C:4]([H:14])([H:15])[C@:5]1([C:6]([O:7][H:19])([H:17])[H:18])[H:16])([H:11])[H:12])([H:8])([H:9])[H:10]>>[C:1]([C:2]([C:3][C:4]([C:5]([C:6]([O:7][H:19])([H:17])[H:18])([H:13])[H:16])([H:14])[H:15])([H:11])[H:12])([H:8])([H:9])[H:10]"
C       -2.36227952       0.06562414       0.78322334
C       -1.25707369       0.93714355       0.20491900
C       -0.65192796       0.43395655      -1.07563025
C        0.78159604       0.75601096      -1.23460582
C        0.80995713      -0.69314743      -0.76340434
C        1.46044010      -0.98590661       0.56896123
O        2.86425001      -0.83265059       0.52236909
H       -3.10231460      -0.17184019       0.01793196
H       -2.86796483       0.55936084       1.61488301
H       -1.95765755      -0.87773030       1.16072903
H       -0.52544170       1.20142756       0.98346990
H       -1.68695709       1.89321118      -0.12597531
H       -0.39128095      -0.98047036      -0.84528513
H        1.17084712       0.90681943      -2.23658864
H        1.20993482       1.46393438      -0.51870766
H        1.13032606      -1.36566908      -1.55658235
H        1.02207728      -0.36137424       1.35568797
H        1.28716975      -2.02735062       0.84437607
H        3.06629956       0.07865082       0.30022890
19
Frame=4 idx=010060 GeodesicLength=0.26176245878665916 rxn_smarts="[C:1]([C:2]([C@@:3]1([H:13])[C:4]([H:14])([H:15])[C@:5]1([C:6]([O:7][H:19])([H:17])[H:18])[H:16])([H:11])[H:12])([H:8])([H:9])[H:10]>>[C:1]([C:2]([C:3][C:4]([C:5]([C:6]([O:7][H:19])([H:17])[H:18])([H:13])[H:16])([H:14])[H:15])([H:11])[H:12])([H:8])([H:9])[H:10]"
C       -2.38284397       0.07409421       0.78000583
C       -1.26769790       0.93611072       0.20661648
C       -0.65033420       0.42572466      -1.06309603
C        0.78140042       0.75550708      -1.22152605
C        0.81400349      -0.69582041      -0.75726010
C        1.48209031      -0.98922381       0.56639667
O        2.88534040      -0.83671316       0.50221268
H       -3.11672952      -0.16510208       0.00930523
H       -2.89452493       0.57629602       1.60290613
H       -1.98635174      -0.86813829       1.16835462
H       -0.54142320       1.20057274       0.98989220
H       -1.68968576       1.89282361      -0.13377774
H       -0.39847601      -0.99543165      -0.84873933
H        1.17346998       0.90849945      -2.22203059
H        1.20430726       1.46459088      -0.50360880
H        1.13567000      -1.36228998      -1.55511726
H        1.05462979      -0.36482032       1.35939003
H        1.31141083      -2.03048204       0.84435725
H        3.08574477       0.07380237       0.27571876
19
Frame=5 idx=010060 GeodesicLength=0.32701070037424645 rxn_smarts="[C:1]([C:2]([C@@:3]1([H:13])[C:4]([H:14])([H:15])[C@:5]1([C:6]([O:7][H:19])([H:17])[H:18])[H:16])([H:11])[H:12])([H:8])([H:9])[H:10]>>[C:1]([C:2]([C:3][C:4]([C:5]([C:6]([O:7][H:19])([H:17])[H:18])([H:13])[H:16])([H:14])[H:15])([H:11])[H:12])([H:8])([H:9])[H:10]"
C       -2.40379524       0.08280506       0.77650595
C       -1.27846672       0.93502606       0.20845061
C       -0.64872684       0.41719203      -1.05000095
C        0.78113649       0.75483897      -1.20800367
C        0.81816095      -0.69863158      -0.75072525
C        1.50428052      -0.99255515       0.56373943
O        2.90670218      -0.84060629       0.48141781
H       -3.13132256      -0.15807158       0.00027440
H       -2.92144605       0.59359961       1.59035823
H       -2.01588009      -0.85826837       1.17575926
H       -0.55771781       1.19958495       0.99656897
H       -1.69220248       1.89233705      -0.14155897
H       -0.40574405      -1.01055103      -0.85214245
H        1.17589811       0.91013353      -2.20704416
H        1.19862976       1.46499100      -0.48803342
H        1.14077009      -1.35897904      -1.55339753
H        1.08810992      -0.36834374       1.36305036
H        1.33645123      -2.03364750       0.84428532
H        3.10516258       0.06914601       0.25049604
19
Frame=6 idx=010060 GeodesicLength=0.39218238324082544 rxn_smarts="[C:1]([C:2]([C@@:3]1([H:13])[C:4]([H:14])([H:15])[C@:5]1([C:6]([O:7][H:19])([H:17])[H:18])[H:16])([H:11])[H:12])([H:8])([H:9])[H:10]>>[C:1]([C:2]([C:3][C:4]([C:5]([C:6]([O:7][H:19])([H:17])[H:18])([H:13])[H:16])([H:14])[H:15])([H:11])[H:12])([H:8])([H:9])[H:10]"
C       -2.42513280       0.09176502       0.77271216
C       -1.28938401       0.93388981       0.21042689
C       -0.64710461       0.40834783      -1.03631104
C        0.78080262       0.75399649      -1.19401404
C        0.82243246      -0.70158918      -0.74377854
C        1.52702325      -0.99590045       0.56098100
O        2.92832374      -0.84432217       0.45995808
H       -3.14607981      -0.15075170      -0.00917441
H       -2.94872610       0.61128527       1.57721068
H       -2.04625333      -0.84809958       1.18293329
H       -0.57434261       1.19847463       1.00350694
H       -1.69450053       1.89173955      -0.14931822
H       -0.41309727      -1.02582919      -0.85550252
H        1.17812112       0.91171465      -2.19160992
H        1.19290497       1.46511945      -0.47195456
H        1.14562045      -1.35574194      -1.55140504
H        1.12254996      -0.37194407       1.36665197
H        1.36231495      -2.03684583       0.84414840
H        3.12452756       0.06469140       0.22453887
19
Frame=7 idx=010060 GeodesicLength=0.4572691212296556 rxn_smarts="[C:1]([C:2]([C@@:3]1([H:13])[C:4]([H:14])([H:15])[C@:5]1([C:6]([O:7][H:19])([H:17])[H:18])[H:16])([H:11])[H:12])([H:8])([H:9])[H:10]>>[C:1]([C:2]([C:3][C:4]([C:5]([C:6]([O:7][H:19])([H:17])[H:18])([H:13])[H:16])([H:14])[H:15])([H:11])[H:12])([H:8])([H:9])[H:10]"
C       -2.44685067       0.10098023       0.76861228
C       -1.30045216       0.93270306       0.21255006
C       -0.64546571       0.39918162      -1.02199360
C        0.78039752       0.75296938      -1.17953458
C        0.82682077      -0.70470113      -0.73639926
C        1.55032494      -0.99925811       0.55811229
O        2.95018836      -0.84785291       0.43781150
H       -3.16098333      -0.14314795      -0.01905262
H       -2.97635157       0.62936416       1.56343942
H       -2.07747380      -0.83761520       1.18986475
H       -0.59131404       1.19725538       1.01071106
H       -1.69657488       1.89101983      -0.15705516
H       -0.42054662      -1.04126422      -0.85883045
H        1.18012804       0.91323522      -2.17570833
H        1.18713628       1.46496148      -0.45534704
H        1.15021366      -1.35258522      -1.54912196
H        1.15797391      -0.37561882       1.37017489
H        1.38901970      -2.04007475       0.84393556
H        3.14380964       0.06044794       0.19783119
19
Frame=8 idx=010060 GeodesicLength=0.5222572654261501 rxn_smarts="[C:1]([C:2]([C@@:3]1([H:13])[C:4]([H:14])([H:15])[C@:5]1([C:6]([O:7][H:19])([H:17])[H:18])[H:16])([H:11])[H:12])([H:8])([H:9])[H:10]>>[C:1]([C:2]([C:3][C:4]([C:5]([C:6]([O:7][H:19])([H:17])[H:18])([H:13])[H:16])([H:14])[H:15])([H:11])[H:12])([H:8])([H:9])[H:10]"
C       -2.46893861       0.11045515       0.76419598
C       -1.31167532       0.93146878       0.21482180
C       -0.64380837       0.38968537      -1.00701351
C        0.77991989       0.75174738      -1.16453840
C        0.83132551      -0.70797646      -0.72856465
C        1.57419070      -1.00262795       0.55512398
O        2.97227395      -0.85119280       0.41495256
H       -3.17600921      -0.13527521      -0.02936755
H       -3.00430879       0.64784541       1.54901588
H       -2.10953792      -0.82679169       1.19654734
H       -0.60865135       1.19595046       1.01818220
H       -1.69842376       1.89016395      -0.16477574
H       -0.42810205      -1.05685078      -0.86214408
H        1.18191000       0.91468818      -2.15931560
H        1.18132846       1.46449896      -0.43817854
H        1.15454222      -1.34951356      -1.54652940
H        1.19441030      -0.37936462       1.37359741
H        1.41658077      -2.04333317       0.84363328
H        3.16297358       0.05642262       0.17035702
19
Frame=9 idx=010060 GeodesicLength=0.5871494505534852 rxn_smarts="[C:1]([C:2]([C@@:3]1([H:13])[C:4]([H:14])([H:15])[C@:5]1([C:6]([O:7][H:19])([H:17])[H:18])[H:16])([H:11])[H:12])([H:8])([H:9])[H:10]>>[C:1]([C:2]([C:3][C:4]([C:5]([C:6]([O:7][H:19])([H:17])[H:18])([H:13])[H:16])([H:14])[H:15])([H:11])[H:12])([H:8])([H:9])[H:10]"
C       -2.49140792       0.12020347       0.75944472
C       -1.32306321       0.93018777       0.21725084
C       -0.64213601       0.37983237      -0.99130393
C        0.77936592       0.75031109      -1.14898319
C        0.83594972      -0.71143456      -0.72024136
C        1.59865158      -1.00600668       0.55199577
O        2.99456320      -0.85433391       0.39133321
H       -3.19114416      -0.12714201      -0.04014164
H       -3.03260594       0.66675592       1.53389346
H       -2.14247938      -0.81560274       1.20296663
H       -0.62637336       1.19458167       1.02593244
H       -1.70004191       1.88916402      -0.17249059
H       -0.43577060      -1.07258293      -0.86544448
H        1.18345001       0.91606390      -2.14240113
H        1.17548943       1.46370041      -0.42039684
H        1.15860288      -1.34653307      -1.54359115
H        1.23192104      -0.38317063       1.37688083
H        1.44504505      -2.04661841       0.84320599
H        3.18198365       0.05262433       0.14209040
19
Frame=10 idx=010060 GeodesicLength=0.6519401778841365 rxn_smarts="[C:1]([C:2]([C@@:3]1([H:13])[C:4]([H:14])([H:15])[C@:5]1([C:6]([O:7][H:19])([H:17])[H:18])[H:16])([H:11])[H:12])([H:8])([H:9])[H:10]>>[C:1]([C:2]([C:3][C:4]([C:5]([C:6]([O:7][H:19])([H:17])[H:18])([H:13])[H:16])([H:14])[H:15])([H:11])[H:12])([H:8])([H:9])[H:10]"
C       -2.51424003       0.13022840       0.75434686
C       -1.33461156       0.92885751       0.21984260
C       -0.64044153       0.36961749      -0.97483994
C        0.77873559       0.74865398      -1.13285142
C        0.84069942      -0.71507809      -0.71141059
C        1.62370065      -1.00939387       0.54872428
O        3.01703327      -0.85726287       0.36694251
H       -3.20636085      -0.11875195      -0.05138360
H       -3.06121621       0.68610147       1.51804778
H       -2.17628668      -0.80403078       1.20911087
H       -0.64449849       1.19315551       1.03396839
H       -1.70141533       1.88799794      -0.18019246
H       -0.44356817      -1.08845758      -0.86875307
H        1.18473544       0.91735475      -2.12494500
H        1.16961863       1.46256091      -0.40198848
H        1.16238340      -1.34365324      -1.54029573
H        1.27050821      -0.38703806       1.38001003
H        1.47442013      -2.04992816       0.84265741
H        3.20080410       0.04906666       0.11300956
19
Frame=11 idx=010060 GeodesicLength=0.7166262608068161 rxn_smarts="[C:1]([C:2]([C@@:3]1([H:13])[C:4]([H:14])([H:15])[C@:5]1([C:6]([O:7][H:19])([H:17])[H:18])[H:16])([H:11])[H:12])([H:8])([H:9])[H:10]>>[C:1]([C:2]([C:3][C:4]([C:5]([C:6]([O:7][H:19])([H:17])[H:18])([H:13])[H:16])([H:14])[H:15])([H:11])[H:12])([H:8])([H:9])[H:10]"
C       -2.53743565       0.14054230       0.74888147
C       -1.34632257       0.92747339       0.22260819
C       -0.63872262       0.35901937      -0.95756766
C        0.77802426       0.74676091      -1.11610957
C        0.84558106      -0.71892022      -0.70204257
C        1.64935540      -1.01278652       0.54529556
O        3.03966794      -0.85996511       0.34174480
H       -3.22164013      -0.11009979      -0.06311790
H       -3.09013555       0.70590350       1.50143656
H       -2.21098427      -0.79205063       1.21496059
H       -0.66304890       1.19167648       1.04230688
H       -1.70252702       1.88664774      -0.18787812
H       -0.45150231      -1.10447175      -0.87207109
H        1.18574496       0.91854918      -2.10691942
H        1.16371708       1.46106257      -0.38291936
H        1.16587548      -1.34088306      -1.53661590
H        1.31020842      -0.39096239       1.38295478
H        1.50474595      -2.05326002       0.84197146
H        3.21939848       0.04576404       0.08308129
19
Frame=12 idx=010060 GeodesicLength=0.7812126806221287 rxn_smarts="[C:1]([C:2]([C@@:3]1([H:13])[C:4]([H:14])([H:15])[C@:5]1([C:6]([O:7][H:19])([H:17])[H:18])[H:16])([H:11])[H:12])([H:8])([H:9])[H:10]>>[C:1]([C:2]([C:3][C:4]([C:5]([C:6]([O:7][H:19])([H:17])[H:18])([H:13])[H:16])([H:14])[H:15])([H:11])[H:12])([H:8])([H:9])[H:10]"
C       -2.56099554       0.15115696       0.74302670
C       -1.35819837       0.92603243       0.22555994
C       -0.63697669       0.34801513      -0.93942491
C        0.77722809       0.74461526      -1.09871898
C        0.85060163      -0.72297547      -0.69210424
C        1.67563471      -1.01617999       0.54169440
O        3.06244717      -0.86242564       0.31569854
H       -3.23695774      -0.10118927      -0.07537034
H       -3.11936296       0.72618366       1.48400643
H       -2.24659524      -0.77963013       1.22050072
H       -0.68204844       1.19015550       1.05096441
H       -1.70335800       1.88509307      -0.19554408
H       -0.45958476      -1.12061968      -0.87540495
H        1.18645711       0.91963540      -2.08829294
H        1.15778872       1.45918259      -0.36314757
H        1.16906900      -1.33823287      -1.53252085
H        1.35106137      -0.39493746       1.38568222
H        1.53606371      -2.05660982       0.84112772
H        3.23772622       0.04273034       0.05226777
19
Frame=13 idx=010060 GeodesicLength=0.8456836022648345 rxn_smarts="[C:1]([C:2]([C@@:3]1([H:13])[C:4]([H:14])([H:15])[C@:5]1([C:6]([O:7][H:19])([H:17])[H:18])[H:16])([H:11])[H:12])([H:8])([H:9])[H:10]>>[C:1]([C:2]([C:3][C:4]([C:5]([C:6]([O:7][H:19])([H:17])[H:18])([H:13])[H:16])([H:14])[H:15])([H:11])[H:12])([H:8])([H:9])[H:10]"
C       -2.58490461       0.16208149       0.73676475
C       -1.37023993       0.92453281       0.22870518
C       -0.63519978       0.33658535      -0.92035126
C        0.77634334       0.74220214      -1.08064294
C        0.85576667      -0.72725655      -0.68156441
C        1.70254454      -1.01957085       0.53790479
O        3.08533886      -0.86463267       0.28877374
H       -3.25227681      -0.09203176      -0.08815733
H       -3.14887871       0.74695717       1.46571379
H       -2.28312111      -0.76674026       1.22571438
H       -0.70152478       1.18861272       1.05994881
H       -1.70389607       1.88330879      -0.20319539
H       -0.46782427      -1.13688707      -0.87876838
H        1.18684939       0.92060239      -2.06903429
H        1.15183770       1.45690103      -0.34263476
H        1.17195281      -1.33571104      -1.52798127
H        1.39309439      -0.39895591       1.38815415
H        1.56840091      -2.05997305       0.84010509
H        3.25573746       0.03997527       0.02054536
19
Frame=14 idx=010060 GeodesicLength=0.9100448031458303 rxn_smarts="[C:1]([C:2]([C@@:3]1([H:13])[C:4]([H:14])([H:15])[C@:5]1([C:6]([O:7][H:19])([H:17])[H:18])[H:16])([H:11])[H:12])([H:8])([H:9])[H:10]>>[C:1]([C:2]([C:3][C:4]([C:5]([C:6]([O:7][H:19])([H:17])[H:18])([H:13])[H:16])([H:14])[H:15])([H:11])[H:12])([H:8])([H:9])[H:10]"
C       -2.60915279       0.17332294       0.73007544
C       -1.38244781       0.92297456       0.23205365
C       -0.63338800       0.32470724      -0.90027398
C        0.77536795       0.73950340      -1.06183732
C        0.86108318      -0.73177950      -0.67038928
C        1.73009797      -1.02295673       0.53390916
O        3.10830772      -0.86657169       0.26093251
H       -3.26756153      -0.08265125      -0.10149608
H       -3.17866879       0.76824362       1.44650099
H       -2.32056780      -0.75334363       1.23059399
H       -0.72150037       1.18708156       1.06927098
H       -1.70412881       1.88127064      -0.21084284
H       -0.47623673      -1.15325872      -0.88218458
H        1.18689948       0.92144038      -2.04910730
H        1.14587318       1.45419040      -0.32133174
H        1.17451719      -1.33332760      -1.52296516
H        1.43634099      -0.40301149       1.39033024
H        1.60179054      -2.06334739       0.83887454
H        3.27337442       0.03751325      -0.01211322
19
Frame=15 idx=010060 GeodesicLength=0.974284351760018 rxn_smarts="[C:1]([C:2]([C@@:3]1([H:13])[C:4]([H:14])([H:15])[C@:5]1([C:6]([O:7][H:19])([H:17])[H:18])[H:16])([H:11])[H:12])([H:8])([H:9])[H:10]>>[C:1]([C:2]([C:3][C:4]([C:5]([C:6]([O:7][H:19])([H:17])[H:18])([H:13])[H:16])([H:14])[H:15])([H:11])[H:12])([H:8])([H:9])[H:10]"
C       -2.63371476       0.18488454       0.72294418
C       -1.39482138       0.92135935       0.23560969
C       -0.63153524       0.31236126      -0.87911982
C        0.77430111       0.73650354      -1.04225790
C        0.86655753      -0.73655886      -0.65854672
C        1.75829339      -1.02633606       0.52968818
O        3.13130641      -0.86823332       0.23214733
H       -3.28276161      -0.07309025      -0.11539047
H       -3.20870345       0.79005825       1.42631443
H       -2.35891859      -0.73940472       1.23513653
H       -0.74199947       1.18561108       1.07893083
H       -1.70405171       1.87894906      -0.21850851
H       -0.48483587      -1.16970834      -0.88568723
H        1.18658596       0.92214193      -2.02847470
H        1.13990612       1.45102534      -0.29918947
H        1.17675217      -1.33108822      -1.51744208
H        1.48081935      -0.40709679       1.39216465
H        1.63624863      -2.06673025       0.83740319
H        3.29057142       0.03535246      -0.04572210
19
Frame=16 idx=010060 GeodesicLength=1.0383950528893038 rxn_smarts="[C:1]([C:2]([C@@:3]1([H:13])[C:4]([H:14])([H:15])[C@:5]1([C:6]([O:7][H:19])([H:17])[H:18])[H:16])([H:11])[H:12])([H:8])([H:9])[H:10]>>[C:1]([C:2]([C:3][C:4]([C:5]([C:6]([O:7][H:19])([H:17])[H:18])([H:13])[H:16])([H:14])[H:15])([H:11])[H:12])([H:8])([H:9])[H:10]"
C       -2.65856072       0.19676545       0.71535945
C       -1.40735924       0.91969304       0.23937418
C       -0.62963489       0.29952876      -0.85680899
C        0.77314433       0.73318692      -1.02185642
C        0.87219547      -0.74160980      -0.64600546
C        1.78712700      -1.02970949       0.52522112
O        3.15427895      -0.86960842       0.20239343
H       -3.29782070      -0.06340853      -0.12983663
H       -3.23894878       0.81241408       1.40509380
H       -2.39814507      -0.72488217       1.23935246
H       -0.76304581       1.18426691       1.08892059
H       -1.70366382       1.87630961      -0.22622612
H       -0.49363976      -1.18619917      -0.88932513
H        1.18588883       0.92270244      -2.00709526
H        1.13395216       1.44737626      -0.27615117
H        1.17864748      -1.32899790      -1.51138223
H        1.52654401      -0.41120777       1.39360854
H        1.67178712      -2.07012197       0.83565316
H        3.30725346       0.03350177      -0.08028931
