12
Frame=0 idx=001328 GeodesicLength=0.0 rxn_smarts="[C:1]([C@@:2]1([H:10])[C:3]([H:11])([H:12])[O:4][C:5]1=[O:6])([H:7])([H:8])[H:9]>>[C-:5]#[O+:6].[C:1]([C@@:2]1([H:10])[C:3]([H:11])([H:12])[O:4]1)([H:7])([H:8])[H:9]"
C        1.44574605      -0.23466708       0.16732208
C        0.02598317      -0.07705222       0.53600011
C       -0.82881386       1.07523126       0.26867904
O       -1.84797226       0.32582034      -0.26362885
C       -0.81843029      -1.18225169      -1.25884057
O       -1.57172849      -1.79148583      -1.85143299
H        1.99934707       0.21258745       1.00674197
H        1.74779927      -1.27627877       0.07975544
H        1.70542387       0.31294723      -0.73520199
H       -0.39048683      -0.77238307       1.25642373
H       -0.36711745       1.80948468      -0.40836906
H       -1.09975027       1.59804775       1.20255112
12
Frame=1 idx=001328 GeodesicLength=0.0585863138336139 rxn_smarts="[C:1]([C@@:2]1([H:10])[C:3]([H:11])([H:12])[O:4][C:5]1=[O:6])([H:7])([H:8])[H:9]>>[C-:5]#[O+:6].[C:1]([C@@:2]1([H:10])[C:3]([H:11])([H:12])[O:4]1)([H:7])([H:8])[H:9]"
C        1.44275202      -0.23208450       0.16311173
C        0.01736103      -0.08286796       0.52182277
C       -0.82122831       1.08752710       0.27528569
O       -1.81869000       0.33390859      -0.29618576
C       -0.83317781      -1.20950661      -1.23976321
O       -1.57673302      -1.81002920      -1.85486159
H        1.99554646       0.21240411       1.00378412
H        1.74819125      -1.27268182       0.07335082
H        1.70199519       0.31701449      -0.73893924
H       -0.38779458      -0.76572655       1.26092431
H       -0.35116146       1.83407684      -0.38101540
H       -1.11706076       1.58796554       1.21248575
12
Frame=2 idx=001328 GeodesicLength=0.11679103944401281 rxn_smarts="[C:1]([C@@:2]1([H:10])[C:3]([H:11])([H:12])[O:4][C:5]1=[O:6])([H:7])([H:8])[H:9]>>[C-:5]#[O+:6].[C:1]([C@@:2]1([H:10])[C:3]([H:11])([H:12])[O:4]1)([H:7])([H:8])[H:9]"
C        1.43970105      -0.22953857       0.15867951
C        0.00900592      -0.08823901       0.50823250
C       -0.81384893       1.09920177       0.28218897
O       -1.78769780       0.34269516      -0.33001814
C       -0.84896924      -1.23683344      -1.21885384
O       -1.58109617      -1.82770325      -1.85818180
H        1.99234654       0.21206361       1.00022809
H        1.74817034      -1.26919001       0.06652409
H        1.69826994       0.32093684      -0.74302442
H       -0.38457961      -0.75862093       1.26538528
H       -0.33497631       1.85797634      -0.35210103
H       -1.13632572       1.57725150       1.22094078
12
Frame=3 idx=001328 GeodesicLength=0.17447524969090128 rxn_smarts="[C:1]([C@@:2]1([H:10])[C:3]([H:11])([H:12])[O:4][C:5]1=[O:6])([H:7])([H:8])[H:9]>>[C-:5]#[O+:6].[C:1]([C@@:2]1([H:10])[C:3]([H:11])([H:12])[O:4]1)([H:7])([H:8])[H:9]"
C        1.43661580      -0.22707053       0.15398894
C        0.00093649      -0.09317587       0.49532843
C       -0.80674740       1.11023872       0.28934895
O       -1.75489091       0.35220751      -0.36510686
C       -0.86595423      -1.26395515      -1.19601543
O       -1.58457318      -1.84449564      -1.86124523
H        1.98982527       0.21144434       0.99604562
H        1.74770627      -1.26586181       0.05908966
H        1.69425150       0.32476556      -0.74746085
H       -0.38084859      -0.75108420       1.26993783
H       -0.31858123       1.88109868      -0.32160055
H       -1.15773980       1.56588838       1.22768952
12
Frame=4 idx=001328 GeodesicLength=0.23189622375987445 rxn_smarts="[C:1]([C@@:2]1([H:10])[C:3]([H:11])([H:12])[O:4][C:5]1=[O:6])([H:7])([H:8])[H:9]>>[C-:5]#[O+:6].[C:1]([C@@:2]1([H:10])[C:3]([H:11])([H:12])[O:4]1)([H:7])([H:8])[H:9]"
C        1.43345345      -0.22471325       0.14905115
C       -0.00680725      -0.09768303       0.48323067
C       -0.79997645       1.12056209       0.29670782
O       -1.72001014       0.36209868      -0.40104800
C       -0.88453299      -1.29046371      -1.17106223
O       -1.58667521      -1.86014478      -1.86424329
H        1.98800897       0.21047166       0.99121383
H        1.74661031      -1.26272053       0.05096938
H        1.68986982       0.32848148      -0.75216690
H       -0.37651458      -0.74310894       1.27466789
H       -0.30227544       1.90317750      -0.28975378
H       -1.18115049       1.55404282       1.23243346
12
Frame=5 idx=001328 GeodesicLength=0.2888140498670279 rxn_smarts="[C:1]([C@@:2]1([H:10])[C:3]([H:11])([H:12])[O:4][C:5]1=[O:6])([H:7])([H:8])[H:9]>>[C-:5]#[O+:6].[C:1]([C@@:2]1([H:10])[C:3]([H:11])([H:12])[O:4]1)([H:7])([H:8])[H:9]"
C        1.43030195      -0.22254915       0.14384015
C       -0.01423351      -0.10180934       0.47206032
C       -0.79369789       1.13019222       0.30419292
O       -1.68317761       0.37237143      -0.43757066
C       -0.90489883      -1.31589091      -1.14409266
O       -1.58700831      -1.87469927      -1.86698149
H        1.98702612       0.20888728       0.98578808
H        1.74493435      -1.25990593       0.04191691
H        1.68524776       0.33221485      -0.75713959
H       -0.37160076      -0.73479224       1.27979872
H       -0.28620628       1.92412113      -0.25675545
H       -1.20668699       1.54185992       1.23494274
12
Frame=6 idx=001328 GeodesicLength=0.3453561930852958 rxn_smarts="[C:1]([C@@:2]1([H:10])[C:3]([H:11])([H:12])[O:4][C:5]1=[O:6])([H:7])([H:8])[H:9]>>[C-:5]#[O+:6].[C:1]([C@@:2]1([H:10])[C:3]([H:11])([H:12])[O:4]1)([H:7])([H:8])[H:9]"
C        1.42708700      -0.22062680       0.13833042
C       -0.02133858      -0.10557504       0.46187698
C       -0.78794182       1.13908571       0.31174672
O       -1.64429267       0.38285277      -0.47436892
C       -0.92724589      -1.33972851      -1.11511455
O       -1.58504936      -1.88814908      -1.86928094
H        1.98679636       0.20652647       0.97975469
H        1.74248416      -1.25743474       0.03170016
H        1.68032937       0.33598281      -0.76227886
H       -0.36607517      -0.72608146       1.28538653
H       -0.27053342       1.94378820      -0.22276254
H       -1.23421997       1.52935966       1.23501032
12
Frame=7 idx=001328 GeodesicLength=0.4016050818242992 rxn_smarts="[C:1]([C@@:2]1([H:10])[C:3]([H:11])([H:12])[O:4][C:5]1=[O:6])([H:7])([H:8])[H:9]>>[C-:5]#[O+:6].[C:1]([C@@:2]1([H:10])[C:3]([H:11])([H:12])[O:4]1)([H:7])([H:8])[H:9]"
C        1.42386344      -0.21898428       0.13256312
C       -0.02811168      -0.10904190       0.45272896
C       -0.78281225       1.14728971       0.31928315
O       -1.60348944       0.39335773      -0.51101006
C       -0.95184957      -1.36136161      -1.08456058
O       -1.58049870      -1.90081250      -1.87087802
H        1.98740472       0.20313770       0.97330975
H        1.73922592      -1.25539552       0.02009100
H        1.67521527       0.34002209      -0.76742149
H       -0.35989966      -0.71715571       1.29147848
H       -0.25548351       1.96211226      -0.18803566
H       -1.26356453       1.51683202       1.23245136
12
Frame=8 idx=001328 GeodesicLength=0.4577921265677467 rxn_smarts="[C:1]([C@@:2]1([H:10])[C:3]([H:11])([H:12])[O:4][C:5]1=[O:6])([H:7])([H:8])[H:9]>>[C-:5]#[O+:6].[C:1]([C@@:2]1([H:10])[C:3]([H:11])([H:12])[O:4]1)([H:7])([H:8])[H:9]"
C        1.42054528      -0.21773995       0.12647790
C       -0.03464270      -0.11224752       0.44472205
C       -0.77837764       1.15467370       0.32671924
O       -1.56113060       0.40348868      -0.54671833
C       -0.97901253      -1.38031858      -1.05202251
O       -1.57214053      -1.91196379      -1.87198207
H        1.98878986       0.19856431       0.96619369
H        1.73494313      -1.25381754       0.00701657
H        1.66987213       0.34411571      -0.77256540
H       -0.35315198      -0.70782471       1.29824775
H       -0.24134462       1.97885751      -0.15321009
H       -1.29434981       1.50421218       1.22712121
12
Frame=9 idx=001328 GeodesicLength=0.5141662236353552 rxn_smarts="[C:1]([C@@:2]1([H:10])[C:3]([H:11])([H:12])[O:4][C:5]1=[O:6])([H:7])([H:8])[H:9]>>[C-:5]#[O+:6].[C:1]([C@@:2]1([H:10])[C:3]([H:11])([H:12])[O:4]1)([H:7])([H:8])[H:9]"
C        1.41732044      -0.21668611       0.12036488
C       -0.04084275      -0.11531497       0.43746026
C       -0.77458851       1.16131607       0.33388811
O       -1.51724241       0.41313437      -0.58119749
C       -1.00789752      -1.39520733      -1.02013121
O       -1.56190980      -1.92345522      -1.87043796
H        1.99066065       0.19238049       0.95946315
H        1.72988558      -1.25240941      -0.00791317
H        1.66491589       0.34924411      -0.77692396
H       -0.34596913      -0.69880631       1.30492136
H       -0.22829131       1.99393177      -0.11851613
H       -1.32604113       1.49187254       1.21902216
12
Frame=10 idx=001328 GeodesicLength=0.5702519857867471 rxn_smarts="[C:1]([C@@:2]1([H:10])[C:3]([H:11])([H:12])[O:4][C:5]1=[O:6])([H:7])([H:8])[H:9]>>[C-:5]#[O+:6].[C:1]([C@@:2]1([H:10])[C:3]([H:11])([H:12])[O:4]1)([H:7])([H:8])[H:9]"
C        1.41424409      -0.21586547       0.11431702
C       -0.04673640      -0.11832126       0.43094456
C       -0.77146306       1.16720424       0.34078073
O       -1.47275210       0.42211872      -0.61385819
C       -1.03818853      -1.40613350      -0.98906237
O       -1.54971838      -1.93487938      -1.86657992
H        1.99300675       0.18471081       0.95312753
H        1.72419752      -1.25122274      -0.02450915
H        1.66039490       0.35525808      -0.78036545
H       -0.33840589      -0.69011195       1.31151061
H       -0.21655352       2.00735509      -0.08468113
H       -1.35802539       1.47988735       1.20837577
12
Frame=11 idx=001328 GeodesicLength=0.6264741041461808 rxn_smarts="[C:1]([C@@:2]1([H:10])[C:3]([H:11])([H:12])[O:4][C:5]1=[O:6])([H:7])([H:8])[H:9]>>[C-:5]#[O+:6].[C:1]([C@@:2]1([H:10])[C:3]([H:11])([H:12])[O:4]1)([H:7])([H:8])[H:9]"
C        1.41151477      -0.21489139       0.10862059
C       -0.05221014      -0.12143311       0.42473834
C       -0.76881286       1.17218011       0.34714954
O       -1.42749371       0.43028712      -0.64482272
C       -1.06889724      -1.41277736      -0.96017024
O       -1.53823261      -1.94709660      -1.85900494
H        1.99554506       0.17554663       0.94782972
H        1.71818865      -1.24961111      -0.04279055
H        1.65692004       0.36309055      -0.78213971
H       -0.33068023      -0.68235385       1.31728583
H       -0.20584910       2.01906287      -0.05167097
H       -1.38999261       1.46799613       1.19497511
12
Frame=12 idx=001328 GeodesicLength=0.6829862122669601 rxn_smarts="[C:1]([C@@:2]1([H:10])[C:3]([H:11])([H:12])[O:4][C:5]1=[O:6])([H:7])([H:8])[H:9]>>[C-:5]#[O+:6].[C:1]([C@@:2]1([H:10])[C:3]([H:11])([H:12])[O:4]1)([H:7])([H:8])[H:9]"
C        1.40884986      -0.21430667       0.10300512
C       -0.05752777      -0.12458101       0.41926754
C       -0.76685743       1.17652082       0.35325624
O       -1.38291718       0.43714926      -0.67274552
C       -1.10095241      -1.41564953      -0.93214447
O       -1.52362717      -1.95849164      -1.85019837
H        1.99842777       0.16506257       0.94269386
H        1.71161915      -1.24827300      -0.06221981
H        1.65369510       0.37124752      -0.78321778
H       -0.32269498      -0.67487024       1.32315455
H       -0.19685906       2.02916349      -0.02065593
H       -1.42115589       1.45702843       1.17980456
12
Frame=13 idx=001328 GeodesicLength=0.7395047355634097 rxn_smarts="[C:1]([C@@:2]1([H:10])[C:3]([H:11])([H:12])[O:4][C:5]1=[O:6])([H:7])([H:8])[H:9]>>[C-:5]#[O+:6].[C:1]([C@@:2]1([H:10])[C:3]([H:11])([H:12])[O:4]1)([H:7])([H:8])[H:9]"
C        1.40703303      -0.21321482       0.09818376
C       -0.06223199      -0.12803109       0.41362604
C       -0.76528779       1.17982777       0.35864846
O       -1.33803209       0.44292263      -0.69900249
C       -1.13166711      -1.41461709      -0.90798107
O       -1.51370792      -1.97095558      -1.83701502
H        2.00135067       0.15360253       0.93935635
H        1.70583183      -1.24586781      -0.08268093
H        1.65226985       0.38158710      -0.78202893
H       -0.31475324      -0.66880911       1.32759477
H       -0.18907269       2.03765010       0.00906591
H       -1.45173255       1.44590536       1.16223315
12
Frame=14 idx=001328 GeodesicLength=0.7960803074460646 rxn_smarts="[C:1]([C@@:2]1([H:10])[C:3]([H:11])([H:12])[O:4][C:5]1=[O:6])([H:7])([H:8])[H:9]>>[C-:5]#[O+:6].[C:1]([C@@:2]1([H:10])[C:3]([H:11])([H:12])[O:4]1)([H:7])([H:8])[H:9]"
C        1.40567662      -0.21203255       0.09388935
C       -0.06657462      -0.13173021       0.40820117
C       -0.76416164       1.18238935       0.36360030
O       -1.29399931       0.44734231      -0.72268994
C       -1.16199870      -1.41050372      -0.88621027
O       -1.50493766      -1.98322287      -1.82188651
H        2.00441773       0.14143958       0.93692904
H        1.70039374      -1.24299319      -0.10367592
H        1.65171746       0.39288668      -0.77947193
H       -0.30676160      -0.66365588       1.33142412
H       -0.18272739       2.04473720       0.03674509
H       -1.48104463       1.43534330       1.14314550
12
Frame=15 idx=001328 GeodesicLength=0.8527049607079138 rxn_smarts="[C:1]([C@@:2]1([H:10])[C:3]([H:11])([H:12])[O:4][C:5]1=[O:6])([H:7])([H:8])[H:9]>>[C-:5]#[O+:6].[C:1]([C@@:2]1([H:10])[C:3]([H:11])([H:12])[O:4]1)([H:7])([H:8])[H:9]"
C        1.40490179      -0.21060362       0.09023418
C       -0.07048804      -0.13573584       0.40282419
C       -0.76339695       1.18414733       0.36805292
O       -1.25078069       0.45042324      -0.74410288
C       -1.19137514      -1.40372396      -0.86704198
O       -1.49871822      -1.99533045      -1.80470524
H        2.00756400       0.12878175       0.93556231
H        1.69563103      -1.23935697      -0.12500956
H        1.65219846       0.40528794      -0.77536936
H       -0.29878797      -0.65951943       1.33446476
H       -0.17768138       2.05049193       0.06246236
H       -1.50906689       1.42513809       1.12262830
12
Frame=16 idx=001328 GeodesicLength=0.9093725291403539 rxn_smarts="[C:1]([C@@:2]1([H:10])[C:3]([H:11])([H:12])[O:4][C:5]1=[O:6])([H:7])([H:8])[H:9]>>[C-:5]#[O+:6].[C:1]([C@@:2]1([H:10])[C:3]([H:11])([H:12])[O:4]1)([H:7])([H:8])[H:9]"
C        1.40464180      -0.20895476       0.08718818
C       -0.07402223      -0.14005982       0.39749524
C       -0.76294283       1.18516234       0.37206857
O       -1.20861943       0.45218500      -0.76326543
C       -1.21976829      -1.39471470      -0.85020862
O       -1.49477953      -2.00704288      -1.78598874
H        2.01077165       0.11584242       0.93506404
H        1.69156939      -1.23497016      -0.14641995
H        1.65350690       0.41851498      -0.76990948
H       -0.29087061      -0.65633426       1.33681287
H       -0.17384329       2.05503459       0.08615266
H       -1.53564353       1.41533726       1.10101067
