17
Frame=0 idx=010110 GeodesicLength=0.0 rxn_smarts="[C:1]([C@@:2]1([H:11])[C:3]([H:12])([H:13])[C@:4]1([C:5]([C:6](=[O:7])[H:17])([H:15])[H:16])[H:14])([H:8])([H:9])[H:10]>>[C:1]([C:2][C:3]([C:4]([C:5]([C:6](=[O:7])[H:17])([H:15])[H:16])([H:11])[H:14])([H:12])[H:13])([H:8])([H:9])[H:10]"
C       -2.16655917      -0.18519375       0.26422377
C       -1.42085135       1.01823287      -0.25164437
C       -0.18880897       1.31032552       0.51354843
C        0.34279217       0.51733221      -0.67241187
C        0.94225708      -0.84196995      -0.41913883
C        2.31392131      -0.78347688       0.20266145
O        2.91140837       0.22709299       0.44571237
H       -2.96744946       0.25509246       0.86761781
H       -1.61886667      -0.87312593       0.92504322
H       -2.65929130      -0.75040229      -0.52791095
H       -0.63949501       0.47023804      -1.34645208
H        0.15209683       2.33942772       0.55710353
H       -0.04827857       0.79485138       1.46609211
H        0.92987307       1.14521798      -1.33760914
H        1.03980449      -1.41809874      -1.34702021
H        0.31244641      -1.45227408       0.23577392
H        2.76500072      -1.77326948       0.42441078
17
Frame=1 idx=010110 GeodesicLength=0.06855008475014805 rxn_smarts="[C:1]([C@@:2]1([H:11])[C:3]([H:12])([H:13])[C@:4]1([C:5]([C:6](=[O:7])[H:17])([H:15])[H:16])[H:14])([H:8])([H:9])[H:10]>>[C:1]([C:2][C:3]([C:4]([C:5]([C:6](=[O:7])[H:17])([H:15])[H:16])([H:11])[H:14])([H:12])[H:13])([H:8])([H:9])[H:10]"
C       -2.18527322      -0.17348637       0.27288673
C       -1.41837477       1.01109321      -0.25123947
C       -0.18582387       1.29415947       0.51481367
C        0.34464145       0.50931436      -0.67593894
C        0.95489737      -0.84550628      -0.42223254
C        2.32686431      -0.77736504       0.19795793
O        2.91374398       0.23783893       0.44810714
H       -2.98970369       0.27671434       0.86360159
H       -1.64866110      -0.86448671       0.93915163
H       -2.67302724      -0.73959539      -0.52228259
H       -0.64558507       0.47275943      -1.36322062
H        0.15061121       2.32492124       0.56126695
H       -0.04837903       0.77747266       1.46712291
H        0.93291145       1.14204554      -1.33551694
H        1.05596195      -1.42185355      -1.34961919
H        0.33050035      -1.46026386       0.23398675
H        2.78469590      -1.76376198       0.42115501
17
Frame=2 idx=010110 GeodesicLength=0.13716831852488354 rxn_smarts="[C:1]([C@@:2]1([H:11])[C:3]([H:12])([H:13])[C@:4]1([C:5]([C:6](=[O:7])[H:17])([H:15])[H:16])[H:14])([H:8])([H:9])[H:10]>>[C:1]([C:2][C:3]([C:4]([C:5]([C:6](=[O:7])[H:17])([H:15])[H:16])([H:11])[H:14])([H:12])[H:13])([H:8])([H:9])[H:10]"
C       -2.20444449      -0.16116801       0.28166247
C       -1.41591793       1.00343449      -0.25093428
C       -0.18299426       1.27733420       0.51615256
C        0.34651472       0.50088932      -0.67941037
C        0.96799407      -0.84918486      -0.42545760
C        2.34020461      -0.77100245       0.19306523
O        2.91605174       0.24884455       0.45052450
H       -3.01242821       0.29959070       0.85872545
H       -1.67959869      -0.85469192       0.95425528
H       -2.68686808      -0.72895310      -0.51617469
H       -0.65175212       0.47539651      -1.38009650
H        0.14904208       2.30969320       0.56581869
H       -0.04874343       0.75924635       1.46813207
H        0.93573868       1.13868675      -1.33329873
H        1.07273799      -1.42555086      -1.35244394
H        0.34934567      -1.46872336       0.23199246
H        2.80511765      -1.75384150       0.41748741
17
Frame=3 idx=010110 GeodesicLength=0.20586550526468858 rxn_smarts="[C:1]([C@@:2]1([H:11])[C:3]([H:12])([H:13])[C@:4]1([C:5]([C:6](=[O:7])[H:17])([H:15])[H:16])[H:14])([H:8])([H:9])[H:10]>>[C:1]([C:2][C:3]([C:4]([C:5]([C:6](=[O:7])[H:17])([H:15])[H:16])([H:11])[H:14])([H:12])[H:13])([H:8])([H:9])[H:10]"
C       -2.22408766      -0.14819834       0.29055418
C       -1.41348573       0.99521129      -0.25072318
C       -0.18032929       1.25979492       0.51757098
C        0.34841133       0.49203048      -0.68282968
C        0.98157538      -0.85300926      -0.42883350
C        2.35395424      -0.76436688       0.18797644
O        2.91831444       0.26012618       0.45297648
H       -3.03560278       0.32378742       0.85291854
H       -1.71173391      -0.84362627       0.97040390
H       -2.70084027      -0.71849938      -0.50952665
H       -0.65800396       0.47815483      -1.39708131
H        0.14737733       2.29368650       0.57078335
H       -0.04938431       0.74009442       1.46911118
H        0.93833925       1.13513478      -1.33094679
H        1.09017901      -1.42917546      -1.35552181
H        0.36902958      -1.47767400       0.22975730
H        2.82628733      -1.74347124       0.41341057
17
Frame=4 idx=010110 GeodesicLength=0.27464721510792284 rxn_smarts="[C:1]([C@@:2]1([H:11])[C:3]([H:12])([H:13])[C@:4]1([C:5]([C:6](=[O:7])[H:17])([H:15])[H:16])[H:14])([H:8])([H:9])[H:10]>>[C:1]([C:2][C:3]([C:4]([C:5]([C:6](=[O:7])[H:17])([H:15])[H:16])([H:11])[H:14])([H:12])[H:13])([H:8])([H:9])[H:10]"
C       -2.24421827      -0.13452838       0.29956198
C       -1.41108629       0.98636697      -0.25060143
C       -0.17784111       1.24147897       0.51907391
C        0.35032985       0.48270732      -0.68620230
C        0.99567203      -0.85698381      -0.43238094
C        2.36812453      -0.75743245       0.18268563
O        2.92050917       0.27170054       0.45548211
H       -3.05918784       0.34937046       0.84610589
H       -1.74512086      -0.83115973       0.98764766
H       -2.71498181      -0.70825141      -0.50226638
H       -0.66434569       0.48104158      -1.41417677
H        0.14559829       2.27683801       0.57618516
H       -0.05031820       0.71992936       1.47004940
H        0.94069696       1.13138184      -1.32845117
H        1.10833677      -1.43271115      -1.35888187
H        0.38960370      -1.48713978       0.22724467
H        2.84822876      -1.73260833       0.40892447
17
Frame=5 idx=010110 GeodesicLength=0.3435126524380295 rxn_smarts="[C:1]([C@@:2]1([H:11])[C:3]([H:12])([H:13])[C@:4]1([C:5]([C:6](=[O:7])[H:17])([H:15])[H:16])[H:14])([H:8])([H:9])[H:10]>>[C:1]([C:2][C:3]([C:4]([C:5]([C:6](=[O:7])[H:17])([H:15])[H:16])([H:11])[H:14])([H:12])[H:13])([H:8])([H:9])[H:10]"
C       -2.26484675      -0.12011576       0.30867872
C       -1.40873077       0.97684071      -0.25056861
C       -0.17554242       1.22232384       0.52066555
C        0.35227054       0.47289070      -0.68953218
C        1.01031238      -0.86110968      -0.43611902
C        2.38272752      -0.75017703       0.17719171
O        2.92262079       0.28358144       0.45805018
H       -3.08315623       0.37640207       0.83822794
H       -1.77980887      -0.81714573       1.00602598
H       -2.72932276      -0.69823298      -0.49432101
H       -0.67078241       0.48406526      -1.43138336
H        0.14368490       2.25908596       0.58205140
H       -0.05156623       0.69866120       1.47093426
H        0.94279612       1.12742122      -1.32580102
H        1.12726028      -1.43613686      -1.36255103
H        0.41111774      -1.49713818       0.22441675
H        2.87096618      -1.72121619       0.40403376
17
Frame=6 idx=010110 GeodesicLength=0.4124699372001912 rxn_smarts="[C:1]([C@@:2]1([H:11])[C:3]([H:12])([H:13])[C@:4]1([C:5]([C:6](=[O:7])[H:17])([H:15])[H:16])[H:14])([H:8])([H:9])[H:10]>>[C:1]([C:2][C:3]([C:4]([C:5]([C:6](=[O:7])[H:17])([H:15])[H:16])([H:11])[H:14])([H:12])[H:13])([H:8])([H:9])[H:10]"
C       -2.28598453      -0.10490165       0.31790967
C       -1.40642747       0.96656140      -0.25061590
C       -0.17344965       1.20225357       0.52235044
C        0.35423244       0.46254644      -0.69282597
C        1.02553184      -0.86538956      -0.44007348
C        2.39776986      -0.74256847       0.17149095
O        2.92461766       0.29578612       0.46070417
H       -3.10744658       0.40495509       0.82917868
H       -1.81584499      -0.80142229       1.02559459
H       -2.74391372      -0.68846652      -0.48559311
H       -0.67732225       0.48723327      -1.44870077
H        0.14161115       2.24035007       0.58841031
H       -0.05314864       0.67618334       1.47175090
H        0.94461721       1.12324436      -1.32298278
H        1.14700996      -1.43942827      -1.36656563
H        0.43362950      -1.50769523       0.22122664
H        2.89451822      -1.70924168       0.39874129
17
Frame=7 idx=010110 GeodesicLength=0.481514613484826 rxn_smarts="[C:1]([C@@:2]1([H:11])[C:3]([H:12])([H:13])[C@:4]1([C:5]([C:6](=[O:7])[H:17])([H:15])[H:16])[H:14])([H:8])([H:9])[H:10]>>[C:1]([C:2][C:3]([C:4]([C:5]([C:6](=[O:7])[H:17])([H:15])[H:16])([H:11])[H:14])([H:12])[H:13])([H:8])([H:9])[H:10]"
C       -2.30763634      -0.08883506       0.32725387
C       -1.40418924       0.95545071      -0.25073938
C       -0.17158050       1.18119216       0.52412989
C        0.35621711       0.45164374      -0.69609008
C        1.04136229      -0.86982274      -0.44426970
C        2.41325709      -0.73457834       0.16558621
O        2.92647651       0.30832896       0.46345860
H       -3.13200235       0.43510189       0.81886698
H       -1.85326288      -0.78382228       1.04639950
H       -2.75880340      -0.67898387      -0.47598182
H       -0.68397125       0.49056010      -1.46612636
H        0.13934844       2.22055319       0.59528900
H       -0.05508980       0.65238905       1.47248174
H        0.94614306       1.11884673      -1.31998046
H        1.16764271      -1.44255490      -1.37096041
H        0.45719063      -1.51883018       0.21762264
H        2.91889790      -1.69663916       0.39305979
17
Frame=8 idx=010110 GeodesicLength=0.5506464500474559 rxn_smarts="[C:1]([C@@:2]1([H:11])[C:3]([H:12])([H:13])[C@:4]1([C:5]([C:6](=[O:7])[H:17])([H:15])[H:16])[H:14])([H:8])([H:9])[H:10]>>[C:1]([C:2][C:3]([C:4]([C:5]([C:6](=[O:7])[H:17])([H:15])[H:16])([H:11])[H:14])([H:12])[H:13])([H:8])([H:9])[H:10]"
C       -2.32980747      -0.07184598       0.33671322
C       -1.40203291       0.94341478      -0.25093629
C       -0.16995852       1.15904633       0.52600123
C        0.35822439       0.44014342      -0.69933502
C        1.05784022      -0.87440860      -0.44873825
C        2.42919261      -0.72617162       0.15948271
O        2.92816121       0.32122546       0.46634464
H       -3.15673739       0.46690921       0.80718792
H       -1.89210512      -0.76411870       1.06851375
H       -2.77404026      -0.66981575      -0.46537731
H       -0.69073455       0.49406010      -1.48365625
H        0.13685579       2.19959229       0.60271810
H       -0.05742325       0.62714538       1.47309733
H        0.94735298       1.11421897      -1.31677252
H        1.18922565      -1.44547968      -1.37577809
H        0.48186212      -1.53056708       0.21354085
H        2.94412453      -1.68334852       0.38699396
17
Frame=9 idx=010110 GeodesicLength=0.619904868616188 rxn_smarts="[C:1]([C@@:2]1([H:11])[C:3]([H:12])([H:13])[C@:4]1([C:5]([C:6](=[O:7])[H:17])([H:15])[H:16])[H:14])([H:8])([H:9])[H:10]>>[C:1]([C:2][C:3]([C:4]([C:5]([C:6](=[O:7])[H:17])([H:15])[H:16])([H:11])[H:14])([H:12])[H:13])([H:8])([H:9])[H:10]"
C       -2.35253281      -0.05378694       0.34626891
C       -1.39999576       0.93022952      -0.25120738
C       -0.16861536       1.13558603       0.52798285
C        0.36023381       0.42791585      -0.70257921
C        1.07507426      -0.87915919      -0.45353386
C        2.44561865      -0.71724872       0.15315074
O        2.92954027       0.33453815       0.46948662
H       -3.18150335       0.50045451       0.79382488
H       -1.93252973      -0.74164359       1.09193133
H       -2.78981628      -0.66086997      -0.45336281
H       -0.69762965       0.49766648      -1.50126053
H        0.13408731       2.17722514       0.61081397
H       -0.06022691       0.60011061       1.47354556
H        0.94817513       1.10929825      -1.31331599
H        1.21192598      -1.44813373      -1.38109713
H        0.50786179      -1.54298245       0.20888714
H        2.97033264      -1.66919997       0.38046492
17
Frame=10 idx=010110 GeodesicLength=0.6892380763024081 rxn_smarts="[C:1]([C@@:2]1([H:11])[C:3]([H:12])([H:13])[C@:4]1([C:5]([C:6](=[O:7])[H:17])([H:15])[H:16])[H:14])([H:8])([H:9])[H:10]>>[C:1]([C:2][C:3]([C:4]([C:5]([C:6](=[O:7])[H:17])([H:15])[H:16])([H:11])[H:14])([H:12])[H:13])([H:8])([H:9])[H:10]"
C       -2.37576631      -0.03464709       0.35593059
C       -1.39808426       0.91585834      -0.25155588
C       -0.16757610       1.11080502       0.53005252
C        0.36226721       0.41499383      -0.70583033
C        1.09304330      -0.88405708      -0.45867316
C        2.46249413      -0.70782545       0.14663748
O        2.93062798       0.34823783       0.47286561
H       -3.20624257       0.53579395       0.77880627
H       -1.97441047      -0.71644687       1.11674928
H       -2.80609945      -0.65227759      -0.43998394
H       -0.70465354       0.50145766      -1.51895549
H        0.13098424       2.15344726       0.61954648
H       -0.06351539       0.57128476       1.47380324
H        0.94862717       1.10412749      -1.30960110
H        1.23574319      -1.45048549      -1.38693966
H        0.53512060      -1.55605291       0.20360549
H        2.99744028      -1.65421365       0.37354263
17
Frame=11 idx=010110 GeodesicLength=0.7586372599245108 rxn_smarts="[C:1]([C@@:2]1([H:11])[C:3]([H:12])([H:13])[C@:4]1([C:5]([C:6](=[O:7])[H:17])([H:15])[H:16])[H:14])([H:8])([H:9])[H:10]>>[C:1]([C:2][C:3]([C:4]([C:5]([C:6](=[O:7])[H:17])([H:15])[H:16])([H:11])[H:14])([H:12])[H:13])([H:8])([H:9])[H:10]"
C       -2.39949717      -0.01434584       0.36568739
C       -1.39632127       0.90016534      -0.25198547
C       -0.16686719       1.08458210       0.53221067
C        0.36432557       0.40132770      -0.70910102
C        1.11179040      -0.88909589      -0.46418709
C        2.47981469      -0.69785426       0.13995646
O        2.93136404       0.36234366       0.47652747
H       -3.23084332       0.57298732       0.76198337
H       -2.01774508      -0.68822757       1.14298246
H       -2.82299123      -0.64404643      -0.42503929
H       -0.71181807       0.50543661      -1.53672888
H        0.12749674       2.12813256       0.62896094
H       -0.06733653       0.54049222       1.47383360
H        0.94867674       1.09869351      -1.30560098
H        1.26075970      -1.45247899      -1.39334994
H        0.56371592      -1.56979863       0.19762667
H        3.02547608      -1.63831341       0.36622366
17
Frame=12 idx=010110 GeodesicLength=0.8281095142964761 rxn_smarts="[C:1]([C@@:2]1([H:11])[C:3]([H:12])([H:13])[C@:4]1([C:5]([C:6](=[O:7])[H:17])([H:15])[H:16])[H:14])([H:8])([H:9])[H:10]>>[C:1]([C:2][C:3]([C:4]([C:5]([C:6](=[O:7])[H:17])([H:15])[H:16])([H:11])[H:14])([H:12])[H:13])([H:8])([H:9])[H:10]"
C       -2.42371413       0.00722338       0.37552691
C       -1.39473856       0.88297312      -0.25250362
C       -0.16652966       1.05675760       0.53445213
C        0.36640837       0.38685154      -0.71240550
C        1.13137385      -0.89427050      -0.47011341
C        2.49758145      -0.68727632       0.13312831
O        2.93167390       0.37688132       0.48053906
H       -3.25515807       0.61211800       0.74319609
H       -2.06252944      -0.65659503       1.17064842
H       -2.84062442      -0.63616759      -0.40829291
H       -0.71913643       0.50959950      -1.55456505
H        0.12354980       2.10111151       0.63911090
H       -0.07176100       0.50750481       1.47358273
H        0.94828167       1.09297918      -1.30128005
H        1.28708381      -1.45404660      -1.40038121
H        0.59374860      -1.58425230       0.19086533
H        3.05449026      -1.62139162       0.35849188
17
Frame=13 idx=010110 GeodesicLength=0.8976226624498311 rxn_smarts="[C:1]([C@@:2]1([H:11])[C:3]([H:12])([H:13])[C@:4]1([C:5]([C:6](=[O:7])[H:17])([H:15])[H:16])[H:14])([H:8])([H:9])[H:10]>>[C:1]([C:2][C:3]([C:4]([C:5]([C:6](=[O:7])[H:17])([H:15])[H:16])([H:11])[H:14])([H:12])[H:13])([H:8])([H:9])[H:10]"
C       -2.44838472       0.03015440       0.38541584
C       -1.39337693       0.86408321      -0.25313256
C       -0.16659884       1.02717312       0.53676168
C        0.36851735       0.37150492      -0.71576366
C        1.15183961      -0.89956217      -0.47649045
C        2.51577969      -0.67603033       0.12618158
O        2.93148213       0.39187056       0.48495544
H       -3.27903411       0.65323384       0.72234681
H       -2.10868555      -0.62116033       1.19971759
H       -2.85913164      -0.62861789      -0.38950365
H       -0.72662467       0.51394892      -1.57243946
H        0.11907270       2.07221878       0.65003965
H       -0.07686475       0.47209353       1.47298261
H        0.94740151       1.08696890      -1.29659917
H        1.31480967      -1.45510249      -1.40808409
H        0.62530635      -1.59942287       0.18322380
H        3.08449221      -1.60335410       0.35038804
17
Frame=14 idx=010110 GeodesicLength=0.9672063566948055 rxn_smarts="[C:1]([C@@:2]1([H:11])[C:3]([H:12])([H:13])[C@:4]1([C:5]([C:6](=[O:7])[H:17])([H:15])[H:16])[H:14])([H:8])([H:9])[H:10]>>[C:1]([C:2][C:3]([C:4]([C:5]([C:6](=[O:7])[H:17])([H:15])[H:16])([H:11])[H:14])([H:12])[H:13])([H:8])([H:9])[H:10]"
C       -2.47347677       0.05459297       0.39534473
C       -1.39228000       0.84324108      -0.25386771
C       -0.16713631       0.99560200       0.53913728
C        0.37065082       0.35520210      -0.71918946
C        1.17326536      -0.90496160      -0.48336660
C        2.53440762      -0.66403252       0.11914318
O        2.93068465       0.40734729       0.48986699
H       -3.30224574       0.69642430       0.69914239
H       -2.15617714      -0.58136016       1.23020292
H       -2.87871227      -0.62135969      -0.36830934
H       -0.73430696       0.51846688      -1.59032039
H        0.11394996       2.04120398       0.66182700
H       -0.08275031       0.43393415       1.47195536
H        0.94596975       1.08064204      -1.29149849
H        1.34407675      -1.45554519      -1.41652766
H        0.65852943      -1.61535554       0.17458849
H        3.11555116      -1.58404209       0.34187131
17
Frame=15 idx=010110 GeodesicLength=1.0368496715156705 rxn_smarts="[C:1]([C@@:2]1([H:11])[C:3]([H:12])([H:13])[C@:4]1([C:5]([C:6](=[O:7])[H:17])([H:15])[H:16])[H:14])([H:8])([H:9])[H:10]>>[C:1]([C:2][C:3]([C:4]([C:5]([C:6](=[O:7])[H:17])([H:15])[H:16])([H:11])[H:14])([H:12])[H:13])([H:8])([H:9])[H:10]"
C       -2.49893448       0.08068329       0.40526706
C       -1.39150972       0.82013592      -0.25472222
C       -0.16820726       0.96179908       0.54156821
C        0.37280761       0.33785234      -0.72269420
C        1.19572164      -0.91044422      -0.49078323
C        2.55344944      -0.65119343       0.11205787
O        2.92919226       0.42335280       0.49532181
H       -3.32454991       0.74175283       0.67337690
H       -2.20488077      -0.53661415       1.26202787
H       -2.89958431      -0.61430105      -0.34434128
H       -0.74221094       0.52313763      -1.60815566
H        0.10805111       2.00780170       0.67454810
H       -0.08953981       0.39268073       1.47040600
H        0.94391477       1.07397534      -1.28590640
H        1.37501709      -1.45525245      -1.42576807
H        0.69355412      -1.63207146       0.16484370
H        3.14770917      -1.56329490       0.33295355
17
Frame=16 idx=010110 GeodesicLength=1.1065627299188276 rxn_smarts="[C:1]([C@@:2]1([H:11])[C:3]([H:12])([H:13])[C@:4]1([C:5]([C:6](=[O:7])[H:17])([H:15])[H:16])[H:14])([H:8])([H:9])[H:10]>>[C:1]([C:2][C:3]([C:4]([C:5]([C:6](=[O:7])[H:17])([H:15])[H:16])([H:11])[H:14])([H:12])[H:13])([H:8])([H:9])[H:10]"
C       -2.52468253       0.10859123       0.41513132
C       -1.39114474       0.79438829      -0.25570041
C       -0.16989469       0.92547794       0.54406189
C        0.37498058       0.31935858      -0.72629019
C        1.21928423      -0.91598462      -0.49878922
C        2.57288167      -0.63741866       0.10496716
O        2.92688229       0.43991374       0.50140564
H       -3.34567765       0.78923913       0.64469291
H       -2.25462029      -0.48612706       1.29513989
H       -2.92194435      -0.60735945      -0.31712520
H       -0.75037536       0.52794525      -1.62588630
H        0.10120771       1.97171057       0.68832214
H       -0.09738583       0.34791887       1.46823481
H        0.94114205       1.06695792      -1.27973065
H        1.40777022      -1.45407747      -1.43588153
H        0.73054157      -1.64960023       0.15386170
H        3.18103509      -1.54093405       0.32358605
