15
Frame=0 idx=011145 GeodesicLength=0.0 rxn_smarts="[C:1]([C:2]([C@@:3]1([C:6]#[C:7][H:15])[C:4]([H:13])([H:14])[O:5]1)([H:11])[H:12])([H:8])([H:9])[H:10]>>[C:1]([C:2]([C:3]([C:4]([C:6]#[C:7][H:15])([H:13])[H:14])=[O:5])([H:11])[H:12])([H:8])([H:9])[H:10]"
C       -1.48222963      -0.90726212      -0.12311636
C       -0.65925458      -0.36832972       1.03706531
C        0.56370247       0.50208946       0.68017869
C        0.37863158       1.58879329      -0.26981681
O        1.21082988       1.00479833       1.70358714
C        1.36235559      -0.18473156      -0.44466886
C        2.00911443      -0.61429182      -1.36942214
H       -2.33820098      -1.46598794       0.25846633
H       -0.90014696      -1.57888546      -0.75546210
H       -1.88098633      -0.11172745      -0.75811505
H       -1.27020273       0.25090857       1.69714718
H       -0.26732210      -1.18355669       1.64631636
H        1.23629190       2.23982926      -0.37783016
H       -0.55530075       1.85669836      -0.76538422
H        2.59271823      -1.02834456      -2.15894530
15
Frame=1 idx=011145 GeodesicLength=0.07018376829582706 rxn_smarts="[C:1]([C:2]([C@@:3]1([C:6]#[C:7][H:15])[C:4]([H:13])([H:14])[O:5]1)([H:11])[H:12])([H:8])([H:9])[H:10]>>[C:1]([C:2]([C:3]([C:4]([C:6]#[C:7][H:15])([H:13])[H:14])=[O:5])([H:11])[H:12])([H:8])([H:9])[H:10]"
C       -1.48083404      -0.91494424      -0.12243788
C       -0.66510675      -0.36890198       1.03962773
C        0.56071236       0.49242930       0.68441087
C        0.38996043       1.58983536      -0.25749127
O        1.19967010       1.02384169       1.69647141
C        1.36478829      -0.17150990      -0.46904091
C        2.01256929      -0.61230050      -1.38686681
H       -2.34271986      -1.46621683       0.25667675
H       -0.89687507      -1.59640022      -0.74240278
H       -1.86935397      -0.12339142      -0.76845430
H       -1.28146307       0.25754823       1.68812070
H       -0.27836279      -1.17956969       1.65829993
H        1.24480200       2.24349524      -0.37231268
H       -0.55046928       1.86848477      -0.73414599
H        2.59268235      -1.04239982      -2.17045476
15
Frame=2 idx=011145 GeodesicLength=0.14029450423200734 rxn_smarts="[C:1]([C:2]([C@@:3]1([C:6]#[C:7][H:15])[C:4]([H:13])([H:14])[O:5]1)([H:11])[H:12])([H:8])([H:9])[H:10]>>[C:1]([C:2]([C:3]([C:4]([C:6]#[C:7][H:15])([H:13])[H:14])=[O:5])([H:11])[H:12])([H:8])([H:9])[H:10]"
C       -1.47927379      -0.92264348      -0.12164693
C       -0.67095184      -0.36918678       1.04219015
C        0.55809386       0.48275058       0.68866146
C        0.40125062       1.59064254      -0.24515127
O        1.18868352       1.04165084       1.68936870
C        1.36682878      -0.15784022      -0.49382459
C        2.01527611      -0.61053040      -1.40449308
H       -2.34698541      -1.46653130       0.25482632
H       -0.89336158      -1.61369030      -0.72901535
H       -1.85745510      -0.13529778      -0.77863939
H       -1.29264719       0.26463964       1.67865677
H       -0.28997837      -1.17516233       1.67059145
H        1.25290270       2.24738263      -0.36654038
H       -0.54508528       1.87957652      -0.70330458
H        2.59270298      -1.05576014      -2.18167929
15
Frame=3 idx=011145 GeodesicLength=0.21034724973512692 rxn_smarts="[C:1]([C:2]([C@@:3]1([C:6]#[C:7][H:15])[C:4]([H:13])([H:14])[O:5]1)([H:11])[H:12])([H:8])([H:9])[H:10]>>[C:1]([C:2]([C:3]([C:4]([C:6]#[C:7][H:15])([H:13])[H:14])=[O:5])([H:11])[H:12])([H:8])([H:9])[H:10]"
C       -1.47753921      -0.93034291      -0.12078806
C       -0.67669790      -0.36924298       1.04468405
C        0.55583538       0.47310428       0.69281475
C        0.41237377       1.59140983      -0.23272466
O        1.17806381       1.05812724       1.68220689
C        1.36833937      -0.14344421      -0.51932104
C        2.01693009      -0.60853291      -1.42278137
H       -2.35095161      -1.46696414       0.25290114
H       -0.88962236      -1.63068555      -0.71543242
H       -1.84535042      -0.14739649      -0.78863679
H       -1.30362387       0.27201267       1.66881261
H       -0.30195855      -1.17042089       1.68299087
H        1.26044625       2.25171153      -0.36039603
H       -0.53939612       1.89020563      -0.67261086
H        2.59315137      -1.06954110      -2.19171909
15
Frame=4 idx=011145 GeodesicLength=0.28032502515670277 rxn_smarts="[C:1]([C:2]([C@@:3]1([C:6]#[C:7][H:15])[C:4]([H:13])([H:14])[O:5]1)([H:11])[H:12])([H:8])([H:9])[H:10]>>[C:1]([C:2]([C:3]([C:4]([C:6]#[C:7][H:15])([H:13])[H:14])=[O:5])([H:11])[H:12])([H:8])([H:9])[H:10]"
C       -1.47565812      -0.93806974      -0.11981498
C       -0.68244287      -0.36902917       1.04716326
C        0.55387696       0.46345069       0.69694221
C        0.42348927       1.59196332      -0.22033754
O        1.16774144       1.07334854       1.67508781
C        1.36940191      -0.12857059      -0.54523411
C        2.01779168      -0.60666638      -1.44122188
H       -2.35465437      -1.46754573       0.25093380
H       -0.88565192      -1.64742420      -0.70156368
H       -1.83305950      -0.15974335      -0.79843746
H       -1.31450215       0.27978936       1.65852623
H       -0.31447673      -1.16524187       1.69564608
H        1.26766776       2.25621681      -0.35396504
H       -0.53319631       1.90018454      -0.64238917
H        2.59367295      -1.08266224      -2.20133553
15
Frame=5 idx=011145 GeodesicLength=0.35021459014454037 rxn_smarts="[C:1]([C:2]([C@@:3]1([C:6]#[C:7][H:15])[C:4]([H:13])([H:14])[O:5]1)([H:11])[H:12])([H:8])([H:9])[H:10]>>[C:1]([C:2]([C:3]([C:4]([C:6]#[C:7][H:15])([H:13])[H:14])=[O:5])([H:11])[H:12])([H:8])([H:9])[H:10]"
C       -1.47369702      -0.94579330      -0.11870613
C       -0.68818559      -0.36857155       1.04962392
C        0.55217367       0.45378466       0.70101009
C        0.43460254       1.59227874      -0.20805126
O        1.15776290       1.08732924       1.66798943
C        1.36998318      -0.11324788      -0.57157039
C        2.01790996      -0.60492661      -1.45974460
H       -2.35809785      -1.46833330       0.24898235
H       -0.88153553      -1.66378740      -0.68751862
H       -1.82076799      -0.17226056      -0.80790546
H       -1.32523176       0.28791025       1.64785185
H       -0.32748096      -1.15966029       1.70848140
H        1.27460424       2.26083285      -0.34729995
H       -0.52651046       1.90950379      -0.61272527
H        2.59447068      -1.09505864      -2.21041737
15
Frame=6 idx=011145 GeodesicLength=0.4200143331012359 rxn_smarts="[C:1]([C:2]([C@@:3]1([C:6]#[C:7][H:15])[C:4]([H:13])([H:14])[O:5]1)([H:11])[H:12])([H:8])([H:9])[H:10]>>[C:1]([C:2]([C:3]([C:4]([C:6]#[C:7][H:15])([H:13])[H:14])=[O:5])([H:11])[H:12])([H:8])([H:9])[H:10]"
C       -1.47170263      -0.95346606      -0.11747101
C       -0.69388520      -0.36792076       1.05203779
C        0.55068799       0.44413321       0.70497353
C        0.44566571       1.59238319      -0.19591090
O        1.14817700       1.10009916       1.66087284
C        1.37006171      -0.09742524      -0.59838809
C        2.01741510      -0.60315539      -1.47835030
H       -2.36124706      -1.46939360       0.24708487
H       -0.87734319      -1.67961647      -0.67349141
H       -1.80867844      -0.18482387      -0.81689865
H       -1.33573039       0.29624326       1.63688063
H       -0.34083424      -1.15376617       1.72134267
H        1.28121551       2.26557462      -0.34044463
H       -0.51943987       1.91821833      -0.58360714
H        2.59563801      -1.10708421      -2.21863019
15
Frame=7 idx=011145 GeodesicLength=0.48971177833498414 rxn_smarts="[C:1]([C:2]([C@@:3]1([C:6]#[C:7][H:15])[C:4]([H:13])([H:14])[O:5]1)([H:11])[H:12])([H:8])([H:9])[H:10]>>[C:1]([C:2]([C:3]([C:4]([C:6]#[C:7][H:15])([H:13])[H:14])=[O:5])([H:11])[H:12])([H:8])([H:9])[H:10]"
C       -1.46961310      -0.96118993      -0.11609298
C       -0.69964649      -0.36701075       1.05444677
C        0.54936430       0.43445918       0.70890486
C        0.45684941       1.59218920      -0.18391939
O        1.13894603       1.11172966       1.65386025
C        1.36969315      -0.08124711      -0.62545236
C        2.01618584      -0.60156960      -1.49679391
H       -2.36414292      -1.47070512       0.24520870
H       -0.87294802      -1.69517210      -0.65920876
H       -1.79655308      -0.19765101      -0.82563004
H       -1.34614954       0.30496290       1.62544394
H       -0.35474949      -1.14737967       1.73443427
H        1.28774118       2.27027195      -0.33334607
H       -0.51177237       1.92626718      -0.55518045
H        2.59679509      -1.11795477      -2.22667483
15
Frame=8 idx=011145 GeodesicLength=0.5593226026690492 rxn_smarts="[C:1]([C:2]([C@@:3]1([C:6]#[C:7][H:15])[C:4]([H:13])([H:14])[O:5]1)([H:11])[H:12])([H:8])([H:9])[H:10]>>[C:1]([C:2]([C:3]([C:4]([C:6]#[C:7][H:15])([H:13])[H:14])=[O:5])([H:11])[H:12])([H:8])([H:9])[H:10]"
C       -1.46757329      -0.96883735      -0.11456301
C       -0.70535656      -0.36595037       1.05679520
C        0.54820329       0.42477256       0.71265909
C        0.46798737       1.59177508      -0.17213465
O        1.13023392       1.12211933       1.64675374
C        1.36871060      -0.06457229      -0.65311201
C        2.01415886      -0.59988104      -1.51547713
H       -2.36680005      -1.47230022       0.24348427
H       -0.86859041      -1.71014753      -0.64502056
H       -1.78480087      -0.21045281      -0.83380557
H       -1.35626113       0.31381585       1.61377655
H       -0.36891665      -1.14072602       1.74744414
H        1.29401008       2.27499347      -0.32612727
H       -0.50380624       1.93380800      -0.52726328
H        2.59880107      -1.12841666      -2.23340952
15
Frame=9 idx=011145 GeodesicLength=0.6288438710717483 rxn_smarts="[C:1]([C:2]([C@@:3]1([C:6]#[C:7][H:15])[C:4]([H:13])([H:14])[O:5]1)([H:11])[H:12])([H:8])([H:9])[H:10]>>[C:1]([C:2]([C:3]([C:4]([C:6]#[C:7][H:15])([H:13])[H:14])=[O:5])([H:11])[H:12])([H:8])([H:9])[H:10]"
C       -1.46544691      -0.97655304      -0.11288815
C       -0.71116226      -0.36463917       1.05914121
C        0.54712705       0.41507331       0.71640832
C        0.47930519       1.59102255      -0.16054184
O        1.12187301       1.13148341       1.63979290
C        1.36732527      -0.04759145      -0.68090945
C        2.01145842      -0.59833674      -1.53388558
H       -2.36920397      -1.47419903       0.24179737
H       -0.86401329      -1.72485854      -0.63059621
H       -1.77306373      -0.22353131      -0.84171831
H       -1.36632285       0.32302800       1.60162964
H       -0.38364396      -1.13354980       1.76066054
H        1.30031984       2.27955521      -0.31868825
H       -0.49522973       1.94071224      -0.50008608
H        2.60067791      -1.13761563      -2.24011609
15
Frame=10 idx=011145 GeodesicLength=0.6983060723459891 rxn_smarts="[C:1]([C:2]([C@@:3]1([C:6]#[C:7][H:15])[C:4]([H:13])([H:14])[O:5]1)([H:11])[H:12])([H:8])([H:9])[H:10]>>[C:1]([C:2]([C:3]([C:4]([C:6]#[C:7][H:15])([H:13])[H:14])=[O:5])([H:11])[H:12])([H:8])([H:9])[H:10]"
C       -1.46317962      -0.98438184      -0.11106692
C       -0.71710787      -0.36304933       1.06149249
C        0.54611096       0.40535969       0.72021861
C        0.49085092       1.58991129      -0.14912656
O        1.11384286       1.13985565       1.63303247
C        1.36559724      -0.03034840      -0.70875594
C        2.00805261      -0.59696834      -1.55199254
H       -2.37134955      -1.47639811       0.24010529
H       -0.85913144      -1.73941158      -0.61580142
H       -1.76118678      -0.23698872      -0.84946514
H       -1.37640603       0.33265217       1.58890392
H       -0.39902771      -1.12575709       1.77414611
H        1.30676567       2.28388358      -0.31099364
H       -0.48602930       1.94702413      -0.47365312
H        2.60219803      -1.14538309      -2.24704360
15
Frame=11 idx=011145 GeodesicLength=0.7676961322998425 rxn_smarts="[C:1]([C:2]([C@@:3]1([C:6]#[C:7][H:15])[C:4]([H:13])([H:14])[O:5]1)([H:11])[H:12])([H:8])([H:9])[H:10]>>[C:1]([C:2]([C:3]([C:4]([C:6]#[C:7][H:15])([H:13])[H:14])=[O:5])([H:11])[H:12])([H:8])([H:9])[H:10]"
C       -1.46085029      -0.99225588      -0.10911213
C       -0.72311366      -0.36126324       1.06380561
C        0.54513351       0.39564279       0.72399117
C        0.50254543       1.58849957      -0.13790823
O        1.10623043       1.14724421       1.62637262
C        1.36343086      -0.01271315      -0.73684089
C        2.00384936      -0.59546143      -1.57005276
H       -2.37322373      -1.47894618       0.23847962
H       -0.85407329      -1.75361746      -0.60089303
H       -1.74944520      -0.25064924      -0.85687539
H       -1.38635521       0.34249802       1.57574870
H       -0.41483713      -1.11751044       1.78767504
H        1.31325154       2.28805044      -0.30309944
H       -0.47632660       1.95282911      -0.44785938
H        2.60378396      -1.15234712      -2.25343152
15
Frame=12 idx=011145 GeodesicLength=0.8370263019063278 rxn_smarts="[C:1]([C:2]([C@@:3]1([C:6]#[C:7][H:15])[C:4]([H:13])([H:14])[O:5]1)([H:11])[H:12])([H:8])([H:9])[H:10]>>[C:1]([C:2]([C:3]([C:4]([C:6]#[C:7][H:15])([H:13])[H:14])=[O:5])([H:11])[H:12])([H:8])([H:9])[H:10]"
C       -1.45836531      -1.00027094      -0.10700171
C       -0.72930394      -0.35919311       1.06612730
C        0.54414883       0.38591216       0.72787880
C        0.51453949       1.58668108      -0.12686974
O        1.09892562       1.15375763       1.61995982
C        1.36098915       0.00513508      -0.76485488
C        1.99877247      -0.59408922      -1.58786853
H       -2.37482875      -1.48184083       0.23685072
H       -0.84866768      -1.76768869      -0.58557701
H       -1.73755262      -0.26473857      -0.86413251
H       -1.39635897       0.35274649       1.56195610
H       -0.43134452      -1.10858700       1.80146215
H        1.32000081       2.29187133      -0.29494566
H       -0.46594544       1.95805595      -0.42285569
H        2.60499085      -1.15775136      -2.26012915
15
Frame=13 idx=011145 GeodesicLength=0.9062921573626241 rxn_smarts="[C:1]([C:2]([C@@:3]1([C:6]#[C:7][H:15])[C:4]([H:13])([H:14])[O:5]1)([H:11])[H:12])([H:8])([H:9])[H:10]>>[C:1]([C:2]([C:3]([C:4]([C:6]#[C:7][H:15])([H:13])[H:14])=[O:5])([H:11])[H:12])([H:8])([H:9])[H:10]"
C       -1.45579985      -1.00836111      -0.10474562
C       -0.73560830      -0.35691569       1.06841972
C        0.54314195       0.37617959       0.73181053
C        0.52675809       1.58449286      -0.11603781
O        1.09198168       1.15942792       1.61371067
C        1.35821353       0.02330575      -0.79295004
C        1.99286992      -0.59256731      -1.60561167
H       -2.37615783      -1.48512043       0.23528957
H       -0.84303801      -1.78145226      -0.57009197
H       -1.72576167      -0.27908317      -0.87107644
H       -1.40628085       0.36322115       1.54766378
H       -0.44834667      -1.09914429       1.81529653
H        1.32692298       2.29540133      -0.28660000
H       -0.45500872       1.96277149      -0.39855322
H        2.60611374      -1.16215585      -2.26652404
15
Frame=14 idx=011145 GeodesicLength=0.9755166026395249 rxn_smarts="[C:1]([C:2]([C@@:3]1([C:6]#[C:7][H:15])[C:4]([H:13])([H:14])[O:5]1)([H:11])[H:12])([H:8])([H:9])[H:10]>>[C:1]([C:2]([C:3]([C:4]([C:6]#[C:7][H:15])([H:13])[H:14])=[O:5])([H:11])[H:12])([H:8])([H:9])[H:10]"
C       -1.45304649      -1.01662889      -0.10232218
C       -0.74215632      -0.35433587       1.07072548
C        0.54206287       0.36643978       0.73596175
C        0.53934580       1.58183928      -0.10537639
O        1.08526820       1.16437334       1.60778330
C        1.35529458       0.04162923      -0.82080605
C        1.98608446      -0.59116036      -1.62304843
H       -2.37719906      -1.48879294       0.23371042
H       -0.83699845      -1.79512537      -0.55411989
H       -1.71375631      -0.29392954      -0.87789684
H       -1.41631431       0.37410419       1.53263570
H       -0.46614120      -1.08893861       1.82939594
H        1.33423060       2.29848069      -0.27798128
H       -0.44334020       1.96691793      -0.37509466
H        2.60666583      -1.16487286      -2.27356686
15
Frame=15 idx=011145 GeodesicLength=1.0446797262193064 rxn_smarts="[C:1]([C:2]([C@@:3]1([C:6]#[C:7][H:15])[C:4]([H:13])([H:14])[O:5]1)([H:11])[H:12])([H:8])([H:9])[H:10]>>[C:1]([C:2]([C:3]([C:4]([C:6]#[C:7][H:15])([H:13])[H:14])=[O:5])([H:11])[H:12])([H:8])([H:9])[H:10]"
C       -1.45015564      -1.02502110      -0.09974127
C       -0.74889099      -0.35151398       1.07300803
C        0.54089467       0.35671258       0.74028515
C        0.55224708       1.57874462      -0.09490460
O        1.07879874       1.16864239       1.60211795
C        1.35220058       0.06018654      -0.84852236
C        1.97854745      -0.58963482      -1.64024807
H       -2.37794085      -1.49288401       0.23216587
H       -0.83063908      -1.80857445      -0.53784346
H       -1.70172612      -0.30914506      -0.88447666
H       -1.42634676       0.38524606       1.51697558
H       -0.48456173      -1.07809398       1.84357665
H        1.34184262       2.30114993      -0.26913803
H       -0.43102961       1.97054230      -0.35241824
H        2.60675963      -1.16635701      -2.28083656
15
Frame=16 idx=011145 GeodesicLength=1.1138187223097946 rxn_smarts="[C:1]([C:2]([C@@:3]1([C:6]#[C:7][H:15])[C:4]([H:13])([H:14])[O:5]1)([H:11])[H:12])([H:8])([H:9])[H:10]>>[C:1]([C:2]([C:3]([C:4]([C:6]#[C:7][H:15])([H:13])[H:14])=[O:5])([H:11])[H:12])([H:8])([H:9])[H:10]"
C       -1.44700491      -1.03363085      -0.09699657
C       -0.75591614      -0.34836851       1.07529008
C        0.53959703       0.34701269       0.74494961
C        0.56556679       1.57515559      -0.08455617
O        1.07244741       1.17235915       1.59686876
C        1.34913030       0.07889208      -0.87583162
C        1.97021114      -0.58815825      -1.65704638
H       -2.37834048      -1.49741643       0.23055229
H       -0.82376338      -1.82197530      -0.52099127
H       -1.68935683      -0.32494994      -0.89098074
H       -1.43654043       0.39677767       1.50045529
H       -0.50386578      -1.06639548       1.85799653
H        1.34991619       2.30332202      -0.25996132
H       -0.41795557       1.97361547      -0.33061103
H        2.60587466      -1.16623989      -2.28913746
