13
Frame=0 idx=003731 GeodesicLength=0.0 rxn_smarts="[C:1]1([H:7])([H:8])[N:2]([H:9])[C:3]12[C:4]([H:10])([H:11])[O:5][C:6]2([H:12])[H:13]>>[C:1]1([H:7])([H:8])[N:2]([H:9])[C:3]1=[C:6]([H:12])[H:13].[C:4](=[O:5])([H:10])[H:11]"
C       -1.01049272      -0.71842779      -0.73055333
N       -0.97381423      -1.13312759       0.64544991
C        0.07936655      -0.20061476       0.17328728
C        0.17630183       1.40261384       0.18071274
O        1.14561571       1.61594417      -0.68174878
C        1.38247431      -0.68584759       0.17099850
H       -0.77002198      -1.49018840      -1.45169102
H       -1.71206243       0.03929294      -1.06272840
H       -1.62737811      -0.59191951       1.20357234
H        0.37676608       1.71328516       1.22651891
H       -0.83216653       1.77034428      -0.09478400
H        2.19310799       0.03055652       0.15738152
H        1.57230359      -1.75191128       0.26358437
13
Frame=1 idx=003731 GeodesicLength=0.11999419662933813 rxn_smarts="[C:1]1([H:7])([H:8])[N:2]([H:9])[C:3]12[C:4]([H:10])([H:11])[O:5][C:6]2([H:12])[H:13]>>[C:1]1([H:7])([H:8])[N:2]([H:9])[C:3]1=[C:6]([H:12])[H:13].[C:4](=[O:5])([H:10])[H:11]"
C       -1.03100064      -0.73319502      -0.71367961
N       -0.96218893      -1.12675134       0.66948428
C        0.07817653      -0.20893184       0.15584645
C        0.17394985       1.41508032       0.16483746
O        1.21325172       1.61751315      -0.61260220
C        1.38366709      -0.68489234       0.14596162
H       -0.82277565      -1.52096010      -1.42741757
H       -1.74831696       0.01370288      -1.03636890
H       -1.59920931      -0.57698365       1.23802724
H        0.28420822       1.74640499       1.21711841
H       -0.79744854       1.80394929      -0.19829985
H        2.20571877      -0.00206149       0.31537852
H        1.62196784      -1.74287485       0.08171414
13
Frame=2 idx=003731 GeodesicLength=0.2388367532169191 rxn_smarts="[C:1]1([H:7])([H:8])[N:2]([H:9])[C:3]12[C:4]([H:10])([H:11])[O:5][C:6]2([H:12])[H:13]>>[C:1]1([H:7])([H:8])[N:2]([H:9])[C:3]1=[C:6]([H:12])[H:13].[C:4](=[O:5])([H:10])[H:11]"
C       -1.05095757      -0.74830019      -0.69562576
N       -0.94910193      -1.12125817       0.69340110
C        0.07674262      -0.21795279       0.13911811
C        0.17247895       1.42742404       0.14930541
O        1.27908781       1.61931187      -0.52957969
C        1.38561358      -0.68282289       0.12028351
H       -0.87341962      -1.55133544      -1.40053975
H       -1.78258379      -0.01081017      -1.00753071
H       -1.56924849      -0.56325693       1.27224764
H        0.18704912       1.78017086       1.19976893
H       -0.75175242       1.83381553      -0.30476852
H        2.20135543      -0.05791572       0.46019473
H        1.67473631      -1.70707000      -0.09627500
13
Frame=3 idx=003731 GeodesicLength=0.35683248617943053 rxn_smarts="[C:1]1([H:7])([H:8])[N:2]([H:9])[C:3]12[C:4]([H:10])([H:11])[O:5][C:6]2([H:12])[H:13]>>[C:1]1([H:7])([H:8])[N:2]([H:9])[C:3]1=[C:6]([H:12])[H:13].[C:4](=[O:5])([H:10])[H:11]"
C       -1.07011869      -0.76378478      -0.67658180
N       -0.93545385      -1.11621930       0.71720988
C        0.07491639      -0.22771236       0.12358964
C        0.17147627       1.43972795       0.13467817
O        1.33962429       1.62110403      -0.43254299
C        1.38798299      -0.67958004       0.09345287
H       -0.92133905      -1.58171110      -1.37097820
H       -1.81405116      -0.03408496      -0.97754617
H       -1.53861567      -0.55001605       1.30573615
H        0.08631302       1.81457077       1.17356972
H       -0.69472573       1.85948761      -0.41134120
H        2.18483331      -0.13530965       0.58476927
H        1.72915787      -1.64647211      -0.26401532
13
Frame=4 idx=003731 GeodesicLength=0.47375598905875255 rxn_smarts="[C:1]1([H:7])([H:8])[N:2]([H:9])[C:3]12[C:4]([H:10])([H:11])[O:5][C:6]2([H:12])[H:13]>>[C:1]1([H:7])([H:8])[N:2]([H:9])[C:3]1=[C:6]([H:12])[H:13].[C:4](=[O:5])([H:10])[H:11]"
C       -1.08815670      -0.77963513      -0.65644080
N       -0.92190852      -1.11129116       0.74124377
C        0.07258460      -0.23816387       0.11010748
C        0.17053278       1.45205560       0.12119577
O        1.39182800       1.62196586      -0.32132447
C        1.39040689      -0.67488913       0.06568673
H       -0.96569803      -1.61200702      -1.33870377
H       -1.84221848      -0.05627653      -0.94736787
H       -1.50830623      -0.53677563       1.33830449
H       -0.01775408       1.84999758       1.13718176
H       -0.62576587       1.88074111      -0.51600384
H        2.16164905      -0.23158833       0.68408003
H        1.78280659      -1.56413334      -0.41795928
13
Frame=5 idx=003731 GeodesicLength=0.5896985810730359 rxn_smarts="[C:1]1([H:7])([H:8])[N:2]([H:9])[C:3]12[C:4]([H:10])([H:11])[O:5][C:6]2([H:12])[H:13]>>[C:1]1([H:7])([H:8])[N:2]([H:9])[C:3]1=[C:6]([H:12])[H:13].[C:4](=[O:5])([H:10])[H:11]"
C       -1.10537687      -0.79582716      -0.63544479
N       -0.90866449      -1.10637683       0.76535284
C        0.06974410      -0.24935608       0.09831623
C        0.16947827       1.46465691       0.10864099
O        1.43257493       1.62105809      -0.19739209
C        1.39299866      -0.66801355       0.03621384
H       -1.00690287      -1.64219589      -1.30432508
H       -1.86765333      -0.07745168      -0.91733135
H       -1.47833759      -0.52324796       1.36995711
H       -0.12287579       1.88619381       1.08935291
H       -0.54481328       1.89797687      -0.61607713
H        2.13452875      -0.34321994       0.75713865
H        1.83529952      -1.46419658      -0.55440213
13
Frame=6 idx=003731 GeodesicLength=0.7045101728563534 rxn_smarts="[C:1]1([H:7])([H:8])[N:2]([H:9])[C:3]12[C:4]([H:10])([H:11])[O:5][C:6]2([H:12])[H:13]>>[C:1]1([H:7])([H:8])[N:2]([H:9])[C:3]1=[C:6]([H:12])[H:13].[C:4](=[O:5])([H:10])[H:11]"
C       -1.12167455      -0.81257329      -0.61323761
N       -0.89639624      -1.10122805       0.79019124
C        0.06625810      -0.26145950       0.08909879
C        0.16840198       1.47744737       0.09681098
O        1.45959314       1.61659585      -0.06070966
C        1.39538664      -0.65887183       0.00673237
H       -1.04463952      -1.67256523      -1.26748896
H       -1.89026800      -0.09808325      -0.88800607
H       -1.44976893      -0.50885192       1.40068929
H       -0.22848043       1.92330771       1.02830140
H       -0.45057292       1.91137364      -0.71015227
H        2.10754511      -0.46682909       0.80198386
H        1.88461563      -1.34826239      -0.67421337
13
Frame=7 idx=003731 GeodesicLength=0.8183712949356289 rxn_smarts="[C:1]1([H:7])([H:8])[N:2]([H:9])[C:3]12[C:4]([H:10])([H:11])[O:5][C:6]2([H:12])[H:13]>>[C:1]1([H:7])([H:8])[N:2]([H:9])[C:3]1=[C:6]([H:12])[H:13].[C:4](=[O:5])([H:10])[H:11]"
C       -1.13750495      -0.82994771      -0.59061143
N       -0.88532632      -1.09574593       0.81504016
C        0.06200014      -0.27478098       0.08112428
C        0.16768278       1.49029667       0.08519258
O        1.46985365       1.60715758       0.08133068
C        1.39751122      -0.64705231      -0.02205501
H       -1.07961004      -1.70322706      -1.22913306
H       -1.91082480      -0.11836758      -0.85978165
H       -1.42241254      -0.49326686       1.42993688
H       -0.32790749       1.95957647       0.95518673
H       -0.34567690       1.92236486      -0.79319368
H        2.07984479      -0.59777826       0.82049678
H        1.93237047      -1.21922888      -0.77353326
13
Frame=8 idx=003731 GeodesicLength=0.9319524479530903 rxn_smarts="[C:1]1([H:7])([H:8])[N:2]([H:9])[C:3]12[C:4]([H:10])([H:11])[O:5][C:6]2([H:12])[H:13]>>[C:1]1([H:7])([H:8])[N:2]([H:9])[C:3]1=[C:6]([H:12])[H:13].[C:4](=[O:5])([H:10])[H:11]"
C       -1.15290372      -0.84827917      -0.56779102
N       -0.87585300      -1.08972154       0.83992626
C        0.05695156      -0.28952978       0.07431853
C        0.16770736       1.50311145       0.07352725
O        1.46289214       1.59195929       0.22390877
C        1.39927637      -0.63288226      -0.04858942
H       -1.11190417      -1.73477512      -1.18928971
H       -1.92953767      -0.13886759      -0.83336055
H       -1.39711705      -0.47604938       1.45717105
H       -0.41813012       1.99427832       0.87165411
H       -0.23210772       1.93240023      -0.86284656
H        2.05326329      -0.73205235       0.81272418
H        1.97746274      -1.07959210      -0.85135289
13
Frame=9 idx=003731 GeodesicLength=1.0457568552736074 rxn_smarts="[C:1]1([H:7])([H:8])[N:2]([H:9])[C:3]12[C:4]([H:10])([H:11])[O:5][C:6]2([H:12])[H:13]>>[C:1]1([H:7])([H:8])[N:2]([H:9])[C:3]1=[C:6]([H:12])[H:13].[C:4](=[O:5])([H:10])[H:11]"
C       -1.16791672      -0.86754600      -0.54554373
N       -0.86768652      -1.08307137       0.86403245
C        0.05128402      -0.30568394       0.06747411
C        0.16866107       1.51597092       0.06147548
O        1.43994799       1.57190640       0.35799212
C        1.40084689      -0.61659628      -0.07177663
H       -1.14186410      -1.76719804      -1.14877459
H       -1.94691668      -0.15983561      -0.80896884
H       -1.37360097      -0.45726188       1.48167328
H       -0.49478362       2.02612347       0.78231262
H       -0.11544807       1.94346315      -0.91655009
H        2.02658816      -0.86601685       0.78098806
H        2.02088857      -0.93425397      -0.90433423
13
Frame=10 idx=003731 GeodesicLength=1.1599451917950216 rxn_smarts="[C:1]1([H:7])([H:8])[N:2]([H:9])[C:3]12[C:4]([H:10])([H:11])[O:5][C:6]2([H:12])[H:13]>>[C:1]1([H:7])([H:8])[N:2]([H:9])[C:3]1=[C:6]([H:12])[H:13].[C:4](=[O:5])([H:10])[H:11]"
C       -1.18236445      -0.88768493      -0.52404461
N       -0.86037704      -1.07577940       0.88710076
C        0.04529971      -0.32301728       0.06025466
C        0.17049500       1.52912583       0.04888748
O        1.40399680       1.54884071       0.47912386
C        1.40245471      -0.59858931      -0.09063775
H       -1.16959284      -1.80041716      -1.10782485
H       -1.96313066      -0.18146928      -0.78651039
H       -1.35171657      -0.43718592       1.50324256
H       -0.55766447       2.05496574       0.69058164
H        0.00063290       1.95680191      -0.95475921
H        1.99946048      -0.99734030       0.72621562
H        2.06250645      -0.78825062      -0.93162977
13
Frame=11 idx=003731 GeodesicLength=1.2740876610190648 rxn_smarts="[C:1]1([H:7])([H:8])[N:2]([H:9])[C:3]12[C:4]([H:10])([H:11])[O:5][C:6]2([H:12])[H:13]>>[C:1]1([H:7])([H:8])[N:2]([H:9])[C:3]1=[C:6]([H:12])[H:13].[C:4](=[O:5])([H:10])[H:11]"
C       -1.19601623      -0.90843406      -0.50337065
N       -0.85330985      -1.06786754       0.90892616
C        0.03939172      -0.34119545       0.05242556
C        0.17297641       1.54289600       0.03562889
O        1.35863573       1.52523873       0.58435123
C        1.40450130      -0.57928877      -0.10417068
H       -1.19512680      -1.83403796      -1.06675102
H       -1.97833593      -0.20370933      -0.76558152
H       -1.33099435      -0.41621290       1.52197281
H       -0.60777049       2.08081454       0.59950790
H        0.11245914       1.97295817      -0.97903843
H        1.97037048      -1.12445746       0.64898613
H        2.10321886      -0.64670399      -0.93288638
13
Frame=12 idx=003731 GeodesicLength=1.3876702652045 rxn_smarts="[C:1]1([H:7])([H:8])[N:2]([H:9])[C:3]12[C:4]([H:10])([H:11])[O:5][C:6]2([H:12])[H:13]>>[C:1]1([H:7])([H:8])[N:2]([H:9])[C:3]1=[C:6]([H:12])[H:13].[C:4](=[O:5])([H:10])[H:11]"
C       -1.20860116      -0.92975039      -0.48291528
N       -0.84637377      -1.05947511       0.93002610
C        0.03375728      -0.36021703       0.04492516
C        0.17624862       1.55724836       0.02166065
O        1.30606593       1.50236262       0.67605205
C        1.40690067      -0.55958756      -0.11110312
H       -1.21853480      -1.86797544      -1.02500031
H       -1.99202442      -0.22645976      -0.74591215
H       -1.31172487      -0.39462667       1.53819911
H       -0.64797272       2.10393599       0.50848457
H        0.22100638       1.99157175      -0.99160943
H        1.93999122      -1.24433981       0.54752637
H        2.14126165      -0.51268695      -0.91033373
13
Frame=13 idx=003731 GeodesicLength=1.4999958252380625 rxn_smarts="[C:1]1([H:7])([H:8])[N:2]([H:9])[C:3]12[C:4]([H:10])([H:11])[O:5][C:6]2([H:12])[H:13]>>[C:1]1([H:7])([H:8])[N:2]([H:9])[C:3]1=[C:6]([H:12])[H:13].[C:4](=[O:5])([H:10])[H:11]"
C       -1.22044546      -0.95126666      -0.46263010
N       -0.83914407      -1.05105195       0.95026392
C        0.02856739      -0.38004698       0.03744440
C        0.18033605       1.57203374       0.00667283
O        1.24904873       1.48160809       0.75371568
C        1.40995773      -0.54065068      -0.11087453
H       -1.24057867      -1.90152301      -0.98308946
H       -2.00498535      -0.24933975      -0.72637778
H       -1.29305581      -0.37324642       1.55261536
H       -0.67931591       2.12423543       0.41852846
H        0.32421505       2.01157599      -0.99468553
H        1.90586695      -1.35317178       0.42164848
H        2.17953338      -0.38915602      -0.86323172
13
Frame=14 idx=003731 GeodesicLength=1.6110416851057192 rxn_smarts="[C:1]1([H:7])([H:8])[N:2]([H:9])[C:3]12[C:4]([H:10])([H:11])[O:5][C:6]2([H:12])[H:13]>>[C:1]1([H:7])([H:8])[N:2]([H:9])[C:3]1=[C:6]([H:12])[H:13].[C:4](=[O:5])([H:10])[H:11]"
C       -1.23160846      -0.97327459      -0.44177240
N       -0.83219678      -1.04305070       0.97041554
C        0.02362754      -0.40130448       0.03134060
C        0.18607632       1.58657895      -0.00933285
O        1.18773409       1.46240607       0.82156039
C        1.41304901      -0.52399858      -0.10247733
H       -1.26186898      -1.93505723      -0.94016475
H       -2.01650819      -0.27222964      -0.70704653
H       -1.27591950      -0.35233558       1.56554335
H       -0.70329929       2.14154404       0.32662530
H        0.42635758       2.03203130      -0.98899384
H        1.87070075      -1.44312696       0.26999921
H        2.21385593      -0.27818260      -0.79569667
13
Frame=15 idx=003731 GeodesicLength=1.7205403328714426 rxn_smarts="[C:1]1([H:7])([H:8])[N:2]([H:9])[C:3]12[C:4]([H:10])([H:11])[O:5][C:6]2([H:12])[H:13]>>[C:1]1([H:7])([H:8])[N:2]([H:9])[C:3]1=[C:6]([H:12])[H:13].[C:4](=[O:5])([H:10])[H:11]"
C       -1.24281411      -0.99564988      -0.42048803
N       -0.82525248      -1.03629299       0.99014469
C        0.01872401      -0.42408205       0.02609897
C        0.19390198       1.60041293      -0.02668388
O        1.12419303       1.44477609       0.87906155
C        1.41601636      -0.51103297      -0.08704868
H       -1.28341078      -1.96814747      -0.89704722
H       -2.02792276      -0.29497700      -0.68667010
H       -1.25926025      -0.33309418       1.57772681
H       -0.71946549       2.15569066       0.23332054
H        0.52600758       2.05104072      -0.97631290
H        1.83229389      -1.50628360       0.09520373
H        2.24698901      -0.18236027      -0.70730547
13
Frame=16 idx=003731 GeodesicLength=1.8288087311423473 rxn_smarts="[C:1]1([H:7])([H:8])[N:2]([H:9])[C:3]12[C:4]([H:10])([H:11])[O:5][C:6]2([H:12])[H:13]>>[C:1]1([H:7])([H:8])[N:2]([H:9])[C:3]1=[C:6]([H:12])[H:13].[C:4](=[O:5])([H:10])[H:11]"
C       -1.25428764      -1.01880482      -0.39846265
N       -0.81910236      -1.03118427       1.00988501
C        0.01331771      -0.44901998       0.02229102
C        0.20471114       1.61243945      -0.04536878
O        1.05899821       1.42697302       0.92754866
C        1.41783048      -0.50322270      -0.06613962
H       -1.30583523      -2.00122268      -0.85296774
H       -2.03874745      -0.31774135      -0.66557530
H       -1.24378763      -0.31578130       1.58934125
H       -0.72692601       2.16645901       0.13750681
H        0.62537345       2.06728471      -0.95677262
H        1.79252590      -1.53298653      -0.09860013
H        2.27592941      -0.10319256      -0.60268591
