17
Frame=0 idx=005586 GeodesicLength=0.0 rxn_smarts="[C:1]([C:2]([C:3]([H:9])([H:10])[H:11])([C:4]([H:12])([H:13])[H:14])[C:5]([H:15])([H:16])[H:17])([H:6])([H:7])[H:8]>>[C:1]([C:3]([H:9])([H:10])[H:11])([H:6])([H:7])[H:8].[C:2]([C:4]([H:12])([H:13])[H:14])[C:5]([H:15])([H:16])[H:17]"
C       -0.01507846       1.42359357      -0.82821119
C       -0.60407837       0.09121443       0.45784612
C        1.05279041      -0.04679051      -0.86515718
C        0.23284744      -0.09935814       1.67408508
C       -1.24994974      -1.13771854      -0.07956943
H        0.05360160       2.16385989      -0.03800036
H       -1.00135134       1.43001096      -1.28015458
H        0.66888610       1.78101836      -1.62049546
H        1.99109039       0.47079378      -0.68159764
H        0.92837243      -0.26916361      -1.92213292
H        1.08716825      -0.99187813      -0.33092015
H        0.83928390       0.77673435       1.91371166
H       -0.48360674      -0.22154607       2.49388107
H        0.88971482      -0.98991362       1.68110427
H       -0.62190378      -2.04837998      -0.10906518
H       -2.08097491      -1.34227427       0.60439250
H       -1.68681207      -0.99020240      -1.06971662
17
Frame=1 idx=005586 GeodesicLength=0.06663216616647927 rxn_smarts="[C:1]([C:2]([C:3]([H:9])([H:10])[H:11])([C:4]([H:12])([H:13])[H:14])[C:5]([H:15])([H:16])[H:17])([H:6])([H:7])[H:8]>>[C:1]([C:3]([H:9])([H:10])[H:11])([H:6])([H:7])[H:8].[C:2]([C:4]([H:12])([H:13])[H:14])[C:5]([H:15])([H:16])[H:17]"
C       -0.01662112       1.42611421      -0.83392793
C       -0.59395434       0.08430806       0.45732395
C        1.05721732      -0.04654973      -0.87558895
C        0.23738990      -0.10385047       1.67742698
C       -1.25708904      -1.14042019      -0.06777550
H        0.00392369       2.16554745      -0.03949592
H       -0.98721553       1.42055276      -1.31975767
H        0.68529112       1.81721699      -1.59302643
H        1.99511038       0.46563537      -0.67354407
H        0.94687920      -0.25761813      -1.93682964
H        1.09705958      -1.00412635      -0.36332813
H        0.84932658       0.76891539       1.91510219
H       -0.48204609      -0.21425982       2.49652902
H        0.88606452      -0.99959561       1.68619001
H       -0.63673856      -2.05583047      -0.08835726
H       -2.09102069      -1.32747476       0.61792067
H       -1.69357693      -0.99856470      -1.05886133
17
Frame=2 idx=005586 GeodesicLength=0.13319122001284397 rxn_smarts="[C:1]([C:2]([C:3]([H:9])([H:10])[H:11])([C:4]([H:12])([H:13])[H:14])[C:5]([H:15])([H:16])[H:17])([H:6])([H:7])[H:8]>>[C:1]([C:3]([H:9])([H:10])[H:11])([H:6])([H:7])[H:8].[C:2]([C:4]([H:12])([H:13])[H:14])[C:5]([H:15])([H:16])[H:17]"
C       -0.01819289       1.42855611      -0.83954014
C       -0.58355486       0.07713770       0.45680336
C        1.06172178      -0.04642226      -0.88629360
C        0.24207750      -0.10824341       1.68086291
C       -1.26423179      -1.14292177      -0.05581119
H       -0.04750896       2.16552571      -0.04228113
H       -0.97127244       1.41125731      -1.35984880
H        0.70061955       1.85325911      -1.56310673
H        1.99900017       0.45993182      -0.66555404
H        0.96612257      -0.24537505      -1.95170621
H        1.10659282      -1.01636530      -0.39705625
H        0.85957414       0.76117585       1.91633578
H       -0.48032171      -0.20653083       2.49915449
H        0.88241034      -1.00918334       1.69163332
H       -0.65177436      -2.06305817      -0.06728699
H       -2.10090196      -1.31208723       0.63148516
H       -1.70035991      -1.00665625      -1.04778993
17
Frame=3 idx=005586 GeodesicLength=0.19967398435906558 rxn_smarts="[C:1]([C:2]([C:3]([H:9])([H:10])[H:11])([C:4]([H:12])([H:13])[H:14])[C:5]([H:15])([H:16])[H:17])([H:6])([H:7])[H:8]>>[C:1]([C:3]([H:9])([H:10])[H:11])([H:6])([H:7])[H:8].[C:2]([C:4]([H:12])([H:13])[H:14])[C:5]([H:15])([H:16])[H:17]"
C       -0.01982617       1.43089456      -0.84505228
C       -0.57287064       0.06968414       0.45628470
C        1.06630144      -0.04641156      -0.89728257
C        0.24690271      -0.11252360       1.68440098
C       -1.27135913      -1.14521543      -0.04368248
H       -0.10056146       2.16357621      -0.04653794
H       -0.95345189       1.40230916      -1.40029315
H        0.71465329       1.88901558      -1.53066073
H        2.00274943       0.45365837      -0.65764583
H        0.98612830      -0.23239640      -1.96673194
H        1.11575828      -1.02854105      -0.43213833
H        0.87001303       0.75352782       1.91741063
H       -0.47844609      -0.19832633       2.50174456
H        0.87873825      -1.01865780       1.69747961
H       -0.66700366      -2.07004197      -0.04585226
H       -2.11057762      -1.29609677       0.64506110
H       -1.70714807      -1.01445492      -1.03650408
17
Frame=4 idx=005586 GeodesicLength=0.2660929723007827 rxn_smarts="[C:1]([C:2]([C:3]([H:9])([H:10])[H:11])([C:4]([H:12])([H:13])[H:14])[C:5]([H:15])([H:16])[H:17])([H:6])([H:7])[H:8]>>[C:1]([C:3]([H:9])([H:10])[H:11])([H:6])([H:7])[H:8].[C:2]([C:4]([H:12])([H:13])[H:14])[C:5]([H:15])([H:16])[H:17]"
C       -0.02155097       1.43309837      -0.85047706
C       -0.56189297       0.06192716       0.45576641
C        1.07095694      -0.04652475      -0.90856798
C        0.25185480      -0.11667765       1.68805034
C       -1.27845332      -1.14729670      -0.03139399
H       -0.15505464       2.15947983      -0.05244956
H       -0.93369613       1.39392731      -1.44093838
H        0.72713549       1.92435819      -1.49563025
H        2.00634710       0.44678753      -0.64983935
H        1.00692459      -0.21865021      -1.98187039
H        1.12455287      -1.04059794      -0.46860301
H        0.88063523       0.74597856       1.91832809
H       -0.47643416      -0.18960587       2.50428224
H        0.87502769      -1.02800086       1.70377838
H       -0.68241898      -2.07676522      -0.02404569
H       -2.12000996      -1.27948770       0.65861851
H       -1.71392359      -1.02195005      -1.02500831
17
Frame=5 idx=005586 GeodesicLength=0.3323777563039383 rxn_smarts="[C:1]([C:2]([C:3]([H:9])([H:10])[H:11])([C:4]([H:12])([H:13])[H:14])[C:5]([H:15])([H:16])[H:17])([H:6])([H:7])[H:8]>>[C:1]([C:3]([H:9])([H:10])[H:11])([H:6])([H:7])[H:8].[C:2]([C:4]([H:12])([H:13])[H:14])[C:5]([H:15])([H:16])[H:17]"
C       -0.02342315       1.43517642      -0.85582365
C       -0.55062607       0.05384120       0.45522866
C        1.07565767      -0.04673065      -0.92017368
C        0.25689235      -0.12068584       1.69181721
C       -1.28548544      -1.14919862      -0.01894680
H       -0.21059769       2.15317180      -0.06002641
H       -0.91209042       1.38628617      -1.48157320
H        0.73797070       1.95906152      -1.45818356
H        2.00974875       0.43931308      -0.64214251
H        1.02852602      -0.20404216      -1.99708063
H        1.13291967      -1.05244828      -0.50650200
H        0.89142166       0.73852337       1.91909399
H       -0.47434668      -0.18030098       2.50674150
H        0.87122250      -1.03719685       1.71060349
H       -0.69797412      -2.08324946      -0.00186643
H       -2.12916602      -1.26232244       0.67215071
H       -1.72064972      -1.02919826      -1.01331668
17
Frame=6 idx=005586 GeodesicLength=0.3986131820875429 rxn_smarts="[C:1]([C:2]([C:3]([H:9])([H:10])[H:11])([C:4]([H:12])([H:13])[H:14])[C:5]([H:15])([H:16])[H:17])([H:6])([H:7])[H:8]>>[C:1]([C:3]([H:9])([H:10])[H:11])([H:6])([H:7])[H:8].[C:2]([C:4]([H:12])([H:13])[H:14])[C:5]([H:15])([H:16])[H:17]"
C       -0.02544205       1.43707118      -0.86111689
C       -0.53905262       0.04541896       0.45467428
C        1.08042706      -0.04705787      -0.93210953
C        0.26202204      -0.12453888       1.69570565
C       -1.29244859      -1.15089987      -0.00634492
H       -0.26709388       2.14439848      -0.06947383
H       -0.88858844       1.37962027      -1.52208558
H        0.74685748       1.99305838      -1.41819759
H        2.01297165       0.43119130      -0.63458726
H        1.05095323      -0.18859071      -2.01231282
H        1.14091066      -1.06403982      -0.54584386
H        0.90238856       0.73116385       1.91970850
H       -0.47217755      -0.17038036       2.50910696
H        0.86731630      -1.04623318       1.71797695
H       -0.71369554      -2.08947210       0.02071176
H       -2.13803536      -1.24452819       0.68562235
H       -1.72731295      -1.03618145      -1.00143419
17
Frame=7 idx=005586 GeodesicLength=0.46483334612494365 rxn_smarts="[C:1]([C:2]([C:3]([H:9])([H:10])[H:11])([C:4]([H:12])([H:13])[H:14])[C:5]([H:15])([H:16])[H:17])([H:6])([H:7])[H:8]>>[C:1]([C:3]([H:9])([H:10])[H:11])([H:6])([H:7])[H:8].[C:2]([C:4]([H:12])([H:13])[H:14])[C:5]([H:15])([H:16])[H:17]"
C       -0.02762881       1.43874587      -0.86638698
C       -0.52716262       0.03664052       0.45410766
C        1.08526927      -0.04750688      -0.94440868
C        0.26723665      -0.12820359       1.69972089
C       -1.29933284      -1.15239615       0.00640920
H       -0.32428297       2.13286923      -0.08101579
H       -0.86310672       1.37419768      -1.56230117
H        0.75344123       2.02615099      -1.37550746
H        2.01600792       0.42238178      -0.62721958
H        1.07421653      -0.17225453      -2.02752264
H        1.14853954      -1.07529576      -0.58666499
H        0.91354866       0.72392324       1.92016574
H       -0.46993768      -0.15977351       2.51135100
H        0.86328100      -1.05507261       1.72594352
H       -0.72959883      -2.09541955       0.04370368
H       -2.14659386      -1.22607257       0.69899504
H       -1.73389647      -1.04291416      -0.98936944
17
Frame=8 idx=005586 GeodesicLength=0.531048093555911 rxn_smarts="[C:1]([C:2]([C:3]([H:9])([H:10])[H:11])([C:4]([H:12])([H:13])[H:14])[C:5]([H:15])([H:16])[H:17])([H:6])([H:7])[H:8]>>[C:1]([C:3]([H:9])([H:10])[H:11])([H:6])([H:7])[H:8].[C:2]([C:4]([H:12])([H:13])[H:14])[C:5]([H:15])([H:16])[H:17]"
C       -0.02999859       1.44018299      -0.87163991
C       -0.51495348       0.02749416       0.45350632
C        1.09017257      -0.04807997      -0.95707534
C        0.27251207      -0.13167785       1.70385446
C       -1.30611390      -1.15369508       0.01931590
H       -0.38185900       2.11854602      -0.09459519
H       -0.83579005       1.37019123      -1.60209695
H        0.75758645       2.05821321      -1.33030339
H        2.01884347       0.41285604      -0.62004393
H        1.09832121      -0.15502303      -2.04264157
H        1.15580052      -1.08615338      -0.62897788
H        0.92490098       0.71676697       1.92046218
H       -0.46765890      -0.14843303       2.51343368
H        0.85907652      -1.06370997       1.73454729
H       -0.74566579      -2.10108792       0.06715568
H       -2.15482050      -1.20694826       0.71223329
H       -1.74035358      -1.04944213      -0.97713463
17
Frame=9 idx=005586 GeodesicLength=0.5971757425986031 rxn_smarts="[C:1]([C:2]([C:3]([H:9])([H:10])[H:11])([C:4]([H:12])([H:13])[H:14])[C:5]([H:15])([H:16])[H:17])([H:6])([H:7])[H:8]>>[C:1]([C:3]([H:9])([H:10])[H:11])([H:6])([H:7])[H:8].[C:2]([C:4]([H:12])([H:13])[H:14])[C:5]([H:15])([H:16])[H:17]"
C       -0.03258794       1.44139437      -0.87689832
C       -0.50243811       0.01794134       0.45282917
C        1.09510004      -0.04874948      -0.97014569
C        0.27780036      -0.13493541       1.70809201
C       -1.31276099      -1.15485007       0.03237809
H       -0.43942682       2.10149744      -0.11013180
H       -0.80674988       1.36776954      -1.64122037
H        0.75925035       2.08898403      -1.28277111
H        2.02143242       0.40256278      -0.61308570
H        1.12326081      -0.13680268      -2.05760585
H        1.16262019      -1.09651028      -0.67285013
H        0.93642938       0.70968361       1.92057783
H       -0.46539469      -0.13625409       2.51529402
H        0.85463192      -1.07211636       1.74386153
H       -0.76185491      -2.10651484       0.09111356
H       -2.16268394      -1.18720745       0.72531460
H       -1.74662819      -1.05589243      -0.96475184
17
Frame=10 idx=005586 GeodesicLength=0.6633714343148633 rxn_smarts="[C:1]([C:2]([C:3]([H:9])([H:10])[H:11])([C:4]([H:12])([H:13])[H:14])[C:5]([H:15])([H:16])[H:17])([H:6])([H:7])[H:8]>>[C:1]([C:3]([H:9])([H:10])[H:11])([H:6])([H:7])[H:8].[C:2]([C:4]([H:12])([H:13])[H:14])[C:5]([H:15])([H:16])[H:17]"
C       -0.03534836       1.44233243      -0.88216775
C       -0.48958885       0.00798593       0.45209636
C        1.10008844      -0.04954661      -0.98363078
C        0.28312412      -0.13796372       1.71243744
C       -1.31928024      -1.15581605       0.04559328
H       -0.49684158       2.08141026      -0.12782499
H       -0.77594018       1.36718958      -1.67959622
H        0.75798060       2.11837435      -1.23279122
H        2.02381373       0.39144535      -0.60639286
H        1.14902650      -0.11765516      -2.07234328
H        1.16908984      -1.10631382      -0.71826914
H        0.94818352       0.70266605       1.92052029
H       -0.46311927      -0.12320261       2.51691146
H        0.84993948      -1.08027686       1.75389370
H       -0.77822561      -2.11165954       0.11560666
H       -2.17019437      -1.16673538       0.73818423
H       -1.75270778      -1.06223421      -0.95222718
17
Frame=11 idx=005586 GeodesicLength=0.7296444300933083 rxn_smarts="[C:1]([C:2]([C:3]([H:9])([H:10])[H:11])([C:4]([H:12])([H:13])[H:14])[C:5]([H:15])([H:16])[H:17])([H:6])([H:7])[H:8]>>[C:1]([C:3]([H:9])([H:10])[H:11])([H:6])([H:7])[H:8].[C:2]([C:4]([H:12])([H:13])[H:14])[C:5]([H:15])([H:16])[H:17]"
C       -0.03828048       1.44298519      -0.88745108
C       -0.47640838      -0.00239505       0.45128526
C        1.10512365      -0.05046918      -0.99754809
C        0.28846379      -0.14074844       1.71687176
C       -1.32565288      -1.15660280       0.05896380
H       -0.55381323       2.05823935      -0.14762236
H       -0.74345156       1.36860028      -1.71709092
H        0.75363277       2.14623782      -1.18047280
H        2.02597634       0.37944476      -0.59999226
H        1.17559623      -0.09756914      -2.08677400
H        1.17519445      -1.11548380      -0.76526701
H        0.96016437       0.69569522       1.92026725
H       -0.46084655      -0.10921545       2.51822499
H        0.84496460      -1.08816802       1.76467817
H       -0.79478126      -2.11650838       0.14070759
H       -2.17733247      -1.14550230       0.75078941
H       -1.75854939      -1.06854007      -0.93956970
17
Frame=12 idx=005586 GeodesicLength=0.7960691527309391 rxn_smarts="[C:1]([C:2]([C:3]([H:9])([H:10])[H:11])([C:4]([H:12])([H:13])[H:14])[C:5]([H:15])([H:16])[H:17])([H:6])([H:7])[H:8]>>[C:1]([C:3]([H:9])([H:10])[H:11])([H:6])([H:7])[H:8].[C:2]([C:4]([H:12])([H:13])[H:14])[C:5]([H:15])([H:16])[H:17]"
C       -0.04134869       1.44334926      -0.89274604
C       -0.46288771      -0.01322892       0.45038776
C        1.11021165      -0.05151802      -1.01192512
C        0.29381431      -0.14326367       1.72138377
C       -1.33187223      -1.15720734       0.07249108
H       -0.61006688       2.03184700      -0.16959585
H       -0.70925388       1.37223538      -1.75350222
H        0.74584879       2.17232346      -1.12582701
H        2.02792595       0.36649136      -0.59393886
H        1.20293909      -0.07654282      -2.10081855
H        1.18094569      -1.12393377      -0.81388474
H        0.97240226       0.68876136       1.91980520
H       -0.45857006      -0.09420360       2.51917318
H        0.83965951      -1.09575317       1.77625896
H       -0.81155368      -2.12104230       0.16646740
H       -2.18407955      -1.12344843       0.76306920
H       -1.76411458      -1.07486578      -0.92679817
17
Frame=13 idx=005586 GeodesicLength=0.8625752009267534 rxn_smarts="[C:1]([C:2]([C:3]([H:9])([H:10])[H:11])([C:4]([H:12])([H:13])[H:14])[C:5]([H:15])([H:16])[H:17])([H:6])([H:7])[H:8]>>[C:1]([C:3]([H:9])([H:10])[H:11])([H:6])([H:7])[H:8].[C:2]([C:4]([H:12])([H:13])[H:14])[C:5]([H:15])([H:16])[H:17]"
C       -0.04455500       1.44344855      -0.89801297
C       -0.44902820      -0.02456098       0.44937960
C        1.11532037      -0.05266718      -1.02677571
C        0.29914256      -0.14550111       1.72596037
C       -1.33791359      -1.15767165       0.08617799
H       -0.66530834       2.00235885      -0.19362594
H       -0.67346059       1.37821801      -1.78859161
H        0.73463312       2.19643525      -1.06923383
H        2.02962659       0.35250354      -0.58824132
H        1.23103318      -0.05450436      -2.11437804
H        1.18626830      -1.13155398      -0.86418138
H        0.98489359       0.68182387       1.91912540
H       -0.45632077      -0.07808484       2.51968526
H        0.83396239      -1.10301640       1.78870270
H       -0.82851990      -2.12529229       0.19295216
H       -2.19042858      -1.10061048       0.77498340
H       -1.76934512      -1.08132480      -0.91392608
17
Frame=14 idx=005586 GeodesicLength=0.9293392976426732 rxn_smarts="[C:1]([C:2]([C:3]([H:9])([H:10])[H:11])([C:4]([H:12])([H:13])[H:14])[C:5]([H:15])([H:16])[H:17])([H:6])([H:7])[H:8]>>[C:1]([C:3]([H:9])([H:10])[H:11])([H:6])([H:7])[H:8].[C:2]([C:4]([H:12])([H:13])[H:14])[C:5]([H:15])([H:16])[H:17]"
C       -0.04782060       1.44327286      -0.90323442
C       -0.43480923      -0.03639956       0.44826729
C        1.12047861      -0.05393550      -1.04211559
C        0.30447139      -0.14744555       1.73058896
C       -1.34378610      -1.15795184       0.10002701
H       -0.71936680       1.96953121      -0.21984195
H       -0.63604016       1.38672913      -1.82224916
H        0.71955963       2.21844832      -1.01060118
H        2.03112156       0.33739852      -0.58296950
H        1.25982136      -0.03153932      -2.12736390
H        1.19122895      -1.13826397      -0.91616942
H        0.99769186       0.67486592       1.91821442
H       -0.45405283      -0.06080875       2.51971054
H        0.82785653      -1.10993453       1.80201194
H       -0.84575528      -2.12919743       0.22022242
H       -2.19637558      -1.07685099       0.78646234
H       -1.77422329      -1.08791852      -0.90095980
17
Frame=15 idx=005586 GeodesicLength=0.9964301384736499 rxn_smarts="[C:1]([C:2]([C:3]([H:9])([H:10])[H:11])([C:4]([H:12])([H:13])[H:14])[C:5]([H:15])([H:16])[H:17])([H:6])([H:7])[H:8]>>[C:1]([C:3]([H:9])([H:10])[H:11])([H:6])([H:7])[H:8].[C:2]([C:4]([H:12])([H:13])[H:14])[C:5]([H:15])([H:16])[H:17]"
C       -0.05110605       1.44284056      -0.90836113
C       -0.42021660      -0.04877940       0.44705016
C        1.12568032      -0.05530981      -1.05796044
C        0.30980356      -0.14908336       1.73525538
C       -1.34948945      -1.15803891       0.11404605
H       -0.77203923       1.93326310      -0.24827904
H       -0.59698543       1.39790089      -1.85426369
H        0.70041875       2.23819167      -0.95008656
H        2.03241302       0.32108730      -0.57816721
H        1.28925332      -0.00764620      -2.13967867
H        1.19580928      -1.14395382      -0.96990020
H        1.01083420       0.66785250       1.91706008
H       -0.45174159      -0.04229751       2.51917534
H        0.82129798      -1.11648180       1.81622429
H       -0.86330097      -2.13273047       0.24834399
H       -2.20191222      -1.05211441       0.79744315
H       -1.77871890      -1.09470033      -0.88790149
17
Frame=16 idx=005586 GeodesicLength=1.0639035708058335 rxn_smarts="[C:1]([C:2]([C:3]([H:9])([H:10])[H:11])([C:4]([H:12])([H:13])[H:14])[C:5]([H:15])([H:16])[H:17])([H:6])([H:7])[H:8]>>[C:1]([C:3]([H:9])([H:10])[H:11])([H:6])([H:7])[H:8].[C:2]([C:4]([H:12])([H:13])[H:14])[C:5]([H:15])([H:16])[H:17]"
C       -0.05437983       1.44217315      -0.91333531
C       -0.40523973      -0.06174565       0.44572237
C        1.13091491      -0.05677612      -1.07432039
C        0.31513728      -0.15041193       1.73994595
C       -1.35501826      -1.15793804       0.12824151
H       -0.82310036       1.89355455      -0.27895894
H       -0.55633570       1.41183434      -1.88440542
H        0.67704986       2.25551613      -0.88791556
H        2.03349330       0.30346915      -0.57387734
H        1.31928032       0.01717314      -2.15121590
H        1.19998770      -1.14849893      -1.02542724
H        1.02434781       0.66073682       1.91565511
H       -0.44936359      -0.02248695       2.51800723
H        0.81424177      -1.12264017       1.83138085
H       -0.88119364      -2.13586962       0.27739594
H       -2.20702711      -1.02634780       0.80786092
H       -1.78279474      -1.10174208      -0.87475377
