13
Frame=0 idx=000693 GeodesicLength=0.0 rxn_smarts="[C:1]([c:2]1[c:3]([H:10])[n:4]([H:11])[c:5]([H:12])[c:6]1[H:13])([H:7])([H:8])[H:9]>>[C:1]([C:6](=[C:2]=[C:3]([N:4]([C:5][H:12])[H:11])[H:10])[H:13])([H:7])([H:8])[H:9]"
C        1.99191447       0.12332997       0.22403119
C        0.25483808       0.32435779       0.02764148
C       -0.48888126      -0.73439198      -0.26480416
N       -1.90364233      -0.66959272      -0.13504937
C       -2.59282342       0.43910717      -0.16123342
C        0.81152701       1.40598855       0.51617912
H        2.18325672      -0.42325111       1.13847947
H        2.03197224      -0.52006448      -0.66261280
H        2.74647417       0.88842087       0.04942688
H       -0.06748407      -1.65609527      -0.63586936
H       -2.32511000      -1.58184836       0.01765966
H       -3.64301935       0.15000772       0.02280464
H        1.00097774       2.25403182      -0.13665327
13
Frame=1 idx=000693 GeodesicLength=0.10218177695016353 rxn_smarts="[C:1]([c:2]1[c:3]([H:10])[n:4]([H:11])[c:5]([H:12])[c:6]1[H:13])([H:7])([H:8])[H:9]>>[C:1]([C:6](=[C:2]=[C:3]([N:4]([C:5][H:12])[H:11])[H:10])[H:13])([H:7])([H:8])[H:9]"
C        1.98785731       0.13229961       0.23837514
C        0.26345489       0.30694137      -0.09251244
C       -0.48837820      -0.76060348      -0.32736316
N       -1.89441089      -0.67512531      -0.14010575
C       -2.54187810       0.45909015      -0.06686698
C        0.74945223       1.38613438       0.47595987
H        2.15115247      -0.38101757       1.17798611
H        2.08975611      -0.55151806      -0.61204318
H        2.73514297       0.90688104       0.07389723
H       -0.07609231      -1.70236709      -0.65487814
H       -2.33907869      -1.58125942      -0.02622739
H       -3.60413349       0.20080456       0.08633851
H        0.96715571       2.25973981      -0.13255982
13
Frame=2 idx=000693 GeodesicLength=0.20601850221210588 rxn_smarts="[C:1]([c:2]1[c:3]([H:10])[n:4]([H:11])[c:5]([H:12])[c:6]1[H:13])([H:7])([H:8])[H:9]>>[C:1]([C:6](=[C:2]=[C:3]([N:4]([C:5][H:12])[H:11])[H:10])[H:13])([H:7])([H:8])[H:9]"
C        1.98230031       0.14123064       0.25178229
C        0.27401386       0.28412151      -0.19028700
C       -0.48760408      -0.78531213      -0.38548222
N       -1.88297756      -0.67957030      -0.14479208
C       -2.48344846       0.47342143       0.01960666
C        0.68915086       1.36292485       0.43804469
H        2.12470810      -0.33754874       1.21353832
H        2.13758859      -0.57869068      -0.55952246
H        2.72066469       0.92506995       0.08985540
H       -0.08537671      -1.74364721      -0.67472542
H       -2.35474706      -1.57550955      -0.07298973
H       -3.55731192       0.25494772       0.14578968
H        0.92303937       2.25856251      -0.13081813
13
Frame=3 idx=000693 GeodesicLength=0.3111729775900963 rxn_smarts="[C:1]([c:2]1[c:3]([H:10])[n:4]([H:11])[c:5]([H:12])[c:6]1[H:13])([H:7])([H:8])[H:9]>>[C:1]([C:6](=[C:2]=[C:3]([N:4]([C:5][H:12])[H:11])[H:10])[H:13])([H:7])([H:8])[H:9]"
C        1.97597577       0.15032587       0.26527334
C        0.28494796       0.25819910      -0.26883085
C       -0.48689877      -0.80945635      -0.43764284
N       -1.87130920      -0.68335354      -0.15356277
C       -2.42195666       0.48303145       0.08961174
C        0.63202382       1.33830591       0.40300943
H        2.10315743      -0.29145769       1.24741356
H        2.17707018      -0.60305060      -0.50411479
H        2.70507513       0.94201699       0.09835621
H       -0.09541342      -1.78063084      -0.69711207
H       -2.37295032      -1.56461177      -0.12382983
H       -3.50332506       0.30822871       0.21327126
H        0.87360313       2.25245275      -0.13184238
13
Frame=4 idx=000693 GeodesicLength=0.4170116179915465 rxn_smarts="[C:1]([c:2]1[c:3]([H:10])[n:4]([H:11])[c:5]([H:12])[c:6]1[H:13])([H:7])([H:8])[H:9]>>[C:1]([C:6](=[C:2]=[C:3]([N:4]([C:5][H:12])[H:11])[H:10])[H:13])([H:7])([H:8])[H:9]"
C        1.97021900       0.15947259       0.27748751
C        0.29541803       0.23111717      -0.33064898
C       -0.48684925      -0.83265662      -0.48203010
N       -1.86018866      -0.68700504      -0.16127524
C       -2.36016628       0.48782842       0.15227676
C        0.57936263       1.31274314       0.37332103
H        2.08842521      -0.24322130       1.27813141
H        2.20923924      -0.62500120      -0.44829306
H        2.69014293       0.95714650       0.09826325
H       -0.10743872      -1.81288817      -0.72484630
H       -2.39235207      -1.54990528      -0.17122504
H       -3.44767106       0.35920732       0.27073589
H        0.82185901       2.24316247      -0.13189713
13
Frame=5 idx=000693 GeodesicLength=0.5233634311595325 rxn_smarts="[C:1]([c:2]1[c:3]([H:10])[n:4]([H:11])[c:5]([H:12])[c:6]1[H:13])([H:7])([H:8])[H:9]>>[C:1]([C:6](=[C:2]=[C:3]([N:4]([C:5][H:12])[H:11])[H:10])[H:13])([H:7])([H:8])[H:9]"
C        1.96462845       0.16880021       0.29006510
C        0.30567604       0.20364751      -0.38141364
C       -0.48713641      -0.85501811      -0.52088142
N       -1.84971952      -0.69037690      -0.16975563
C       -2.29976348       0.48973682       0.20304419
C        0.53049901       1.28748776       0.34562076
H        2.07652895      -0.19122206       1.30828641
H        2.23603974      -0.64591467      -0.38902349
H        2.67661114       0.96965772       0.09278185
H       -0.12090719      -1.84208097      -0.75621554
H       -2.41385972      -1.53036878      -0.22322391
H       -3.38918900       0.40401093       0.33501612
H        0.77059200       2.23164052      -0.13430079
13
Frame=6 idx=000693 GeodesicLength=0.6299695525646254 rxn_smarts="[C:1]([c:2]1[c:3]([H:10])[n:4]([H:11])[c:5]([H:12])[c:6]1[H:13])([H:7])([H:8])[H:9]>>[C:1]([C:6](=[C:2]=[C:3]([N:4]([C:5][H:12])[H:11])[H:10])[H:13])([H:7])([H:8])[H:9]"
C        1.95969855       0.17805108       0.30201157
C        0.31529004       0.17652717      -0.42259345
C       -0.48811910      -0.87603628      -0.55522539
N       -1.83995631      -0.69399328      -0.17680013
C       -2.24158703       0.48859887       0.24741546
C        0.48527320       1.26206601       0.32188115
H        2.06861044      -0.13665862       1.33618659
H        2.25800537      -0.66543245      -0.32840350
H        2.66480767       0.97935514       0.08176336
H       -0.13622763      -1.86772138      -0.79305138
H       -2.43498609      -1.50805877      -0.27057205
H       -3.33091542       0.44471359       0.39268055
H        0.72010631       2.21858892      -0.13529279
13
Frame=7 idx=000693 GeodesicLength=0.7366853166482783 rxn_smarts="[C:1]([c:2]1[c:3]([H:10])[n:4]([H:11])[c:5]([H:12])[c:6]1[H:13])([H:7])([H:8])[H:9]>>[C:1]([C:6](=[C:2]=[C:3]([N:4]([C:5][H:12])[H:11])[H:10])[H:13])([H:7])([H:8])[H:9]"
C        1.95509170       0.18725203       0.31420097
C        0.32459856       0.14982648      -0.45699142
C       -0.48960271      -0.89576439      -0.58662203
N       -1.83082618      -0.69763141      -0.18363827
C       -2.18625337       0.48619332       0.28286050
C        0.44320255       1.23708801       0.29997280
H        2.06245337      -0.07865005       1.36287770
H        2.27585333      -0.68415035      -0.26453316
H        2.65499739       0.98562829       0.06700146
H       -0.15307153      -1.89051978      -0.83373717
H       -2.45606424      -1.48224337      -0.31767055
H       -3.27195608       0.47857694       0.45332531
H        0.67157721       2.20439427      -0.13704615
13
Frame=8 idx=000693 GeodesicLength=0.8434588050498759 rxn_smarts="[C:1]([c:2]1[c:3]([H:10])[n:4]([H:11])[c:5]([H:12])[c:6]1[H:13])([H:7])([H:8])[H:9]>>[C:1]([C:6](=[C:2]=[C:3]([N:4]([C:5][H:12])[H:11])[H:10])[H:13])([H:7])([H:8])[H:9]"
C        1.95074552       0.19653636       0.32667169
C        0.33362537       0.12341050      -0.48595663
C       -0.49152661      -0.91451079      -0.61530766
N       -1.82211303      -0.70188739      -0.18922126
C       -2.13348552       0.48236082       0.31249668
C        0.40399079       1.21281021       0.27895225
H        2.05729454      -0.01685083       1.38809599
H        2.28988374      -0.70193307      -0.19696500
H        2.64732833       0.98823564       0.04919346
H       -0.17128066      -1.91092367      -0.87702586
H       -2.47743376      -1.45172308      -0.36764007
H       -3.21231926       0.50514716       0.51729995
H        0.62529054       2.18932814      -0.14059353
13
Frame=9 idx=000693 GeodesicLength=0.9502709461259249 rxn_smarts="[C:1]([c:2]1[c:3]([H:10])[n:4]([H:11])[c:5]([H:12])[c:6]1[H:13])([H:7])([H:8])[H:9]>>[C:1]([C:6](=[C:2]=[C:3]([N:4]([C:5][H:12])[H:11])[H:10])[H:13])([H:7])([H:8])[H:9]"
C        1.94709837       0.20569885       0.33851093
C        0.34197764       0.09758919      -0.50962748
C       -0.49407612      -0.93207725      -0.64173130
N       -1.81418613      -0.70669418      -0.19405174
C       -2.08319892       0.47605032       0.34027131
C        0.36723780       1.18835871       0.26109103
H        2.05489266       0.04726093       1.41012441
H        2.30059491      -0.71790334      -0.12813183
H        2.64154708       0.98739368       0.02808508
H       -0.19090300      -1.92841255      -0.92339631
H       -2.49715089      -1.41970103      -0.41279628
H       -3.15414699       0.52895544       0.57366778
H        0.58031359       2.17348122      -0.14201561
13
Frame=10 idx=000693 GeodesicLength=1.0569844234999377 rxn_smarts="[C:1]([c:2]1[c:3]([H:10])[n:4]([H:11])[c:5]([H:12])[c:6]1[H:13])([H:7])([H:8])[H:9]>>[C:1]([C:6](=[C:2]=[C:3]([N:4]([C:5][H:12])[H:11])[H:10])[H:13])([H:7])([H:8])[H:9]"
C        1.94399025       0.21489932       0.35018626
C        0.34992804       0.07199439      -0.52912954
C       -0.49703274      -0.94889617      -0.66604103
N       -1.80706002      -0.71188044      -0.19885820
C       -2.03547969       0.46837726       0.36452601
C        0.33269603       1.16408867       0.24484147
H        2.05408145       0.11440961       1.42928306
H        2.30826572      -0.73210254      -0.05670036
H        2.63779025       0.98274985       0.00463541
H       -0.21170211      -1.94364933      -0.97105822
H       -2.51600980      -1.38436077      -0.45791289
H       -3.09655105       0.54746477       0.62961284
H        0.53708368       2.15690538      -0.14338481
13
Frame=11 idx=000693 GeodesicLength=1.1636654755229374 rxn_smarts="[C:1]([c:2]1[c:3]([H:10])[n:4]([H:11])[c:5]([H:12])[c:6]1[H:13])([H:7])([H:8])[H:9]>>[C:1]([C:6](=[C:2]=[C:3]([N:4]([C:5][H:12])[H:11])[H:10])[H:13])([H:7])([H:8])[H:9]"
C        1.94157630       0.22429361       0.36138688
C        0.35738166       0.04635755      -0.54475245
C       -0.50031206      -0.96544235      -0.68789389
N       -1.80094222      -0.71740971      -0.20399691
C       -1.98958484       0.45793716       0.38887763
C        0.30006646       1.13973586       0.23036639
H        2.05511921       0.18430806       1.44480203
H        2.31341090      -0.74386323       0.01671327
H        2.63590558       0.97451191      -0.02089851
H       -0.23353472      -1.95707595      -1.01885405
H       -2.53404490      -1.34505485      -0.50395966
H       -3.04002653       0.56219930       0.68266130
H        0.49498516       2.13950262      -0.14445203
13
Frame=12 idx=000693 GeodesicLength=1.2701772572859942 rxn_smarts="[C:1]([c:2]1[c:3]([H:10])[n:4]([H:11])[c:5]([H:12])[c:6]1[H:13])([H:7])([H:8])[H:9]>>[C:1]([C:6](=[C:2]=[C:3]([N:4]([C:5][H:12])[H:11])[H:10])[H:13])([H:7])([H:8])[H:9]"
C        1.94010857       0.23365908       0.37182474
C        0.36427976       0.02088639      -0.55670789
C       -0.50397125      -0.98145700      -0.70779446
N       -1.79595487      -0.72275787      -0.20992517
C       -1.94603838       0.44557507       0.41211114
C        0.26914525       1.11480452       0.21883064
H        2.05868704       0.25560137       1.45596455
H        2.31676807      -0.75262081       0.09057991
H        2.63569191       0.96286242      -0.04795988
H       -0.25632869      -1.96826904      -1.06694808
H       -2.55027050      -1.30458256      -0.54656694
H       -2.98585254       0.57508060       0.72962060
H        0.45373562       2.12121784      -0.14302916
13
Frame=13 idx=000693 GeodesicLength=1.3765618189977968 rxn_smarts="[C:1]([c:2]1[c:3]([H:10])[n:4]([H:11])[c:5]([H:12])[c:6]1[H:13])([H:7])([H:8])[H:9]>>[C:1]([C:6](=[C:2]=[C:3]([N:4]([C:5][H:12])[H:11])[H:10])[H:13])([H:7])([H:8])[H:9]"
C        1.93925187       0.24304207       0.38195314
C        0.37083919      -0.00458392      -0.56579422
C       -0.50794615      -0.99695357      -0.72644098
N       -1.79202436      -0.72755486      -0.21724623
C       -1.90470000       0.43187264       0.43348745
C        0.23977513       1.08965371       0.20897902
H        2.06353318       0.32868006       1.46304298
H        2.31815930      -0.75841601       0.16614511
H        2.63722345       0.94732561      -0.07561101
H       -0.28001557      -1.97722928      -1.11544139
H       -2.56487940      -1.26267112      -0.58697392
H       -2.93289262       0.58465481       0.77467717
H        0.41367599       2.10217985      -0.14077712
13
Frame=14 idx=000693 GeodesicLength=1.4829074040537735 rxn_smarts="[C:1]([c:2]1[c:3]([H:10])[n:4]([H:11])[c:5]([H:12])[c:6]1[H:13])([H:7])([H:8])[H:9]>>[C:1]([C:6](=[C:2]=[C:3]([N:4]([C:5][H:12])[H:11])[H:10])[H:13])([H:7])([H:8])[H:9]"
C        1.93900904       0.25249400       0.39168471
C        0.37705512      -0.03020182      -0.57223300
C       -0.51222154      -1.01205513      -0.74400767
N       -1.78885993      -0.73222687      -0.22505703
C       -1.86478794       0.41559221       0.45549069
C        0.21178062       1.06417035       0.20077063
H        2.06954207       0.40346424       1.46562692
H        2.31774797      -0.76091815       0.24346533
H        2.64041354       0.92781530      -0.10357795
H       -0.30457480      -1.98365165      -1.16499063
H       -2.57785951      -1.21926654      -0.62529524
H       -2.88163596       0.59244689       0.81585658
H        0.37439133       2.08233715      -0.13773334
13
Frame=15 idx=000693 GeodesicLength=1.5893769220780198 rxn_smarts="[C:1]([c:2]1[c:3]([H:10])[n:4]([H:11])[c:5]([H:12])[c:6]1[H:13])([H:7])([H:8])[H:9]>>[C:1]([C:6](=[C:2]=[C:3]([N:4]([C:5][H:12])[H:11])[H:10])[H:13])([H:7])([H:8])[H:9]"
C        1.93897809       0.26215658       0.40152749
C        0.38318324      -0.05636032      -0.57653608
C       -0.51674005      -1.02690700      -0.76100189
N       -1.78647075      -0.73629070      -0.23423765
C       -1.82591761       0.39691896       0.47758379
C        0.18500830       1.03865615       0.19282904
H        2.07570006       0.48110174       1.46369932
H        2.31471248      -0.75994378       0.32461793
H        2.64543911       0.90331023      -0.13131204
H       -0.33009329      -1.98755319      -1.21577409
H       -2.58942435      -1.17281437      -0.66345303
H       -2.83036472       0.59600015       0.85805001
H        0.33598950       2.06172555      -0.13599281
13
Frame=16 idx=000693 GeodesicLength=1.6958492663553786 rxn_smarts="[C:1]([c:2]1[c:3]([H:10])[n:4]([H:11])[c:5]([H:12])[c:6]1[H:13])([H:7])([H:8])[H:9]>>[C:1]([C:6](=[C:2]=[C:3]([N:4]([C:5][H:12])[H:11])[H:10])[H:13])([H:7])([H:8])[H:9]"
C        1.93930821       0.27188456       0.41126601
C        0.38916899      -0.08298868      -0.57867832
C       -0.52157035      -1.04131627      -0.77760546
N       -1.78477515      -0.73968377      -0.24441855
C       -1.78856030       0.37676416       0.49854581
C        0.15938717       1.01287464       0.18579171
H        2.08232781       0.56048024       1.45661609
H        2.30943830      -0.75483629       0.40854455
H        2.65222681       0.87386593      -0.15814746
H       -0.35639872      -1.98858791      -1.26759408
H       -2.59929007      -1.12484027      -0.69977079
H       -2.77967981       0.59607421       0.89988565
H        0.29841712       2.04030945      -0.13443515
