12
Frame=0 idx=004524 GeodesicLength=0.0 rxn_smarts="[O:1]([C@@:2]1([H:8])[C@@:3]2([H:9])[C:4]([H:10])([H:11])[O:5][C@@:6]12[H:12])[H:7]>>[O:1]([C:2](=[C:3]([C:6](=[O+:5][C-:4]([H:10])[H:11])[H:12])[H:9])[H:8])[H:7]"
O       -0.35753020       1.35629080      -1.51505530
C       -0.66172886       1.25820213      -0.20711777
C       -0.08042384       0.38010459       0.67320505
C       -0.20494731      -1.27789598       0.26734088
O        1.04471724      -1.63908138       0.66444574
C        1.31953317      -0.23423057       0.48148488
H        0.34956045       0.73699453      -1.72919972
H       -1.40743361       1.98108514       0.09348699
H       -0.37784743       0.52980750       1.70750150
H       -1.01785279      -1.67352016       0.87713672
H       -0.38847575      -1.34652629      -0.80714833
H        1.78242896      -0.07123027      -0.50608063
12
Frame=1 idx=004524 GeodesicLength=0.10148771871507284 rxn_smarts="[O:1]([C@@:2]1([H:8])[C@@:3]2([H:9])[C:4]([H:10])([H:11])[O:5][C@@:6]12[H:12])[H:7]>>[O:1]([C:2](=[C:3]([C:6](=[O+:5][C-:4]([H:10])[H:11])[H:12])[H:9])[H:8])[H:7]"
O       -0.36324840       1.34249576      -1.52850781
C       -0.63129227       1.27388313      -0.20993157
C       -0.11212068       0.36771723       0.68096127
C       -0.21426400      -1.30338827       0.26946515
O        1.05857448      -1.61707970       0.63231110
C        1.29430744      -0.20748309       0.47581984
H        0.33670206       0.71647521      -1.74589101
H       -1.33414728       2.03738311       0.09563116
H       -0.41902701       0.51326779       1.71244853
H       -0.99376389      -1.73471203       0.89755189
H       -0.42732941      -1.36707758      -0.79912302
H        1.80560897      -0.02148156      -0.48073554
12
Frame=2 idx=004524 GeodesicLength=0.20278171830367941 rxn_smarts="[O:1]([C@@:2]1([H:8])[C@@:3]2([H:9])[C:4]([H:10])([H:11])[O:5][C@@:6]12[H:12])[H:7]>>[O:1]([C:2](=[C:3]([C:6](=[O+:5][C-:4]([H:10])[H:11])[H:12])[H:9])[H:8])[H:7]"
O       -0.36920883       1.32987267      -1.54076243
C       -0.60025681       1.28800613      -0.21307396
C       -0.14344783       0.35605713       0.68629670
C       -0.22399553      -1.32896400       0.27204991
O        1.06974141      -1.59451078       0.59795782
C        1.26831686      -0.18197326       0.46917476
H        0.32412162       0.69812075      -1.76218870
H       -1.25891825       2.08878182       0.09731350
H       -0.45953867       0.49808411       1.71486028
H       -0.96669789      -1.79505271       0.91880479
H       -0.46885046      -1.38833011      -0.78919587
H        1.82873439       0.02990825      -0.45123680
12
Frame=3 idx=004524 GeodesicLength=0.3039978717267202 rxn_smarts="[O:1]([C@@:2]1([H:8])[C@@:3]2([H:9])[C:4]([H:10])([H:11])[O:5][C@@:6]12[H:12])[H:7]>>[O:1]([C:2](=[C:3]([C:6](=[O+:5][C-:4]([H:10])[H:11])[H:12])[H:9])[H:8])[H:7]"
O       -0.37460704       1.31913933      -1.55188539
C       -0.56943465       1.30029678      -0.21671191
C       -0.17392288       0.34540693       0.68931708
C       -0.23413585      -1.35449854       0.27516982
O        1.07810447      -1.57169037       0.56105648
C        1.24199173      -0.15791417       0.46138450
H        0.31209161       0.68201746      -1.77819465
H       -1.18320914       2.13475821       0.09841302
H       -0.49882624       0.48448313       1.71494076
H       -0.93653983      -1.85410748       0.94087247
H       -0.51321755      -1.41013209      -0.77708169
H        1.85170537       0.08224081      -0.41728049
12
Frame=4 idx=004524 GeodesicLength=0.40514349808300876 rxn_smarts="[O:1]([C@@:2]1([H:8])[C@@:3]2([H:9])[C:4]([H:10])([H:11])[O:5][C@@:6]12[H:12])[H:7]>>[O:1]([C:2](=[C:3]([C:6](=[O+:5][C-:4]([H:10])[H:11])[H:12])[H:9])[H:8])[H:7]"
O       -0.37875245       1.31067074      -1.56201562
C       -0.53923044       1.31076523      -0.22088396
C       -0.20302892       0.33599179       0.69023585
C       -0.24468429      -1.37977964       0.27886962
O        1.08349695      -1.54880468       0.52124049
C        1.21578956      -0.13544554       0.45225199
H        0.30092909       0.66814421      -1.79394772
H       -1.10880259       2.17472521       0.09879421
H       -0.53626820       0.47258886       1.71295861
H       -0.90330584      -1.91139399       0.96352202
H       -0.56053548      -1.43216360      -0.76242648
H        1.87439262       0.13470139      -0.37859900
12
Frame=5 idx=004524 GeodesicLength=0.5062715181666207 rxn_smarts="[O:1]([C@@:2]1([H:8])[C@@:3]2([H:9])[C:4]([H:10])([H:11])[O:5][C@@:6]12[H:12])[H:7]>>[O:1]([C:2](=[C:3]([C:6](=[O+:5][C-:4]([H:10])[H:11])[H:12])[H:9])[H:8])[H:7]"
O       -0.38133051       1.30446394      -1.57149237
C       -0.51000442       1.31951931      -0.22566597
C       -0.23053844       0.32790413       0.68929909
C       -0.25554868      -1.40474108       0.28315651
O        1.08584264      -1.52597417       0.47810966
C        1.19000691      -0.11452219       0.44169837
H        0.29084413       0.65636661      -1.80958841
H       -1.03662698       2.20903503       0.09850608
H       -0.57162685       0.46236755       1.70921294
H       -0.86679729      -1.96680340       0.98646623
H       -0.61079838      -1.45425687      -0.74488340
H        1.89657787       0.18664114      -0.33481873
12
Frame=6 idx=004524 GeodesicLength=0.6073373230700059 rxn_smarts="[O:1]([C@@:2]1([H:8])[C@@:3]2([H:9])[C:4]([H:10])([H:11])[O:5][C@@:6]12[H:12])[H:7]>>[O:1]([C:2](=[C:3]([C:6](=[O+:5][C-:4]([H:10])[H:11])[H:12])[H:9])[H:8])[H:7]"
O       -0.38225679       1.30039016      -1.58054359
C       -0.48171023       1.32688902      -0.23102339
C       -0.25623377       0.32121418       0.68676708
C       -0.26656669      -1.42926120       0.28801735
O        1.08503649      -1.50314030       0.43154534
C        1.16495281      -0.09505188       0.42967411
H        0.28191350       0.64656091      -1.82522318
H       -0.96767408       2.23794014       0.09749274
H       -0.60467482       0.45376000       1.70397893
H       -0.82691444      -2.02021476       1.00913346
H       -0.66375765      -1.47616415      -0.72409291
H        1.91788566       0.23707787      -0.28572594
12
Frame=7 idx=004524 GeodesicLength=0.7083420423920683 rxn_smarts="[O:1]([C@@:2]1([H:8])[C@@:3]2([H:9])[C:4]([H:10])([H:11])[O:5][C@@:6]12[H:12])[H:7]>>[O:1]([C:2](=[C:3]([C:6](=[O+:5][C-:4]([H:10])[H:11])[H:12])[H:9])[H:8])[H:7]"
O       -0.38173359       1.29820807      -1.58942324
C       -0.45436159       1.33316653      -0.23696813
C       -0.28014225       0.31591438       0.68284386
C       -0.27746743      -1.45332705       0.29343085
O        1.08102795      -1.48014814       0.38165411
C        1.14077298      -0.07680402       0.41623327
H        0.27402728       0.63859050      -1.84101821
H       -0.90202690       2.26227696       0.09583082
H       -0.63553044       0.44663214       1.69745642
H       -0.78342770      -2.07173513       1.03089062
H       -0.71891906      -1.49782901      -0.69972826
H        1.93778075       0.28505477      -0.23120211
12
Frame=8 idx=004524 GeodesicLength=0.8093184230151486 rxn_smarts="[O:1]([C@@:2]1([H:8])[C@@:3]2([H:9])[C:4]([H:10])([H:11])[O:5][C@@:6]12[H:12])[H:7]>>[O:1]([C:2](=[C:3]([C:6](=[O+:5][C-:4]([H:10])[H:11])[H:12])[H:9])[H:8])[H:7]"
O       -0.38008217       1.29775211      -1.59833897
C       -0.42788136       1.33871054      -0.24348636
C       -0.30235885       0.31199708       0.67770598
C       -0.28790681      -1.47696073       0.29939161
O        1.07377496      -1.45678828       0.32893763
C        1.11755958      -0.05951096       0.40148104
H        0.26694448       0.63237228      -1.85717340
H       -0.83955029       2.28294551       0.09361848
H       -0.66442961       0.44086640       1.68981562
H       -0.73620797      -2.12151983       1.05101626
H       -0.77549154      -1.51929166      -0.67153605
H        1.95562959       0.32942754      -0.17143185
12
Frame=9 idx=004524 GeodesicLength=0.9101645424776705 rxn_smarts="[O:1]([C@@:2]1([H:8])[C@@:3]2([H:9])[C:4]([H:10])([H:11])[O:5][C@@:6]12[H:12])[H:7]>>[O:1]([C:2](=[C:3]([C:6](=[O+:5][C-:4]([H:10])[H:11])[H:12])[H:9])[H:8])[H:7]"
O       -0.37760174       1.29877687      -1.60730319
C       -0.40217911       1.34370810      -0.25056796
C       -0.32305269       0.30942297       0.67139165
C       -0.29756962      -1.50006902       0.30585676
O        1.06322360      -1.43286867       0.27387424
C        1.09530893      -0.04289356       0.38553243
H        0.26040828       0.62780416      -1.87367877
H       -0.77987276       2.30055812       0.09094075
H       -0.69167554       0.43633136       1.68098533
H       -0.68506561      -2.16947497       1.06883064
H       -0.83277751      -1.54052768      -0.63921198
H        1.97085377       0.36923233      -0.10664991
12
Frame=10 idx=004524 GeodesicLength=1.0109450265840365 rxn_smarts="[O:1]([C@@:2]1([H:8])[C@@:3]2([H:9])[C:4]([H:10])([H:11])[O:5][C@@:6]12[H:12])[H:7]>>[O:1]([C:2](=[C:3]([C:6](=[O+:5][C-:4]([H:10])[H:11])[H:12])[H:9])[H:8])[H:7]"
O       -0.37461274       1.30134304      -1.61643460
C       -0.37707855       1.34856516      -0.25815683
C       -0.34233294       0.30821581       0.66403825
C       -0.30607719      -1.52269098       0.31287272
O        1.04941824      -1.40826642       0.21767068
C        1.07406156      -0.02672151       0.36853549
H        0.25406440       0.62489263      -1.89071935
H       -0.72289309       2.31586795       0.08788712
H       -0.71754003       0.43299120       1.67110451
H       -0.63024493      -2.21573866       1.08360127
H       -0.88959596      -1.56166451      -0.60271941
H        1.98283123       0.40320628      -0.03767985
12
Frame=11 idx=004524 GeodesicLength=1.1116591931653972 rxn_smarts="[O:1]([C@@:2]1([H:8])[C@@:3]2([H:9])[C:4]([H:10])([H:11])[O:5][C@@:6]12[H:12])[H:7]>>[O:1]([C:2](=[C:3]([C:6](=[O+:5][C-:4]([H:10])[H:11])[H:12])[H:9])[H:8])[H:7]"
O       -0.37133031       1.30544164      -1.62574058
C       -0.35246653       1.35350383      -0.26622208
C       -0.36035945       0.30836428       0.65568334
C       -0.31314077      -1.54480009       0.32047443
O        1.03245943      -1.38296064       0.16133919
C        1.05378689      -0.01079222       0.35060612
H        0.24763537       0.62360534      -1.90830928
H       -0.66831876       2.32940295       0.08454033
H       -0.74232206       0.43079862       1.66014712
H       -0.57198260      -2.26030371       1.09476410
H       -0.94501085      -1.58278315      -0.56198785
H        1.99104963       0.43052315       0.03470516
12
Frame=12 idx=004524 GeodesicLength=1.212339568094997 rxn_smarts="[O:1]([C@@:2]1([H:8])[C@@:3]2([H:9])[C:4]([H:10])([H:11])[O:5][C@@:6]12[H:12])[H:7]>>[O:1]([C:2](=[C:3]([C:6](=[O+:5][C-:4]([H:10])[H:11])[H:12])[H:9])[H:8])[H:7]"
O       -0.36787762       1.31112411      -1.63522927
C       -0.32826133       1.35874048      -0.27473127
C       -0.37728316       0.30987040       0.64637461
C       -0.31853631      -1.56642296       0.32872737
O        1.01256766      -1.35705446       0.10591540
C        1.03448133       0.00506042       0.33185584
H        0.24091219       0.62389558      -1.92643681
H       -0.61589360       2.34166184       0.08096809
H       -0.76630754       0.42975593       1.64811382
H       -0.51068694      -2.30324049       1.10186450
H       -0.99817432      -1.60401487      -0.51702061
H        1.99505962       0.45062403       0.10959834
12
Frame=13 idx=004524 GeodesicLength=1.3129418606089787 rxn_smarts="[O:1]([C@@:2]1([H:8])[C@@:3]2([H:9])[C:4]([H:10])([H:11])[O:5][C@@:6]12[H:12])[H:7]>>[O:1]([C:2](=[C:3]([C:6](=[O+:5][C-:4]([H:10])[H:11])[H:12])[H:9])[H:8])[H:7]"
O       -0.36428047       1.31839731      -1.64489888
C       -0.30449536       1.36427457      -0.28367109
C       -0.39328849       0.31261117       0.63613126
C       -0.32201128      -1.58752961       0.33763767
O        0.99003409      -1.33065148       0.05232844
C        1.01603583       0.02096659       0.31245299
H        0.23365535       0.62567293      -1.94503175
H       -0.56478040       2.35291746       0.07727876
H       -0.78982296       0.42968191       1.63495317
H       -0.44683725      -2.34437359       1.10461946
H       -1.04831299      -1.62544014      -0.46785856
H        1.99410393       0.46347288       0.18605852
12
Frame=14 idx=004524 GeodesicLength=1.4134734522894563 rxn_smarts="[O:1]([C@@:2]1([H:8])[C@@:3]2([H:9])[C:4]([H:10])([H:11])[O:5][C@@:6]12[H:12])[H:7]>>[O:1]([C:2](=[C:3]([C:6](=[O+:5][C-:4]([H:10])[H:11])[H:12])[H:9])[H:8])[H:7]"
O       -0.36040313       1.32723962      -1.65474359
C       -0.28100482       1.37028315      -0.29299106
C       -0.40842127       0.31664049       0.62503756
C       -0.32354250      -1.60812456       0.34733106
O        0.96506067      -1.30398404       0.00114404
C        0.99853172       0.03696976       0.29261619
H        0.22601013       0.62882432      -1.96396115
H       -0.51534963       2.36345142       0.07343976
H       -0.81301700       0.43069916       1.62068571
H       -0.38086005      -2.38394629       1.10271790
H       -1.09504135      -1.64696921      -0.41442847
H        1.98803721       0.46891619       0.26315205
12
Frame=15 idx=004524 GeodesicLength=1.5139566537808773 rxn_smarts="[O:1]([C@@:2]1([H:8])[C@@:3]2([H:9])[C:4]([H:10])([H:11])[O:5][C@@:6]12[H:12])[H:7]>>[O:1]([C:2](=[C:3]([C:6](=[O+:5][C-:4]([H:10])[H:11])[H:12])[H:9])[H:8])[H:7]"
O       -0.35598240       1.33751905      -1.66467169
C       -0.25773349       1.37670522      -0.30261474
C       -0.42282933       0.32187609       0.61317619
C       -0.32307385      -1.62815705       0.35789012
O        0.93788047      -1.27714486      -0.04716053
C        0.98193250       0.05312525       0.27266961
H        0.21817867       0.63318012      -1.98297065
H       -0.46733680       2.37332534       0.06949360
H       -0.83622814       0.43270849       1.60527440
H       -0.31327059      -2.42200736       1.09586936
H       -1.13800185      -1.66846558      -0.35657353
H        1.97646480       0.46733527       0.33961786
12
Frame=16 idx=004524 GeodesicLength=1.6144683551268644 rxn_smarts="[O:1]([C@@:2]1([H:8])[C@@:3]2([H:9])[C:4]([H:10])([H:11])[O:5][C@@:6]12[H:12])[H:7]>>[O:1]([C:2](=[C:3]([C:6](=[O+:5][C-:4]([H:10])[H:11])[H:12])[H:9])[H:8])[H:7]"
O       -0.35070072       1.34914675      -1.67469891
C       -0.23460391       1.38354118      -0.31247825
C       -0.43667089       0.32826341       0.60065971
C       -0.32063216      -1.64766025       0.36945049
O        0.90855915      -1.25031122      -0.09238986
C        0.96615293       0.06939467       0.25299489
H        0.21053368       0.63866047      -2.00190980
H       -0.42068702       2.38266308       0.06545025
H       -0.85976220       0.43565754       1.58876441
H       -0.24440976      -2.45874168       1.08388593
H       -1.17698005      -1.68982379      -0.29406661
H        1.95920096       0.45920983       0.41433776
