9
Frame=0 idx=002877 GeodesicLength=0.0 rxn_smarts="[C:1]([C:2](=[O:3])[C:4]#[C:5][H:9])([H:6])([H:7])[H:8]>>[C:1]([C:5](=[C:4]=[C:2]=[O:3])[H:9])([H:6])([H:7])[H:8]"
C       -0.67853857       0.57685901      -0.09080799
C        0.01953387      -1.11507163       0.05053818
O       -0.90939116      -1.83074567      -0.11612300
C        1.43514824      -1.22514118       0.29771977
C        1.28699553       0.05114377       0.14585982
H       -1.12652396       0.46708524      -1.07467055
H       -0.26444184       1.57938113       0.00968945
H       -1.41315071       0.43293439       0.69791137
H        1.65036861       1.06355490       0.07988294
9
Frame=1 idx=002877 GeodesicLength=0.09845823151350878 rxn_smarts="[C:1]([C:2](=[O:3])[C:4]#[C:5][H:9])([H:6])([H:7])[H:8]>>[C:1]([C:5](=[C:4]=[C:2]=[O:3])[H:9])([H:6])([H:7])[H:8]"
C       -0.67794976       0.57927543      -0.08440418
C        0.00845723      -1.13293620       0.05887979
O       -0.90515773      -1.86461534      -0.12034969
C        1.41493499      -1.20561125       0.34177742
C        1.30010956       0.05732467       0.09703479
H       -1.11245352       0.49541076      -1.07736767
H       -0.27760627       1.58357570       0.05187109
H       -1.43437222       0.42454196       0.68154482
H        1.68403772       1.06303426       0.05101364
9
Frame=2 idx=002877 GeodesicLength=0.19652423226539226 rxn_smarts="[C:1]([C:2](=[O:3])[C:4]#[C:5][H:9])([H:6])([H:7])[H:8]>>[C:1]([C:5](=[C:4]=[C:2]=[O:3])[H:9])([H:6])([H:7])[H:8]"
C       -0.67749986       0.58191406      -0.07729148
C       -0.00336069      -1.15064347       0.07072123
O       -0.89956322      -1.89942661      -0.12231757
C        1.39491069      -1.18326944       0.37656145
C        1.31116432       0.06362121       0.05945978
H       -1.09393165       0.52518367      -1.08040001
H       -0.29063154       1.58586694       0.09724289
H       -1.45900061       0.41661801       0.66097732
H        1.71791256       1.06013563       0.01504640
9
Frame=3 idx=002877 GeodesicLength=0.2948767156914158 rxn_smarts="[C:1]([C:2](=[O:3])[C:4]#[C:5][H:9])([H:6])([H:7])[H:8]>>[C:1]([C:5](=[C:4]=[C:2]=[O:3])[H:9])([H:6])([H:7])[H:8]"
C       -0.67729664       0.58481338      -0.07055455
C       -0.01578876      -1.16839015       0.08458305
O       -0.89337153      -1.93545416      -0.11968879
C        1.37559028      -1.16002393       0.40186746
C        1.32116867       0.07028098       0.02728561
H       -1.07351202       0.55573828      -1.08358778
H       -0.30382225       1.58672121       0.14274250
H       -1.48489574       0.40995169       0.63702034
H        1.75192800       1.05636271      -0.01966784
9
Frame=4 idx=002877 GeodesicLength=0.39332274874604073 rxn_smarts="[C:1]([C:2](=[O:3])[C:4]#[C:5][H:9])([H:6])([H:7])[H:8]>>[C:1]([C:5](=[C:4]=[C:2]=[O:3])[H:9])([H:6])([H:7])[H:8]"
C       -0.67738320       0.58795421      -0.06436337
C       -0.02867741      -1.18613456       0.09945406
O       -0.88667626      -1.97261270      -0.11234523
C        1.35671845      -1.13655550       0.41930211
C        1.33042513       0.07757971      -0.00136267
H       -1.05188818       0.58727937      -1.08667119
H       -0.31757108       1.58618912       0.18799303
H       -1.51122000       0.40431362       0.61007085
H        1.78627255       1.05198673      -0.05207758
9
Frame=5 idx=002877 GeodesicLength=0.4912773948386764 rxn_smarts="[C:1]([C:2](=[O:3])[C:4]#[C:5][H:9])([H:6])([H:7])[H:8]>>[C:1]([C:5](=[C:4]=[C:2]=[O:3])[H:9])([H:6])([H:7])[H:8]"
C       -0.67772778       0.59121541      -0.05876836
C       -0.04208343      -1.20367056       0.11461910
O       -0.87958718      -2.01067303      -0.10031976
C        1.33793951      -1.11307930       0.43009484
C        1.33903199       0.08584666      -0.02733640
H       -1.02918663       0.62000579      -1.08927911
H       -0.33214594       1.58404659       0.23299429
H       -1.53740476       0.39923083       0.58025202
H        1.82116422       1.04707760      -0.08225662
9
Frame=6 idx=002877 GeodesicLength=0.5893066569895484 rxn_smarts="[C:1]([C:2](=[O:3])[C:4]#[C:5][H:9])([H:6])([H:7])[H:8]>>[C:1]([C:5](=[C:4]=[C:2]=[O:3])[H:9])([H:6])([H:7])[H:8]"
C       -0.67844016       0.59472075      -0.05390988
C       -0.05580549      -1.22125017       0.12976449
O       -0.87205773      -2.04981973      -0.08349659
C        1.31915301      -1.09000642       0.43474142
C        1.34722299       0.09518062      -0.05131430
H       -1.00598055       0.65418231      -1.09148531
H       -0.34790037       1.58052246       0.27763452
H       -1.56310299       0.39478610       0.54781988
H        1.85691128       1.04168407      -0.10975423
9
Frame=7 idx=002877 GeodesicLength=0.6872804236072668 rxn_smarts="[C:1]([C:2](=[O:3])[C:4]#[C:5][H:9])([H:6])([H:7])[H:8]>>[C:1]([C:5](=[C:4]=[C:2]=[O:3])[H:9])([H:6])([H:7])[H:8]"
C       -0.67954551       0.59845123      -0.04985501
C       -0.06983881      -1.23884485       0.14461345
O       -0.86408555      -2.08993665      -0.06174467
C        1.30015805      -1.06748821       0.43361564
C        1.35508073       0.10580774      -0.07354854
H       -0.98235135       0.69005892      -1.09312290
H       -0.36510719       1.57547505       0.32199449
H       -1.58808674       0.39074310       0.51278117
H        1.89377637       1.03573367      -0.13473364
9
Frame=8 idx=002877 GeodesicLength=0.7851656701297667 rxn_smarts="[C:1]([C:2](=[O:3])[C:4]#[C:5][H:9])([H:6])([H:7])[H:8]>>[C:1]([C:5](=[C:4]=[C:2]=[O:3])[H:9])([H:6])([H:7])[H:8]"
C       -0.68109767       0.60243174      -0.04668611
C       -0.08418589      -1.25647231       0.15898085
O       -0.85559806      -2.13092343      -0.03489830
C        1.28084724      -1.04569469       0.42687243
C        1.36270043       0.11791763      -0.09417017
H       -0.95844160       0.72789177      -1.09406524
H       -0.38405606       1.56879750       0.36611630
H       -1.61218711       0.38696726       0.47514457
H        1.93201871       1.02908452      -0.15729434
9
Frame=9 idx=002877 GeodesicLength=0.8832588494436978 rxn_smarts="[C:1]([C:2](=[O:3])[C:4]#[C:5][H:9])([H:6])([H:7])[H:8]>>[C:1]([C:5](=[C:4]=[C:2]=[O:3])[H:9])([H:6])([H:7])[H:8]"
C       -0.68308884       0.60665110      -0.04452526
C       -0.09865532      -1.27423743       0.17270900
O       -0.84656697      -2.17257688      -0.00222075
C        1.26082020      -1.02465281       0.41387812
C        1.37014049       0.13178374      -0.11325985
H       -0.93427562       0.76798728      -1.09416596
H       -0.40498317       1.56020858       0.41005053
H       -1.63528533       0.38326976       0.43467524
H        1.97189456       1.02156666      -0.17714107
9
Frame=10 idx=002877 GeodesicLength=0.9811246672790692 rxn_smarts="[C:1]([C:2](=[O:3])[C:4]#[C:5][H:9])([H:6])([H:7])[H:8]>>[C:1]([C:5](=[C:4]=[C:2]=[O:3])[H:9])([H:6])([H:7])[H:8]"
C       -0.68560896       0.61116853      -0.04342637
C       -0.11345538      -1.29204170       0.18564492
O       -0.83673110      -2.21466795       0.03624413
C        1.24016176      -1.00459281       0.39483165
C        1.37748932       0.14757686      -0.13057997
H       -0.90999000       0.81058232      -1.09317863
H       -0.42824216       1.54956774       0.45377805
H       -1.65722996       0.37954909       0.39140972
H        2.01360648       1.01285792      -0.19472350
9
Frame=11 idx=002877 GeodesicLength=1.0788146270784498 rxn_smarts="[C:1]([C:2](=[O:3])[C:4]#[C:5][H:9])([H:6])([H:7])[H:8]>>[C:1]([C:5](=[C:4]=[C:2]=[O:3])[H:9])([H:6])([H:7])[H:8]"
C       -0.68867571       0.61601117      -0.04348658
C       -0.12854577      -1.30992426       0.19766439
O       -0.82583414      -2.25684887       0.08118434
C        1.21855152      -0.98558626       0.36895647
C        1.38480478       0.16556133      -0.14582642
H       -0.88555086       0.85604064      -1.09082355
H       -0.45415386       1.53651268       0.49735489
H       -1.67792326       0.37564424       0.34503563
H        2.05732729       1.00258934      -0.21005918
9
Frame=12 idx=002877 GeodesicLength=1.176263202072527 rxn_smarts="[C:1]([C:2](=[O:3])[C:4]#[C:5][H:9])([H:6])([H:7])[H:8]>>[C:1]([C:5](=[C:4]=[C:2]=[O:3])[H:9])([H:6])([H:7])[H:8]"
C       -0.69232228       0.62123522      -0.04480656
C       -0.14395238      -1.32789387       0.20879791
O       -0.81343396      -2.29863528       0.13319803
C        1.19567112      -0.96772567       0.33522712
C        1.39215431       0.18596293      -0.15846364
H       -0.86095191       0.90469626      -1.08674590
H       -0.48308708       1.52066700       0.54072710
H       -1.69721957       0.37144499       0.29526240
H        2.10314174       0.99024842      -0.22319648
9
Frame=13 idx=002877 GeodesicLength=1.2734709264632917 rxn_smarts="[C:1]([C:2](=[O:3])[C:4]#[C:5][H:9])([H:6])([H:7])[H:8]>>[C:1]([C:5](=[C:4]=[C:2]=[O:3])[H:9])([H:6])([H:7])[H:8]"
C       -0.69662501       0.62696001      -0.04743386
C       -0.15963011      -1.34595234       0.21946515
O       -0.79881029      -2.33940525       0.19265101
C        1.17102493      -0.95107743       0.29240834
C        1.39967444       0.20892836      -0.16729950
H       -0.83602730       0.95704459      -1.08049282
H       -0.51562952       1.50156990       0.58400076
H       -1.71506380       0.36686128       0.24155792
H        2.15108667       0.97507088      -0.23485700
9
Frame=14 idx=002877 GeodesicLength=1.3704492115218592 rxn_smarts="[C:1]([C:2](=[O:3])[C:4]#[C:5][H:9])([H:6])([H:7])[H:8]>>[C:1]([C:5](=[C:4]=[C:2]=[O:3])[H:9])([H:6])([H:7])[H:8]"
C       -0.70162792       0.63337114      -0.05152433
C       -0.17543079      -1.36402136       0.23080044
O       -0.78089846      -2.37833784       0.25993700
C        1.14381900      -0.93554258       0.23795801
C        1.40754081       0.23428182      -0.17116513
H       -0.81084417       1.01340586      -1.07158386
H       -0.55220955       1.47883024       0.62681176
H       -1.73117329       0.36190587       0.18353072
H        2.20082437       0.95610685      -0.24476461
9
Frame=15 idx=002877 GeodesicLength=1.466762727901206 rxn_smarts="[C:1]([C:2](=[O:3])[C:4]#[C:5][H:9])([H:6])([H:7])[H:8]>>[C:1]([C:5](=[C:4]=[C:2]=[O:3])[H:9])([H:6])([H:7])[H:8]"
C       -0.70735001       0.64075923      -0.05688190
C       -0.19101146      -1.38145032       0.24560073
O       -0.75785836      -2.41458849       0.33249531
C        1.11223920      -0.91993955       0.17086713
C        1.41582809       0.26138652      -0.16688948
H       -0.78511808       1.07373538      -1.05905905
H       -0.59337937       1.45240029       0.66855390
H       -1.74500942       0.35631998       0.12084460
H        2.25165940       0.93137696      -0.25553124
9
Frame=16 idx=002877 GeodesicLength=1.5625169896142361 rxn_smarts="[C:1]([C:2](=[O:3])[C:4]#[C:5][H:9])([H:6])([H:7])[H:8]>>[C:1]([C:5](=[C:4]=[C:2]=[O:3])[H:9])([H:6])([H:7])[H:8]"
C       -0.71361035       0.64991579      -0.06366021
C       -0.20539191      -1.39790893       0.26421588
O       -0.72743545      -2.44791933       0.41035557
C        1.07386565      -0.90278346       0.09084205
C        1.42495040       0.28741117      -0.15389114
H       -0.75832871       1.13936228      -1.04202041
H       -0.63926683       1.42206329       0.70895648
H       -1.75567232       0.35003530       0.05277554
H        2.30088952       0.89982390      -0.26757375
